data_KAXQIL_clean_PM
_symmetry_space_group_name_H-M	'P 21/n'
_cell_length_a	11.821400
_cell_length_b	5.567300
_cell_length_c	22.760300
_cell_angle_alpha	90.000000
_cell_angle_beta	100.356000
_cell_angle_gamma	90.000000
_symmetry_Int_Tables_number 1

loop_
_symmetry_equiv_pos_as_xyz
'x,y,z'
'1/2-x,1/2+y,1/2-z'
'-x,-y,-z'
'1/2+x,1/2-y,1/2+z'

loop_
_atom_site_label
_atom_site_type_symbol
_atom_site_Cartn_x
_atom_site_Cartn_y
_atom_site_Cartn_z
_atom_site_charge
Ca1	Ca	3.159441	1.359256	6.204721	0.000000
S1	S	5.507177	0.202483	8.783861	0.000000
O1	O	4.482349	1.085624	8.262632	0.000000
O2	O	5.895382	0.472107	15.463105	0.000000
O3	O	5.323025	4.348618	8.692511	0.000000
O4	O	-0.861895	2.640570	5.736645	0.000000
O5	O	-0.502297	0.450395	5.533572	0.000000
C1	C	10.683039	1.439704	5.935688	0.000000
C2	C	5.869742	1.451395	14.666710	0.000000
C3	C	5.706664	0.607949	10.492630	0.000000
C4	C	7.034906	0.614630	8.011198	0.000000
C5	C	8.067247	5.251634	8.061127	0.000000
H1	H	7.962876	4.456067	8.532650	0.000000
C6	C	6.303853	5.503833	12.710984	0.000000
H2	H	6.651271	4.871944	13.297142	0.000000
C7	C	5.848700	1.154101	13.194374	0.000000
C8	C	5.287052	1.844446	10.952958	0.000000
H3	H	4.955784	2.482459	10.361875	0.000000
C9	C	7.175023	1.821621	7.346005	0.000000
H4	H	6.477987	2.436807	7.323615	0.000000
C10	C	8.381541	2.091078	6.711262	0.000000
H5	H	8.500603	2.904460	6.275785	0.000000
C11	C	9.256464	5.527772	7.397501	0.000000
H6	H	9.948571	4.907018	7.408696	0.000000
C12	C	6.241589	5.227695	11.350372	0.000000
H7	H	6.555508	4.417096	11.020127	0.000000
C13	C	9.413699	1.159669	6.718202	0.000000
C14	C	5.369912	2.113347	12.309540	0.000000
H8	H	5.102424	2.943432	12.632173	0.000000
O6	O	5.910066	2.643911	15.038600	0.000000

loop_
_geom_bond_atom_site_label_1
_geom_bond_atom_site_label_2
Ca1     O1
S1      C4
S1      O1
S1      O3
S1      C3
O2      C2
O4      C1
O5      C1
C1      C13
C2      C7
C2      O6
C3      C8
C3      C12
C4      C9
C4      C5
C5      C11
C5      H1
C6      C12
C6      C7
C6      H2
C7      C14
C8      H3
C8      C14
C9      C10
C9      H4
C10     H5
C10     C13
C11     C13
C11     H6
C12     H7
C14     H8
