# CIF file generated by openbabel 2.4.1, see http://openbabel.sf.net
data_I
_chemical_name_common 'casdb'
_cell_length_a 11.8214
_cell_length_b 5.5673
_cell_length_c 22.7603
_cell_angle_alpha 90
_cell_angle_beta 100.356
_cell_angle_gamma 90
_space_group_name_H-M_alt 'P 1'
_space_group_name_Hall 'P 1'
loop_
    _symmetry_equiv_pos_as_xyz
    x,y,z
loop_
    _atom_site_label
    _atom_site_type_symbol
    _atom_site_fract_x
    _atom_site_fract_y
    _atom_site_fract_z
    _atom_site_occupancy
    Ca1     Ca   0.36318   0.24415   0.27713   1.000
    S1      S    0.60165   0.03637   0.39232   1.000
    O6      O    0.50690   0.19500   0.36904   1.000
    O1      O    0.73774   0.08480   0.69064   1.000
    O5      O    0.58466   0.78110   0.38824   1.000
    O3      O    0.01577   0.47430   0.25622   1.000
    O4      O    0.04305   0.08090   0.24715   1.000
    C4      C    0.99546   0.25860   0.26511   1.000
    C4A     C    0.72326   0.26070   0.65507   1.000
    C6      C    0.64494   0.10920   0.46864   1.000
    C7      C    0.71894   0.11040   0.35781   1.000
    C8      C    0.80704   0.94330   0.36004   1.000
    H8      H    0.80550   0.80040   0.38110   1.000
    C9      C    0.72975   0.98860   0.56772   1.000
    H9      H    0.76820   0.87510   0.59390   1.000
    C10     C    0.69872   0.20730   0.58931   1.000
    C11     C    0.61656   0.33130   0.48920   1.000
    H11     H    0.57940   0.44590   0.46280   1.000
    C12     C    0.72051   0.32720   0.32810   1.000
    H12     H    0.66120   0.43770   0.32710   1.000
    C13     C    0.81276   0.37560   0.29975   1.000
    H13     H    0.81610   0.52170   0.28030   1.000
    C14     C    0.89738   0.99290   0.33040   1.000
    H14     H    0.95610   0.88140   0.33090   1.000
    C15     C    0.70345   0.93900   0.50695   1.000
    H15     H    0.72490   0.79340   0.49220   1.000
    C16     C    0.90018   0.20830   0.30006   1.000
    C17     C    0.64454   0.37960   0.54979   1.000
    H17     H    0.62690   0.52870   0.56420   1.000
    O2      O    0.73242   0.47490   0.67168   1.000
    Ca1     Ca   0.13682   0.74415   0.22287   1.000
    Ca1     Ca   0.63682   0.75585   0.72287   1.000
    Ca1     Ca   0.86318   0.25585   0.77713   1.000
    S1      S    0.89835   0.53637   0.10768   1.000
    S1      S    0.39835   0.96363   0.60768   1.000
    S1      S    0.10165   0.46363   0.89232   1.000
    O6      O    0.99310   0.69500   0.13096   1.000
    O6      O    0.49310   0.80500   0.63096   1.000
    O6      O    0.00690   0.30500   0.86904   1.000
    O1      O    0.76226   0.58480   0.80936   1.000
    O1      O    0.26226   0.91520   0.30936   1.000
    O1      O    0.23774   0.41520   0.19064   1.000
    O5      O    0.91534   0.28110   0.11176   1.000
    O5      O    0.41534   0.21890   0.61176   1.000
    O5      O    0.08466   0.71890   0.88824   1.000
    O3      O    0.48423   0.97430   0.24378   1.000
    O3      O    0.98423   0.52570   0.74378   1.000
    O3      O    0.51577   0.02570   0.75622   1.000
    O4      O    0.45695   0.58090   0.25285   1.000
    O4      O    0.95695   0.91910   0.75285   1.000
    O4      O    0.54305   0.41910   0.74715   1.000
    C4      C    0.50454   0.75860   0.23489   1.000
    C4      C    0.00454   0.74140   0.73489   1.000
    C4      C    0.49546   0.24140   0.76511   1.000
    C4A     C    0.77674   0.76070   0.84493   1.000
    C4A     C    0.27674   0.73930   0.34493   1.000
    C4A     C    0.22326   0.23930   0.15507   1.000
    C6      C    0.85506   0.60920   0.03136   1.000
    C6      C    0.35506   0.89080   0.53136   1.000
    C6      C    0.14494   0.39080   0.96864   1.000
    C7      C    0.78106   0.61040   0.14219   1.000
    C7      C    0.28106   0.88960   0.64219   1.000
    C7      C    0.21894   0.38960   0.85781   1.000
    C8      C    0.69296   0.44330   0.13996   1.000
    C8      C    0.19296   0.05670   0.63996   1.000
    C8      C    0.30704   0.55670   0.86004   1.000
    H8      H    0.69450   0.30040   0.11890   1.000
    H8      H    0.19450   0.19960   0.61890   1.000
    H8      H    0.30550   0.69960   0.88110   1.000
    C9      C    0.77025   0.48860   0.93228   1.000
    C9      C    0.27025   0.01140   0.43228   1.000
    C9      C    0.22975   0.51140   0.06772   1.000
    H9      H    0.73180   0.37510   0.90610   1.000
    H9      H    0.23180   0.12490   0.40610   1.000
    H9      H    0.26820   0.62490   0.09390   1.000
    C10     C    0.80128   0.70730   0.91069   1.000
    C10     C    0.30128   0.79270   0.41069   1.000
    C10     C    0.19872   0.29270   0.08931   1.000
    C11     C    0.88344   0.83130   0.01080   1.000
    C11     C    0.38344   0.66870   0.51080   1.000
    C11     C    0.11656   0.16870   0.98920   1.000
    H11     H    0.92060   0.94590   0.03720   1.000
    H11     H    0.42060   0.55410   0.53720   1.000
    H11     H    0.07940   0.05410   0.96280   1.000
    C12     C    0.77949   0.82720   0.17190   1.000
    C12     C    0.27949   0.67280   0.67190   1.000
    C12     C    0.22051   0.17280   0.82810   1.000
    H12     H    0.83880   0.93770   0.17290   1.000
    H12     H    0.33880   0.56230   0.67290   1.000
    H12     H    0.16120   0.06230   0.82710   1.000
    C13     C    0.68724   0.87560   0.20025   1.000
    C13     C    0.18724   0.62440   0.70025   1.000
    C13     C    0.31276   0.12440   0.79975   1.000
    H13     H    0.68390   0.02170   0.21970   1.000
    H13     H    0.18390   0.47830   0.71970   1.000
    H13     H    0.31610   0.97830   0.78030   1.000
    C14     C    0.60262   0.49290   0.16960   1.000
    C14     C    0.10262   0.00710   0.66960   1.000
    C14     C    0.39738   0.50710   0.83040   1.000
    H14     H    0.54390   0.38140   0.16910   1.000
    H14     H    0.04390   0.11860   0.66910   1.000
    H14     H    0.45610   0.61860   0.83090   1.000
    C15     C    0.79655   0.43900   0.99305   1.000
    C15     C    0.29655   0.06100   0.49305   1.000
    C15     C    0.20345   0.56100   0.00695   1.000
    H15     H    0.77510   0.29340   0.00780   1.000
    H15     H    0.27510   0.20660   0.50780   1.000
    H15     H    0.22490   0.70660   0.99220   1.000
    C16     C    0.59982   0.70830   0.19994   1.000
    C16     C    0.09982   0.79170   0.69994   1.000
    C16     C    0.40018   0.29170   0.80006   1.000
    C17     C    0.85546   0.87960   0.95021   1.000
    C17     C    0.35546   0.62040   0.45021   1.000
    C17     C    0.14454   0.12040   0.04979   1.000
    H17     H    0.87310   0.02870   0.93580   1.000
    H17     H    0.37310   0.47130   0.43580   1.000
    H17     H    0.12690   0.97130   0.06420   1.000
    O2      O    0.76758   0.97490   0.82832   1.000
    O2      O    0.26758   0.52510   0.32832   1.000
    O2      O    0.23242   0.02510   0.17168   1.000
