_symmetry_space_group_name_H-M   'P 1'
_cell_length_a 11.919000
_cell_length_b 11.919000
_cell_length_c 11.919000
_cell_angle_alpha 90.000000
_cell_angle_beta 90.000000
_cell_angle_gamma 90.000000
_symmetry_Int_Tables_number 1

loop_
_symmetry_equiv_pos_as_xyz
 'x, y, z'

loop_
_atom_site_label
_atom_site_fract_x
_atom_site_fract_y
_atom_site_fract_z
_atom_site_charge
re 0.01 0.01 0.01 0.0
re 0.01 0.01 0.99 0.0
re 0.01 0.99 0.01 0.0
re 0.01 0.99 0.99 0.0
re 0.99 0.01 0.01 0.0
re 0.99 0.01 0.99 0.0
re 0.99 0.99 0.01 0.0
re 0.99 0.99 0.99 0.0
O 0.000000 0.212200 0.500000 -0.750000
O 0.110300 0.110300 0.338400 -0.750000
O 0.000000 0.296700 0.296700 -0.750000
Si 0.000000 0.182300 0.368400 1.500000
O 0.000000 0.787800 0.500000 -0.750000
O 0.500000 0.000000 0.212200 -0.750000
O 0.500000 0.000000 0.787800 -0.750000
O 0.212200 0.500000 0.000000 -0.750000
O 0.787800 0.500000 0.000000 -0.750000
O 0.212200 0.000000 0.500000 -0.750000
O 0.787800 0.000000 0.500000 -0.750000
O 0.000000 0.500000 0.787800 -0.750000
O 0.000000 0.500000 0.212200 -0.750000
O 0.500000 0.212200 0.000000 -0.750000
O 0.500000 0.787800 0.000000 -0.750000
O 0.889700 0.889700 0.338400 -0.750000
O 0.889700 0.110300 0.661600 -0.750000
O 0.110300 0.889700 0.661600 -0.750000
O 0.338400 0.110300 0.110300 -0.750000
O 0.338400 0.889700 0.889700 -0.750000
O 0.661600 0.889700 0.110300 -0.750000
O 0.661600 0.110300 0.889700 -0.750000
O 0.110300 0.338400 0.110300 -0.750000
O 0.889700 0.338400 0.889700 -0.750000
O 0.110300 0.661600 0.889700 -0.750000
O 0.889700 0.661600 0.110300 -0.750000
O 0.110300 0.110300 0.661600 -0.750000
O 0.889700 0.889700 0.661600 -0.750000
O 0.110300 0.889700 0.338400 -0.750000
O 0.889700 0.110300 0.338400 -0.750000
O 0.110300 0.338400 0.889700 -0.750000
O 0.889700 0.338400 0.110300 -0.750000
O 0.889700 0.661600 0.889700 -0.750000
O 0.110300 0.661600 0.110300 -0.750000
O 0.338400 0.110300 0.889700 -0.750000
O 0.338400 0.889700 0.110300 -0.750000
O 0.661600 0.110300 0.110300 -0.750000
O 0.661600 0.889700 0.889700 -0.750000
O 0.000000 0.703300 0.296700 -0.750000
O 0.000000 0.296700 0.703300 -0.750000
O 0.000000 0.703300 0.703300 -0.750000
O 0.296700 0.000000 0.296700 -0.750000
O 0.296700 0.000000 0.703300 -0.750000
O 0.703300 0.000000 0.296700 -0.750000
O 0.703300 0.000000 0.703300 -0.750000
O 0.296700 0.296700 0.000000 -0.750000
O 0.703300 0.296700 0.000000 -0.750000
O 0.296700 0.703300 0.000000 -0.750000
O 0.703300 0.703300 0.000000 -0.750000
Si 0.000000 0.817700 0.368400 1.500000
Si 0.000000 0.182300 0.631600 1.500000
Si 0.000000 0.817700 0.631600 1.500000
Si 0.368400 0.000000 0.182300 1.500000
Si 0.368400 0.000000 0.817700 1.500000
Si 0.631600 0.000000 0.182300 1.500000
Si 0.631600 0.000000 0.817700 1.500000
Si 0.182300 0.368400 0.000000 1.500000
Si 0.817700 0.368400 0.000000 1.500000
Si 0.182300 0.631600 0.000000 1.500000
Si 0.817700 0.631600 0.000000 1.500000
Si 0.182300 0.000000 0.631600 1.500000
Si 0.817700 0.000000 0.631600 1.500000
Si 0.182300 0.000000 0.368400 1.500000
Si 0.817700 0.000000 0.368400 1.500000
Si 0.000000 0.368400 0.817700 1.500000
Si 0.000000 0.368400 0.182300 1.500000
Si 0.000000 0.631600 0.817700 1.500000
Si 0.000000 0.631600 0.182300 1.500000
Si 0.368400 0.182300 0.000000 1.500000
Si 0.368400 0.817700 0.000000 1.500000
Si 0.631600 0.182300 0.000000 1.500000
Si 0.631600 0.817700 0.000000 1.500000
