data_image0
_cell_length_a       26.136
_cell_length_b       26.136
_cell_length_c       6.942
_cell_angle_alpha    90
_cell_angle_beta     90
_cell_angle_gamma    120

_symmetry_space_group_name_H-M    "P 1"
_symmetry_int_tables_number       1

loop_
  _symmetry_equiv_pos_as_xyz
  'x, y, z'

loop_
  _atom_site_label
  _atom_site_occupancy
  _atom_site_fract_x
  _atom_site_fract_y
  _atom_site_fract_z
  _atom_site_thermal_displace_type
  _atom_site_B_iso_or_equiv
  _atom_site_type_symbol
  Mg1      1.0000 0.63990  0.68573  0.46836  Biso   1.000  Mg
  Mg2      1.0000 0.31427  0.95417  0.46836  Biso   1.000  Mg
  Mg3      1.0000 0.04583  0.36010  0.46836  Biso   1.000  Mg
  Mg4      1.0000 0.36010  0.31427  0.53164  Biso   1.000  Mg
  Mg5      1.0000 0.68573  0.04583  0.53164  Biso   1.000  Mg
  Mg6      1.0000 0.95417  0.63990  0.53164  Biso   1.000  Mg
  Mg7      1.0000 0.30657  0.01906  0.80169  Biso   1.000  Mg
  Mg8      1.0000 0.98094  0.28750  0.80169  Biso   1.000  Mg
  Mg9      1.0000 0.71250  0.69343  0.80169  Biso   1.000  Mg
  Mg10     1.0000 0.02677  0.64760  0.86497  Biso   1.000  Mg
  Mg11     1.0000 0.35240  0.37916  0.86497  Biso   1.000  Mg
  Mg12     1.0000 0.62084  0.97323  0.86497  Biso   1.000  Mg
  Mg13     1.0000 0.97323  0.35240  0.13503  Biso   1.000  Mg
  Mg14     1.0000 0.64760  0.62084  0.13503  Biso   1.000  Mg
  Mg15     1.0000 0.37916  0.02677  0.13503  Biso   1.000  Mg
  Mg16     1.0000 0.69343  0.98094  0.19831  Biso   1.000  Mg
  Mg17     1.0000 0.01906  0.71250  0.19831  Biso   1.000  Mg
  Mg18     1.0000 0.28750  0.30657  0.19831  Biso   1.000  Mg
  O1       1.0000 0.96721  0.29743  0.36040  Biso   1.000  O
  O2       1.0000 0.70257  0.66978  0.36040  Biso   1.000  O
  O3       1.0000 0.33022  0.03279  0.36040  Biso   1.000  O
  O4       1.0000 0.03279  0.70257  0.63960  Biso   1.000  O
  O5       1.0000 0.29743  0.33022  0.63960  Biso   1.000  O
  O6       1.0000 0.66978  0.96721  0.63960  Biso   1.000  O
  O7       1.0000 0.63388  0.63076  0.69373  Biso   1.000  O
  O8       1.0000 0.36924  0.00311  0.69373  Biso   1.000  O
  O9       1.0000 0.99689  0.36612  0.69373  Biso   1.000  O
  O10      1.0000 0.69946  0.03590  0.97293  Biso   1.000  O
  O11      1.0000 0.96410  0.66355  0.97293  Biso   1.000  O
  O12      1.0000 0.33645  0.30054  0.97293  Biso   1.000  O
  O13      1.0000 0.30054  0.96410  0.02707  Biso   1.000  O
  O14      1.0000 0.03590  0.33645  0.02707  Biso   1.000  O
  O15      1.0000 0.66355  0.69946  0.02707  Biso   1.000  O
  O16      1.0000 0.36612  0.36924  0.30627  Biso   1.000  O
  O17      1.0000 0.63076  0.99689  0.30627  Biso   1.000  O
  O18      1.0000 0.00311  0.63388  0.30627  Biso   1.000  O
  O19      1.0000 0.92780  0.23034  0.59466  Biso   1.000  O
  O20      1.0000 0.76966  0.69746  0.59466  Biso   1.000  O
  O21      1.0000 0.30254  0.07220  0.59466  Biso   1.000  O
  O22      1.0000 0.07220  0.76966  0.40534  Biso   1.000  O
  O23      1.0000 0.23034  0.30254  0.40534  Biso   1.000  O
  O24      1.0000 0.69746  0.92780  0.40534  Biso   1.000  O
  O25      1.0000 0.59447  0.56367  0.92799  Biso   1.000  O
  O26      1.0000 0.43633  0.03079  0.92799  Biso   1.000  O
  O27      1.0000 0.96921  0.40553  0.92799  Biso   1.000  O
  O28      1.0000 0.73887  0.10299  0.73867  Biso   1.000  O
  O29      1.0000 0.89701  0.63587  0.73867  Biso   1.000  O
  O30      1.0000 0.36413  0.26113  0.73867  Biso   1.000  O
  O31      1.0000 0.26113  0.89701  0.26133  Biso   1.000  O
  O32      1.0000 0.10299  0.36413  0.26133  Biso   1.000  O
  O33      1.0000 0.63587  0.73887  0.26133  Biso   1.000  O
  O34      1.0000 0.40553  0.43633  0.07201  Biso   1.000  O
  O35      1.0000 0.56367  0.96921  0.07201  Biso   1.000  O
  O36      1.0000 0.03079  0.59447  0.07201  Biso   1.000  O
  O37      1.0000 0.25334  0.93973  0.67281  Biso   1.000  O
  O38      1.0000 0.06027  0.31361  0.67281  Biso   1.000  O
  O39      1.0000 0.68639  0.74666  0.67281  Biso   1.000  O
  O40      1.0000 0.74666  0.06027  0.32719  Biso   1.000  O
  O41      1.0000 0.93973  0.68639  0.32719  Biso   1.000  O
  O42      1.0000 0.31361  0.25334  0.32719  Biso   1.000  O
  O43      1.0000 0.92001  0.27306  0.00614  Biso   1.000  O
  O44      1.0000 0.72694  0.64694  0.00614  Biso   1.000  O
  O45      1.0000 0.35306  0.07999  0.00614  Biso   1.000  O
  O46      1.0000 0.41333  0.39360  0.66052  Biso   1.000  O
  O47      1.0000 0.60640  0.01972  0.66052  Biso   1.000  O
  O48      1.0000 0.98028  0.58667  0.66052  Biso   1.000  O
  O49      1.0000 0.58667  0.60640  0.33948  Biso   1.000  O
  O50      1.0000 0.39360  0.98028  0.33948  Biso   1.000  O
  O51      1.0000 0.01972  0.41333  0.33948  Biso   1.000  O
  O52      1.0000 0.07999  0.72694  0.99386  Biso   1.000  O
  O53      1.0000 0.27306  0.35306  0.99386  Biso   1.000  O
  O54      1.0000 0.64694  0.92001  0.99386  Biso   1.000  O
  C1       1.0000 0.92683  0.24635  0.42241  Biso   1.000  C
  C2       1.0000 0.75365  0.68048  0.42241  Biso   1.000  C
  C3       1.0000 0.31952  0.07317  0.42241  Biso   1.000  C
  C4       1.0000 0.07317  0.75365  0.57759  Biso   1.000  C
  C5       1.0000 0.24635  0.31952  0.57759  Biso   1.000  C
  C6       1.0000 0.68048  0.92683  0.57759  Biso   1.000  C
  C7       1.0000 0.59350  0.57968  0.75574  Biso   1.000  C
  C8       1.0000 0.42032  0.01381  0.75574  Biso   1.000  C
  C9       1.0000 0.98619  0.40650  0.75574  Biso   1.000  C
  C10      1.0000 0.73984  0.08698  0.91092  Biso   1.000  C
  C11      1.0000 0.91302  0.65285  0.91092  Biso   1.000  C
  C12      1.0000 0.34715  0.26016  0.91092  Biso   1.000  C
  C13      1.0000 0.26016  0.91302  0.08908  Biso   1.000  C
  C14      1.0000 0.08698  0.34715  0.08908  Biso   1.000  C
  C15      1.0000 0.65285  0.73984  0.08908  Biso   1.000  C
  C16      1.0000 0.40650  0.42032  0.24426  Biso   1.000  C
  C17      1.0000 0.57968  0.98619  0.24426  Biso   1.000  C
  C18      1.0000 0.01381  0.59350  0.24426  Biso   1.000  C
  C19      1.0000 0.87927  0.20718  0.28663  Biso   1.000  C
  C20      1.0000 0.79282  0.67209  0.28663  Biso   1.000  C
  C21      1.0000 0.32791  0.12073  0.28663  Biso   1.000  C
  C22      1.0000 0.12073  0.79282  0.71337  Biso   1.000  C
  C23      1.0000 0.20718  0.32791  0.71337  Biso   1.000  C
  C24      1.0000 0.67209  0.87927  0.71337  Biso   1.000  C
  C25      1.0000 0.54594  0.54051  0.61996  Biso   1.000  C
  C26      1.0000 0.45949  0.00542  0.61996  Biso   1.000  C
  C27      1.0000 0.99458  0.45406  0.61996  Biso   1.000  C
  C28      1.0000 0.78740  0.12615  0.04670  Biso   1.000  C
  C29      1.0000 0.87385  0.66124  0.04670  Biso   1.000  C
  C30      1.0000 0.33876  0.21260  0.04670  Biso   1.000  C
  C31      1.0000 0.21260  0.87385  0.95330  Biso   1.000  C
  C32      1.0000 0.12615  0.33876  0.95330  Biso   1.000  C
  C33      1.0000 0.66124  0.78740  0.95330  Biso   1.000  C
  C34      1.0000 0.45406  0.45949  0.38004  Biso   1.000  C
  C35      1.0000 0.54051  0.99458  0.38004  Biso   1.000  C
  C36      1.0000 0.00542  0.54594  0.38004  Biso   1.000  C
  C37      1.0000 0.21197  0.88869  0.75473  Biso   1.000  C
  C38      1.0000 0.11131  0.32328  0.75473  Biso   1.000  C
  C39      1.0000 0.67672  0.78803  0.75473  Biso   1.000  C
  C40      1.0000 0.78803  0.11131  0.24527  Biso   1.000  C
  C41      1.0000 0.88869  0.67672  0.24527  Biso   1.000  C
  C42      1.0000 0.32328  0.21197  0.24527  Biso   1.000  C
  C43      1.0000 0.87864  0.22202  0.08806  Biso   1.000  C
  C44      1.0000 0.77798  0.65661  0.08806  Biso   1.000  C
  C45      1.0000 0.34339  0.12136  0.08806  Biso   1.000  C
  C46      1.0000 0.45470  0.44464  0.57860  Biso   1.000  C
  C47      1.0000 0.55536  0.01005  0.57860  Biso   1.000  C
  C48      1.0000 0.98995  0.54530  0.57860  Biso   1.000  C
  C49      1.0000 0.54530  0.55536  0.42140  Biso   1.000  C
  C50      1.0000 0.44464  0.98995  0.42140  Biso   1.000  C
  C51      1.0000 0.01005  0.45470  0.42140  Biso   1.000  C
  C52      1.0000 0.12136  0.77798  0.91194  Biso   1.000  C
  C53      1.0000 0.22202  0.34339  0.91194  Biso   1.000  C
  C54      1.0000 0.65661  0.87864  0.91194  Biso   1.000  C
  C55      1.0000 0.16537  0.84702  0.64147  Biso   1.000  C
  C56      1.0000 0.15298  0.31835  0.64147  Biso   1.000  C
  C57      1.0000 0.68165  0.83463  0.64147  Biso   1.000  C
  C58      1.0000 0.83463  0.15298  0.35853  Biso   1.000  C
  C59      1.0000 0.84702  0.68165  0.35853  Biso   1.000  C
  C60      1.0000 0.31835  0.16537  0.35853  Biso   1.000  C
  C61      1.0000 0.83204  0.18035  0.97480  Biso   1.000  C
  C62      1.0000 0.81965  0.65168  0.97480  Biso   1.000  C
  C63      1.0000 0.34832  0.16796  0.97480  Biso   1.000  C
  C64      1.0000 0.50130  0.48631  0.69186  Biso   1.000  C
  C65      1.0000 0.51369  0.01498  0.69186  Biso   1.000  C
  C66      1.0000 0.98502  0.49870  0.69186  Biso   1.000  C
  C67      1.0000 0.49870  0.51369  0.30814  Biso   1.000  C
  C68      1.0000 0.48631  0.98502  0.30814  Biso   1.000  C
  C69      1.0000 0.01498  0.50130  0.30814  Biso   1.000  C
  C70      1.0000 0.16796  0.81965  0.02520  Biso   1.000  C
  C71      1.0000 0.18035  0.34832  0.02520  Biso   1.000  C
  C72      1.0000 0.65168  0.83204  0.02520  Biso   1.000  C
  H1       1.0000 0.16364  0.85728  0.49031  Biso   1.000  H
  H2       1.0000 0.14272  0.30636  0.49031  Biso   1.000  H
  H3       1.0000 0.69364  0.83636  0.49031  Biso   1.000  H
  H4       1.0000 0.83636  0.14272  0.50969  Biso   1.000  H
  H5       1.0000 0.85728  0.69364  0.50969  Biso   1.000  H
  H6       1.0000 0.30636  0.16364  0.50969  Biso   1.000  H
  H7       1.0000 0.83031  0.19061  0.82364  Biso   1.000  H
  H8       1.0000 0.80939  0.63969  0.82364  Biso   1.000  H
  H9       1.0000 0.36031  0.16969  0.82364  Biso   1.000  H
  H10      1.0000 0.50303  0.47605  0.84302  Biso   1.000  H
  H11      1.0000 0.52395  0.02697  0.84302  Biso   1.000  H
  H12      1.0000 0.97303  0.49697  0.84302  Biso   1.000  H
  H13      1.0000 0.49697  0.52395  0.15698  Biso   1.000  H
  H14      1.0000 0.47605  0.97303  0.15698  Biso   1.000  H
  H15      1.0000 0.02697  0.50303  0.15698  Biso   1.000  H
  H16      1.0000 0.16969  0.80939  0.17636  Biso   1.000  H
  H17      1.0000 0.19061  0.36031  0.17636  Biso   1.000  H
  H18      1.0000 0.63969  0.83031  0.17636  Biso   1.000  H
