# CIF file generated by openbabel 2.3.2, see http://openbabel.sf.net
data_I
_chemical_name_common ''
_cell_length_a 26.179
_cell_length_b 26.179
_cell_length_c 6.65197
_cell_angle_alpha 90
_cell_angle_beta 90
_cell_angle_gamma 120
_space_group_name_H-M_alt 'R -3'
_space_group_name_Hall '-R 3'
loop_
    _symmetry_equiv_pos_as_xyz
    'x,y,z'
    '-y,x-y,z'
    '-x+y,-x,z'
    '-x,-y,-z'
    'y,-x+y,-z'
    'x-y,x,-z'
    '2/3+x,1/3+y,1/3+z'
    '2/3-y,1/3+x-y,1/3+z'
    '2/3-x+y,1/3-x,1/3+z'
    '2/3-x,1/3-y,1/3-z'
    '2/3+y,1/3-x+y,1/3-z'
    '2/3+x-y,1/3+x,1/3-z'
    '1/3+x,2/3+y,2/3+z'
    '1/3-y,2/3+x-y,2/3+z'
    '1/3-x+y,2/3-x,2/3+z'
    '1/3-x,2/3-y,2/3-z'
    '1/3+y,2/3-x+y,2/3-z'
    '1/3+x-y,2/3+x,2/3-z'
loop_
    _atom_site_type_symbol
    _atom_site_label
    _atom_site_Cartn_x
    _atom_site_Cartn_y
    _atom_site_Cartn_z
     Zn  Zn1     5.56460    7.95050    1.01183
      C   C2     5.78477    4.62184    1.91437
      C   C3     6.09211    4.99683    0.60959
      C   C4     6.85235    4.15345   -0.19610
      C   C5     7.30459    2.93530    0.30293
      C   C6     6.99711    2.56054    1.60771
      C   C7     6.23727    3.40370    2.41347
      H   H8     7.09097    4.44478   -1.20953
      H   H9     5.99852    3.11259    3.42683
      C  C10     4.96746    5.52871    2.78086
      O  O11     4.55959    6.62692    2.33085
      O  O12     4.69035    5.19067    3.95726
      C  C13     8.12176    2.02866   -0.56349
      O  O14     8.52963    0.93090   -0.11441
      O  O15     8.39913    2.36669   -1.73996
      O  O16     5.65426    6.17644    0.12639
      O  O17     7.43535    1.38070    2.09138
