data_SOD_PM
_symmetry_space_group_name_H-M   'P 1'
_cell_length_a 8.965000
_cell_length_b 8.965000
_cell_length_c 8.965000
_cell_angle_alpha 90.000000
_cell_angle_beta 90.000000
_cell_angle_gamma 90.000000
_symmetry_Int_Tables_number 1

loop_
_symmetry_equiv_pos_as_xyz
 'x, y, z'

loop_
_atom_site_label
_atom_site_fract_x
_atom_site_fract_y
_atom_site_fract_z
_atom_site_charge
O 0.146700 0.500000 0.853300 -0.750000
Si 0.250000 0.500000 0.000000 1.500000
O 0.500000 0.146700 0.853300 -0.750000
O 0.853300 0.500000 0.853300 -0.750000
O 0.500000 0.853300 0.853300 -0.750000
O 0.146700 0.500000 0.146700 -0.750000
O 0.500000 0.146700 0.146700 -0.750000
O 0.853300 0.500000 0.146700 -0.750000
O 0.500000 0.853300 0.146700 -0.750000
O 0.853300 0.146700 0.500000 -0.750000
O 0.853300 0.853300 0.500000 -0.750000
O 0.146700 0.853300 0.500000 -0.750000
O 0.146700 0.146700 0.500000 -0.750000
O 0.646700 0.000000 0.353300 -0.750000
O 0.000000 0.646700 0.353300 -0.750000
O 0.353300 0.000000 0.353300 -0.750000
O 0.000000 0.353300 0.353300 -0.750000
O 0.646700 0.000000 0.646700 -0.750000
O 0.000000 0.646700 0.646700 -0.750000
O 0.353300 0.000000 0.646700 -0.750000
O 0.000000 0.353300 0.646700 -0.750000
O 0.353300 0.646700 0.000000 -0.750000
O 0.353300 0.353300 0.000000 -0.750000
O 0.646700 0.353300 0.000000 -0.750000
O 0.646700 0.646700 0.000000 -0.750000
Si 0.500000 0.250000 0.000000 1.500000
Si 0.750000 0.500000 0.000000 1.500000
Si 0.500000 0.750000 0.000000 1.500000
Si 0.000000 0.250000 0.500000 1.500000
Si 0.750000 0.000000 0.500000 1.500000
Si 0.000000 0.750000 0.500000 1.500000
Si 0.250000 0.000000 0.500000 1.500000
Si 0.500000 0.000000 0.250000 1.500000
Si 0.500000 0.000000 0.750000 1.500000
Si 0.000000 0.500000 0.750000 1.500000
Si 0.000000 0.500000 0.250000 1.500000
