data_test2
_symmetry_space_group_name_H-M   'P 1'
_cell_length_a   10.0
_cell_length_b   20.0
_cell_length_c   30.0
_cell_angle_alpha   90.0
_cell_angle_beta   45.0
_cell_angle_gamma   120.0
_symmetry_Int_Tables_number   1
loop_
 _symmetry_equiv_pos_site_id
 _symmetry_equiv_pos_as_xyz
  1  'x, y, z'
loop_
 _atom_site_label
 _atom_site_fract_x
 _atom_site_fract_y
 _atom_site_fract_z
 _atom_site_charge
 Ca 0.2 0.5 0.7   1.0
 Ca 0.2 0.5 0.701   1.0
 O 0.6 0.3 0.1   -1.0
 O 0.601 0.3 0.1   -1.0
