data_Zn1
_symmetry_space_group_name_H-M   'P 1'
_cell_length_a   1.0
_cell_length_b   1.0
_cell_length_c   1.0
_cell_angle_alpha   90.0
_cell_angle_beta   90.0
_cell_angle_gamma   90.0
_symmetry_Int_Tables_number   1
_chemical_formula_structural   Zn1
_chemical_formula_sum   'Zn1'
_cell_volume   4354.26616559
_cell_formula_units_Z   8
loop_
 _symmetry_equiv_pos_site_id
 _symmetry_equiv_pos_as_xyz
  1  'x, y, z'
loop_
 _atom_site_label
 _atom_site_fract_x
 _atom_site_fract_y
 _atom_site_fract_z
 _atom_site_charge
 Zn1 0.0 0.0 0.0   0.0
