
#######################################################################
#
#                 Cambridge Crystallographic Data Centre
#                                CCDC 
#
#######################################################################
#
# If this CIF has been generated from an entry in the Cambridge 
# Structural Database, then it will include bibliographic, chemical, 
# crystal, experimental, refinement or atomic coordinate data resulting 
# from the CCDC's data processing and validation procedures.
#
#######################################################################

data_ABEXIQ
_symmetry_cell_setting           orthorhombic
_symmetry_space_group_name_H-M   'P n a 21'
_symmetry_Int_Tables_number      33
_space_group_name_Hall           'P 2c -2n'
loop_
_symmetry_equiv_pos_site_id
_symmetry_equiv_pos_as_xyz
1 x,y,z
2 -x,-y,1/2+z
3 1/2-x,1/2+y,1/2+z
4 1/2+x,1/2-y,z
_cell_length_a                   12.0560(3)
_cell_length_b                   11.0360(3)
_cell_length_c                   19.5610(5)
_cell_angle_alpha                90
_cell_angle_beta                 90
_cell_angle_gamma                90
_cell_volume                     2602.59
loop_
_atom_site_label
_atom_site_type_symbol
_atom_site_fract_x
_atom_site_fract_y
_atom_site_fract_z
Ce1 Ce 0.15983(3) 0.63569(3) 0.12121(2)
Ce2 Ce -0.02071(3) 1.11731(3) 0.33556(2)
N1 N 0.1248(5) 0.7258(6) 0.2490(4)
C1 C 0.0648(6) 0.8259(7) 0.2615(4)
H1 H 0.0101 0.8466 0.2301
N2 N 0.0780(5) 0.8983(5) 0.3163(3)
C2 C 0.1525(6) 0.8627(6) 0.3632(4)
C3 C 0.2145(6) 0.7573(6) 0.3551(4)
H2 H 0.2642 0.7314 0.3884
C4 C 0.1990(6) 0.6929(6) 0.2954(4)
C5 C 0.2741(6) 0.5855(6) 0.2776(4)
O1 O 0.2638(4) 0.5443(4) 0.2184(3)
O2 O 0.3402(4) 0.5506(5) 0.3226(3)
C6 C 0.1728(6) 0.9456(7) 0.4240(4)
O3 O 0.1112(4) 1.0405(5) 0.4264(3)
O4 O 0.2417(6) 0.9140(6) 0.4647(4)
N3 N 0.0095(5) 0.5005(5) 0.1959(4)
C7 C 0.0281(6) 0.3983(7) 0.2310(4)
H3 H 0.1007 0.3699 0.2323
N4 N -0.0473(5) 0.3340(6) 0.2640(4)
C8 C -0.1528(6) 0.3747(6) 0.2602(4)
C9 C -0.1803(6) 0.4799(6) 0.2252(4)
H4 H -0.2532 0.5069 0.2220
C10 C -0.0945(6) 0.5418(6) 0.1958(4)
C11 C -0.1136(6) 0.6600(6) 0.1575(4)
O5 O -0.0337(4) 0.7088(4) 0.1267(3)
O6 O -0.2103(4) 0.7041(4) 0.1638(3)
C12 C -0.2427(6) 0.2970(7) 0.2945(4)
O7 O -0.2118(4) 0.2009(4) 0.3229(3)
O8 O -0.3391(4) 0.3341(4) 0.2911(3)
O9 O -0.1515(5) 1.1743(5) 0.5509(3)
C13 C -0.1159(7) 1.1785(7) 0.4898(4)
O10 O -0.1177(4) 1.0926(5) 0.4478(3)
O11 O -0.0778(4) 1.3892(4) 0.5047(3)
C14 C -0.0634(7) 1.2998(7) 0.4672(4)
O12 O -0.0093(4) 1.2951(5) 0.4122(3)
O13 O 0.1785(5) 0.4161(4) 0.0929(3)
O14 O 0.3422(4) 0.6154(5) 0.0599(3)
O15 O -0.0408(5) 1.0789(5) 0.2095(3)
H5 H 0.1200 0.3720 0.0976
H6 H 0.2124 0.3897 0.0548
H7 H 0.3620 0.6089 0.0169
H8 H 0.3878 0.6708 0.0741
H9 H -0.0751 1.0026 0.2027
H10 H -0.0499 1.1138 0.1676
Ce1A Ce -0.15983(3) 1.36431(3) 0.62121(2)
Ce1C Ce -0.34017(3) 0.86431(3) 0.12121(2)
Ce2_2 Ce -0.02071(3) 0.11731(3) 0.33556(2)
Ce2C Ce -0.52071(3) 0.38269(3) 0.33556(2)
Ce2C_2 Ce 0.47929(3) 0.38269(3) 0.33556(2)
O2C O -0.1598(4) 0.9494(5) 0.3226(3)
N4_2 N -0.0473(5) 1.3340(6) 0.2640(4)
O6C O 0.2897(4) 0.7959(4) 0.1638(3)
O7_2 O -0.2118(4) 1.2009(4) 0.3229(3)
O8C O 0.1609(4) 1.1659(4) 0.2911(3)
O9A O 0.1515(5) 0.8257(5) 0.0509(3)
O11A O 0.0778(4) 0.6108(4) 0.0047(3)
O16 O 0.0052(6) 1.2461(7) 0.1008(4)
O17 O 0.4597(6) 0.8458(6) 0.4123(4)
O18 O 0.1380(5) 1.4897(5) 0.4191(3)
O19 O -0.1033(9) 0.8527(9) 0.4933(6)
O20 O 0.3421(10) 0.0957(10) 0.0573(6)
loop_
_geom_bond_atom_site_label_1
_geom_bond_atom_site_label_2
_geom_bond_site_symmetry_1
_geom_bond_site_symmetry_2
Ce1 N1 1_555 1_555
Ce2 N2 1_555 1_555
N1 C1 1_555 1_555
C1 H1 1_555 1_555
N2 C1 1_555 1_555
C2 N2 1_555 1_555
C3 C2 1_555 1_555
H2 C3 1_555 1_555
C4 N1 1_555 1_555
C5 C4 1_555 1_555
O1 Ce1 1_555 1_555
O2 C5 1_555 1_555
C6 C2 1_555 1_555
O3 Ce2 1_555 1_555
O4 C6 1_555 1_555
N3 Ce1 1_555 1_555
C7 N3 1_555 1_555
H3 C7 1_555 1_555
N4 C7 1_555 1_555
C8 N4 1_555 1_555
C9 C8 1_555 1_555
H4 C9 1_555 1_555
C10 N3 1_555 1_555
C11 C10 1_555 1_555
O5 Ce1 1_555 1_555
O6 C11 1_555 1_555
C12 C8 1_555 1_555
O7 C12 1_555 1_555
O8 C12 1_555 1_555
O9 C13 1_555 1_555
C13 O10 1_555 1_555
O10 Ce2 1_555 1_555
O11 C14 1_555 1_555
C14 C13 1_555 1_555
O12 Ce2 1_555 1_555
O13 Ce1 1_555 1_555
O14 Ce1 1_555 1_555
O15 Ce2 1_555 1_555
H5 O13 1_555 1_555
H6 O13 1_555 1_555
H7 O14 1_555 1_555
H8 O14 1_555 1_555
H9 O15 1_555 1_555
H10 O15 1_555 1_555
Ce1A O9 1_555 1_555
Ce1C O6 1_555 1_555
Ce2_2 N4 1_555 1_555
Ce2C O8 1_555 1_555
Ce2C_2 O2 1_555 1_555
O2C Ce2 1_555 1_555
N4_2 Ce2 1_555 1_555
O6C Ce1 1_555 1_555
O7_2 Ce2 1_555 1_555
O8C Ce2 1_555 1_555
O9A Ce1 1_555 1_555
O11A Ce1 1_555 1_555
C3 C4 1_555 1_555
C5 O1 1_555 1_555
C6 O3 1_555 1_555
C9 C10 1_555 1_555
C11 O5 1_555 1_555
O7 Ce2_2 1_555 1_555
O11 Ce1A 1_555 1_555
C14 O12 1_555 1_555

#END
