
#######################################################################
#
#                 Cambridge Crystallographic Data Centre
#                                CCDC 
#
#######################################################################
#
# If this CIF has been generated from an entry in the Cambridge 
# Structural Database, then it will include bibliographic, chemical, 
# crystal, experimental, refinement or atomic coordinate data resulting 
# from the CCDC's data processing and validation procedures.
#
#######################################################################

data_ABEXOW
_symmetry_cell_setting           orthorhombic
_symmetry_space_group_name_H-M   'P n a 21'
_symmetry_Int_Tables_number      33
_space_group_name_Hall           'P 2c -2n'
loop_
_symmetry_equiv_pos_site_id
_symmetry_equiv_pos_as_xyz
1 x,y,z
2 -x,-y,1/2+z
3 1/2-x,1/2+y,1/2+z
4 1/2+x,1/2-y,z
_cell_length_a                   12.0020(2)
_cell_length_b                   11.0080(1)
_cell_length_c                   19.4730(4)
_cell_angle_alpha                90
_cell_angle_beta                 90
_cell_angle_gamma                90
_cell_volume                     2572.73
loop_
_atom_site_label
_atom_site_type_symbol
_atom_site_fract_x
_atom_site_fract_y
_atom_site_fract_z
Pr1 Pr 0.34101(3) 0.13620(3) 0.351618(18)
Pr2 Pr 0.52283(2) 0.61772(3) 0.137520(18)
N1 N 0.3775(5) 0.2274(5) 0.2251(3)
C1 C 0.4372(6) 0.3274(6) 0.2119(4)
H1 H 0.4920 0.3489 0.2434
N2 N 0.4241(4) 0.3988(5) 0.1571(3)
C2 C 0.3496(5) 0.3637(6) 0.1102(3)
C3 C 0.2884(5) 0.2575(6) 0.1180(3)
H2 H 0.2394 0.2313 0.0841
C4 C 0.3027(5) 0.1926(6) 0.1774(3)
C5 C 0.2285(5) 0.0862(5) 0.1957(3)
O1 O 0.2373(4) 0.0447(4) 0.2556(2)
O2 O 0.1615(3) 0.0509(4) 0.1502(2)
C6 C 0.3307(6) 0.4468(6) 0.0494(4)
O3 O 0.3914(4) 0.5417(4) 0.0471(2)
O4 O 0.2601(5) 0.4158(5) 0.0082(3)
N3 N 0.4906(4) 0.0004(5) 0.2769(3)
C7 C 0.4715(5) -0.1017(6) 0.2418(4)
H3 H 0.3984 -0.1296 0.2403
N4 N 0.5475(4) -0.1667(5) 0.2088(3)
C8 C 0.6537(5) -0.1261(6) 0.2128(3)
C9 C 0.6819(6) -0.0208(6) 0.2481(4)
H4 H 0.7552 0.0060 0.2515
C10 C 0.5948(5) 0.0412(5) 0.2775(3)
C11 C 0.6145(5) 0.1606(5) 0.3155(3)
O5 O 0.5344(3) 0.2086(4) 0.3468(3)
O6 O 0.7111(4) 0.2054(4) 0.3091(2)
C12 C 0.7431(6) -0.2034(6) 0.1778(3)
O7 O 0.7134(4) -0.2995(4) 0.1497(3)
O8 O 0.8412(4) -0.1658(4) 0.1821(3)
O9 O 0.6189(4) 0.5922(4) 0.0253(2)
C13 C 0.6165(6) 0.6777(6) -0.0178(4)
O10 O 0.6522(4) 0.6740(4) -0.0781(3)
O11 O 0.5107(4) 0.7960(4) 0.0616(3)
C14 C 0.5645(6) 0.7999(6) 0.0062(4)
O12 O 0.5786(4) 0.8894(4) -0.0317(2)
O13 O 0.3213(4) -0.0817(4) 0.3795(3)
O14 O 0.1595(4) 0.1149(4) 0.4134(3)
O15 O 0.5416(4) 0.5790(5) 0.2628(3)
H5 H 0.3782 -0.1288 0.3823
H6 H 0.2913 -0.0842 0.4193
H7 H 0.1336 0.0949 0.4534
H8 H 0.1134 0.1655 0.3976
H9 H 0.6062 0.5475 0.2648
H10 H 0.5377 0.6271 0.2970
Pr1C Pr 0.84101(3) 0.36380(3) 0.351618(18)
Pr1A Pr 0.65899(3) 0.86380(3) -0.148382(18)
Pr2C Pr 0.02283(2) -0.11772(3) 0.137520(18)
Pr2_2 Pr 0.52283(2) -0.38228(3) 0.137520(18)
Pr2C_2 Pr 1.02283(2) -0.11772(3) 0.137520(18)
O2C O 0.6615(3) 0.4491(4) 0.1502(2)
N4_2 N 0.5475(4) 0.8333(5) 0.2088(3)
O6C O 0.2111(4) 0.2946(4) 0.3091(2)
O7_2 O 0.7134(4) 0.7005(4) 0.1497(3)
O8C O 0.3412(4) 0.6658(4) 0.1821(3)
O10A O 0.3478(4) 0.3260(4) 0.4219(3)
O12A O 0.4214(4) 0.1106(4) 0.4683(2)
O16 O 0.4932(5) 0.7464(6) 0.3701(4)
O17 O 0.6596(7) 0.9001(9) 0.4170(5)
O18 O 0.6051(8) 0.3535(7) 0.9791(5)
O19 O 0.0420(5) 0.3446(6) 0.0622(4)
O20 O 0.3627(4) 0.9912(5) 0.0535(3)
loop_
_geom_bond_atom_site_label_1
_geom_bond_atom_site_label_2
_geom_bond_site_symmetry_1
_geom_bond_site_symmetry_2
Pr1 N1 1_555 1_555
Pr2 N2 1_555 1_555
N1 C1 1_555 1_555
C1 H1 1_555 1_555
N2 C1 1_555 1_555
C2 N2 1_555 1_555
C3 C2 1_555 1_555
H2 C3 1_555 1_555
C4 N1 1_555 1_555
C5 C4 1_555 1_555
O1 Pr1 1_555 1_555
O2 C5 1_555 1_555
C6 C2 1_555 1_555
O3 Pr2 1_555 1_555
O4 C6 1_555 1_555
N3 Pr1 1_555 1_555
C7 N3 1_555 1_555
H3 C7 1_555 1_555
N4 C7 1_555 1_555
C8 N4 1_555 1_555
C9 C8 1_555 1_555
H4 C9 1_555 1_555
C10 N3 1_555 1_555
C11 C10 1_555 1_555
O5 Pr1 1_555 1_555
O6 C11 1_555 1_555
C12 C8 1_555 1_555
O7 C12 1_555 1_555
O8 C12 1_555 1_555
O9 Pr2 1_555 1_555
C13 O9 1_555 1_555
O10 C13 1_555 1_555
O11 Pr2 1_555 1_555
C14 C13 1_555 1_555
O12 C14 1_555 1_555
O13 Pr1 1_555 1_555
O14 Pr1 1_555 1_555
O15 Pr2 1_555 1_555
H5 O13 1_555 1_555
H6 O13 1_555 1_555
H7 O14 1_555 1_555
H8 O14 1_555 1_555
H9 O15 1_555 1_555
H10 O15 1_555 1_555
Pr1C O6 1_555 1_555
Pr1A O10 1_555 1_555
Pr2C O2 1_555 1_555
Pr2_2 N4 1_555 1_555
Pr2C_2 O8 1_555 1_555
O2C Pr2 1_555 1_555
N4_2 Pr2 1_555 1_555
O6C Pr1 1_555 1_555
O7_2 Pr2 1_555 1_555
O8C Pr2 1_555 1_555
O10A Pr1 1_555 1_555
O12A Pr1 1_555 1_555
C3 C4 1_555 1_555
C5 O1 1_555 1_555
C6 O3 1_555 1_555
C9 C10 1_555 1_555
C11 O5 1_555 1_555
O7 Pr2_2 1_555 1_555
O11 C14 1_555 1_555
O12 Pr1A 1_555 1_555

#END
