
#######################################################################
#
#                 Cambridge Crystallographic Data Centre
#                                CCDC 
#
#######################################################################
#
# If this CIF has been generated from an entry in the Cambridge 
# Structural Database, then it will include bibliographic, chemical, 
# crystal, experimental, refinement or atomic coordinate data resulting 
# from the CCDC's data processing and validation procedures.
#
#######################################################################

data_ABEYEN
_symmetry_cell_setting           orthorhombic
_symmetry_space_group_name_H-M   'P n a 21'
_symmetry_Int_Tables_number      33
_space_group_name_Hall           'P 2c -2n'
loop_
_symmetry_equiv_pos_site_id
_symmetry_equiv_pos_as_xyz
1 x,y,z
2 -x,-y,1/2+z
3 1/2-x,1/2+y,1/2+z
4 1/2+x,1/2-y,z
_cell_length_a                   11.8280(3)
_cell_length_b                   10.9430(17)
_cell_length_c                   19.2610(4)
_cell_angle_alpha                90
_cell_angle_beta                 90
_cell_angle_gamma                90
_cell_volume                     2493.02
loop_
_atom_site_label
_atom_site_type_symbol
_atom_site_fract_x
_atom_site_fract_y
_atom_site_fract_z
Eu1 Eu 0.15751(3) 0.13755(2) 0.896995(16)
Eu2 Eu -0.02847(3) 0.61894(2) 0.682539(18)
N1 N 0.1161(5) 0.2301(4) 0.7717(3)
C1 C 0.0584(6) 0.3313(5) 0.7591(3)
H1 H 0.0055 0.3544 0.7923
N2 N 0.0684(5) 0.4026(4) 0.7043(3)
C2 C 0.1421(6) 0.3644(5) 0.6560(3)
C3 C 0.2031(6) 0.2573(5) 0.6629(3)
H2 H 0.2499 0.2295 0.6275
C4 C 0.1922(6) 0.1942(5) 0.7232(3)
C5 C 0.2673(6) 0.0865(5) 0.7412(3)
O1 O 0.2595(4) 0.0456(4) 0.8016(2)
O2 O 0.3333(4) 0.0492(4) 0.6950(2)
C6 C 0.1600(6) 0.4485(5) 0.5938(3)
O3 O 0.1035(4) 0.5461(4) 0.5930(2)
O4 O 0.2308(5) 0.4146(5) 0.5506(3)
N3 N 0.0093(5) 0.0011(4) 0.8227(3)
C7 C 0.0274(6) -0.1017(5) 0.7859(3)
H3 H 0.1015 -0.1296 0.7833
N4 N -0.0511(5) -0.1675(4) 0.7527(3)
C8 C -0.1562(6) -0.1266(5) 0.7578(3)
C9 C -0.1846(6) -0.0208(5) 0.7937(4)
H4 H -0.2589 0.0064 0.7971
C10 C -0.0973(6) 0.0405(5) 0.8237(3)
C11 C -0.1160(6) 0.1603(5) 0.8624(3)
O5 O -0.0353(4) 0.2050(3) 0.8957(3)
O6 O -0.2117(4) 0.2075(4) 0.8542(2)
C12 C -0.2492(6) -0.2038(5) 0.7226(3)
O7 O -0.2174(4) -0.3005(3) 0.6935(3)
O8 O -0.3486(4) -0.1665(4) 0.7264(3)
O9 O -0.1241(4) 0.5918(4) 0.5710(2)
C13 C -0.1205(6) 0.6772(5) 0.5269(4)
O10 O -0.1533(4) 0.6734(4) 0.4653(3)
O11 O -0.0146(4) 0.7953(4) 0.6081(3)
C14 C -0.0682(6) 0.7989(5) 0.5514(4)
O12 O -0.0818(4) 0.8902(4) 0.5136(2)
O13 O 0.1773(4) -0.0767(4) 0.9232(2)
O14 O 0.3358(4) 0.1161(4) 0.9575(2)
O15 O -0.0481(4) 0.5825(4) 0.8065(2)
H5 H 0.1237 -0.1292 0.9225
H6 H 0.2038 -0.0826 0.9645
H7 H 0.3570 0.1021 0.9994
H8 H 0.3846 0.1686 0.9430
H9 H -0.0947 0.5417 0.8440
H10 H -0.0132 0.6416 0.8306
Eu1A Eu -0.15751(3) 0.86245(2) 0.396995(16)
Eu1C Eu -0.34249(3) 0.36245(2) 0.896995(16)
Eu2_2 Eu -0.02847(3) -0.38106(2) 0.682539(18)
Eu2C Eu -0.52847(3) -0.11894(2) 0.682539(18)
Eu2C_2 Eu 0.47153(3) -0.11894(2) 0.682539(18)
O2C O -0.1667(4) 0.4508(4) 0.6950(2)
N4_2 N -0.0511(5) 0.8325(4) 0.7527(3)
O6C O 0.2883(4) 0.2925(4) 0.8542(2)
O7_2 O -0.2174(4) 0.6995(3) 0.6935(3)
O8C O 0.1514(4) 0.6665(4) 0.7264(3)
O10A O 0.1533(4) 0.3266(4) 0.9653(3)
O12A O 0.0818(4) 0.1098(4) 1.0136(2)
O16 O 0.0057(4) 0.7456(4) 0.9124(3)
O17 O -0.1117(5) 0.3528(5) 0.5233(3)
O18 O 0.1330(4) 0.9921(4) 0.5983(3)
O19 O 0.4503(5) 0.3451(5) 0.6082(3)
O20 O -0.1601(6) -0.1071(5) 0.9650(3)
loop_
_geom_bond_atom_site_label_1
_geom_bond_atom_site_label_2
_geom_bond_site_symmetry_1
_geom_bond_site_symmetry_2
Eu1 N1 1_555 1_555
Eu2 N2 1_555 1_555
N1 C1 1_555 1_555
C1 H1 1_555 1_555
N2 C1 1_555 1_555
C2 N2 1_555 1_555
C3 C2 1_555 1_555
H2 C3 1_555 1_555
C4 N1 1_555 1_555
C5 C4 1_555 1_555
O1 Eu1 1_555 1_555
O2 C5 1_555 1_555
C6 C2 1_555 1_555
O3 Eu2 1_555 1_555
O4 C6 1_555 1_555
N3 Eu1 1_555 1_555
C7 N3 1_555 1_555
H3 C7 1_555 1_555
N4 C7 1_555 1_555
C8 N4 1_555 1_555
C9 C8 1_555 1_555
H4 C9 1_555 1_555
C10 N3 1_555 1_555
C11 C10 1_555 1_555
O5 Eu1 1_555 1_555
O6 C11 1_555 1_555
C12 C8 1_555 1_555
O7 C12 1_555 1_555
O8 C12 1_555 1_555
O9 Eu2 1_555 1_555
C13 O9 1_555 1_555
O10 C13 1_555 1_555
O11 Eu2 1_555 1_555
C14 C13 1_555 1_555
O12 C14 1_555 1_555
O13 Eu1 1_555 1_555
O14 Eu1 1_555 1_555
O15 Eu2 1_555 1_555
H5 O13 1_555 1_555
H6 O13 1_555 1_555
H7 O14 1_555 1_555
H8 O14 1_555 1_555
H9 O15 1_555 1_555
H10 O15 1_555 1_555
Eu1A O10 1_555 1_555
Eu1C O6 1_555 1_555
Eu2_2 N4 1_555 1_555
Eu2C O8 1_555 1_555
Eu2C_2 O2 1_555 1_555
O2C Eu2 1_555 1_555
N4_2 Eu2 1_555 1_555
O6C Eu1 1_555 1_555
O7_2 Eu2 1_555 1_555
O8C Eu2 1_555 1_555
O10A Eu1 1_555 1_555
O12A Eu1 1_555 1_555
C3 C4 1_555 1_555
C5 O1 1_555 1_555
C6 O3 1_555 1_555
C9 C10 1_555 1_555
C11 O5 1_555 1_555
O7 Eu2_2 1_555 1_555
O11 C14 1_555 1_555
O12 Eu1A 1_555 1_555

#END
