
#######################################################################
#
#                 Cambridge Crystallographic Data Centre
#                                CCDC 
#
#######################################################################
#
# If this CIF has been generated from an entry in the Cambridge 
# Structural Database, then it will include bibliographic, chemical, 
# crystal, experimental, refinement or atomic coordinate data resulting 
# from the CCDC's data processing and validation procedures.
#
#######################################################################

data_ABEYAJ
_symmetry_cell_setting           orthorhombic
_symmetry_space_group_name_H-M   'P n a 21'
_symmetry_Int_Tables_number      33
_space_group_name_Hall           'P 2c -2n'
loop_
_symmetry_equiv_pos_site_id
_symmetry_equiv_pos_as_xyz
1 x,y,z
2 -x,-y,1/2+z
3 1/2-x,1/2+y,1/2+z
4 1/2+x,1/2-y,z
_cell_length_a                   11.8680(2)
_cell_length_b                   10.9620(3)
_cell_length_c                   19.3070(4)
_cell_angle_alpha                90
_cell_angle_beta                 90
_cell_angle_gamma                90
_cell_volume                     2511.78
loop_
_atom_site_label
_atom_site_type_symbol
_atom_site_fract_x
_atom_site_fract_y
_atom_site_fract_z
Sm1 Sm 0.34234(3) -0.36276(3) 0.398815(15)
Sm2 Sm 0.52708(2) 0.11880(3) 0.184365(17)
N1 N 0.3811(4) -0.2704(5) 0.2738(3)
C1 C 0.4408(6) -0.1698(6) 0.2606(3)
H1 H 0.4953 -0.1480 0.2929
N2 N 0.4296(4) -0.0984(5) 0.2060(3)
C2 C 0.3559(5) -0.1356(6) 0.1575(3)
C3 C 0.2951(5) -0.2431(6) 0.1650(3)
H2 H 0.2474 -0.2709 0.1302
C4 C 0.3080(6) -0.3064(6) 0.2252(3)
C5 C 0.2313(5) -0.4130(6) 0.2435(3)
O1 O 0.2399(4) -0.4545(4) 0.3038(2)
O2 O 0.1657(3) -0.4498(4) 0.1969(2)
C6 C 0.3372(6) -0.0517(6) 0.0957(3)
O3 O 0.3955(4) 0.0442(4) 0.0944(2)
O4 O 0.2668(5) -0.0845(5) 0.0535(3)
N3 N 0.4909(4) -0.4989(5) 0.3243(3)
C7 C 0.4725(6) -0.6007(6) 0.2877(3)
H3 H 0.3984 -0.6277 0.2849
N4 N 0.5496(4) -0.6670(5) 0.2548(3)
C8 C 0.6571(5) -0.6265(6) 0.2600(3)
C9 C 0.6839(6) -0.5221(6) 0.2953(3)
H4 H 0.7580 -0.4951 0.2985
C10 C 0.5972(5) -0.4587(6) 0.3258(3)
C11 C 0.6165(6) -0.3390(6) 0.3639(3)
O5 O 0.5344(3) -0.2940(4) 0.3967(2)
O6 O 0.7115(4) -0.2919(4) 0.3564(2)
C12 C 0.7469(6) -0.7036(6) 0.2246(3)
O7 O 0.7161(4) -0.7998(4) 0.1957(2)
O8 O 0.8461(4) -0.6660(4) 0.2280(2)
O9 O 0.6535(4) 0.1747(4) -0.0323(2)
C13 C 0.6198(6) 0.1779(6) 0.0290(4)
O10 O 0.6232(4) 0.0914(4) 0.0729(2)
O11 O 0.5814(4) 0.3905(4) 0.0154(2)
C14 C 0.5675(6) 0.2995(6) 0.0531(4)
O12 O 0.5132(4) 0.2958(4) 0.1099(2)
O13 O 0.3219(4) -0.5782(4) 0.4263(2)
O14 O 0.1627(4) -0.3832(4) 0.4598(2)
O15 O 0.5465(4) 0.0819(4) 0.3088(2)
H5 H 0.3874 -0.6106 0.4146
H6 H 0.3123 -0.5918 0.4714
H7 H 0.1349 -0.4454 0.4928
H8 H 0.1162 -0.3151 0.4579
H9 H 0.5980 0.0353 0.3257
H10 H 0.5331 0.1348 0.3415
Sm1C Sm 0.84234(3) -0.13724(3) 0.398815(15)
Sm1A Sm 0.65766(3) 0.36276(3) -0.101185(15)
Sm2C Sm 0.02708(2) -0.61880(3) 0.184365(17)
Sm2_2 Sm 0.52708(2) -0.88120(3) 0.184365(17)
Sm2C_2 Sm 1.02708(2) -0.61880(3) 0.184365(17)
O2C O 0.6657(3) -0.0502(4) 0.1969(2)
N4_2 N 0.5496(4) 0.3330(5) 0.2548(3)
O6C O 0.2115(4) -0.2081(4) 0.3564(2)
O7_2 O 0.7161(4) 0.2002(4) 0.1957(2)
O8C O 0.3461(4) 0.1660(4) 0.2280(2)
O9A O 0.3465(4) -0.1747(4) 0.4677(2)
O11A O 0.4186(4) -0.3905(4) 0.5154(2)
O16 O 0.4954(4) 0.2450(5) 0.4145(3)
O17 O 0.0488(5) -0.1556(5) 0.1094(3)
O18 O 0.3655(4) 0.4920(5) 0.1008(2)
O19 O 0.6106(5) -0.1467(5) 0.0254(3)
O20 O 0.6598(6) 0.3935(6) 0.4666(3)
loop_
_geom_bond_atom_site_label_1
_geom_bond_atom_site_label_2
_geom_bond_site_symmetry_1
_geom_bond_site_symmetry_2
Sm1 N1 1_555 1_555
Sm2 N2 1_555 1_555
N1 C1 1_555 1_555
C1 H1 1_555 1_555
N2 C1 1_555 1_555
C2 N2 1_555 1_555
C3 C2 1_555 1_555
H2 C3 1_555 1_555
C4 N1 1_555 1_555
C5 C4 1_555 1_555
O1 Sm1 1_555 1_555
O2 C5 1_555 1_555
C6 C2 1_555 1_555
O3 Sm2 1_555 1_555
O4 C6 1_555 1_555
N3 Sm1 1_555 1_555
C7 N3 1_555 1_555
H3 C7 1_555 1_555
N4 C7 1_555 1_555
C8 N4 1_555 1_555
C9 C8 1_555 1_555
H4 C9 1_555 1_555
C10 N3 1_555 1_555
C11 C10 1_555 1_555
O5 Sm1 1_555 1_555
O6 C11 1_555 1_555
C12 C8 1_555 1_555
O7 C12 1_555 1_555
O8 C12 1_555 1_555
O9 C13 1_555 1_555
C13 O10 1_555 1_555
O10 Sm2 1_555 1_555
O11 C14 1_555 1_555
C14 C13 1_555 1_555
O12 Sm2 1_555 1_555
O13 Sm1 1_555 1_555
O14 Sm1 1_555 1_555
O15 Sm2 1_555 1_555
H5 O13 1_555 1_555
H6 O13 1_555 1_555
H7 O14 1_555 1_555
H8 O14 1_555 1_555
H9 O15 1_555 1_555
H10 O15 1_555 1_555
Sm1C O6 1_555 1_555
Sm1A O9 1_555 1_555
Sm2C O2 1_555 1_555
Sm2_2 N4 1_555 1_555
Sm2C_2 O8 1_555 1_555
O2C Sm2 1_555 1_555
N4_2 Sm2 1_555 1_555
O6C Sm1 1_555 1_555
O7_2 Sm2 1_555 1_555
O8C Sm2 1_555 1_555
O9A Sm1 1_555 1_555
O11A Sm1 1_555 1_555
C3 C4 1_555 1_555
C5 O1 1_555 1_555
C6 O3 1_555 1_555
C9 C10 1_555 1_555
C11 O5 1_555 1_555
O7 Sm2_2 1_555 1_555
O11 Sm1A 1_555 1_555
C14 O12 1_555 1_555

#END
