
#######################################################################
#
#                 Cambridge Crystallographic Data Centre
#                                CCDC 
#
#######################################################################
#
# If this CIF has been generated from an entry in the Cambridge 
# Structural Database, then it will include bibliographic, chemical, 
# crystal, experimental, refinement or atomic coordinate data resulting 
# from the CCDC's data processing and validation procedures.
#
#######################################################################

data_ACIBOE
_symmetry_cell_setting           tetragonal
_symmetry_space_group_name_H-M   'I 4 c m'
_symmetry_Int_Tables_number      108
_space_group_name_Hall           'I 4 -2c'
loop_
_symmetry_equiv_pos_site_id
_symmetry_equiv_pos_as_xyz
1 x,y,z
2 -x,-y,z
3 -y,x,z
4 y,-x,z
5 x,-y,1/2+z
6 -x,y,1/2+z
7 -y,-x,1/2+z
8 y,x,1/2+z
9 1/2+x,1/2+y,1/2+z
10 1/2-x,1/2-y,1/2+z
11 1/2-y,1/2+x,1/2+z
12 1/2+y,1/2-x,1/2+z
13 1/2+x,1/2-y,z
14 1/2-x,1/2+y,z
15 1/2-y,1/2-x,z
16 1/2+y,1/2+x,z
_cell_length_a                   20.588(3)
_cell_length_b                   20.588(3)
_cell_length_c                   17.832(4)
_cell_angle_alpha                90
_cell_angle_beta                 90
_cell_angle_gamma                90
_cell_volume                     7558.37
loop_
_atom_site_label
_atom_site_type_symbol
_atom_site_fract_x
_atom_site_fract_y
_atom_site_fract_z
Zn1 Zn 0.34308(3) 0.84308(3) -0.77274(5)
Zn2 Zn 0.38013(3) 0.75718(3) -0.91858(4)
O1 O 0.1918(2) 0.8261(3) -0.8665(2)
O2 O 0.2417(2) 0.8380(3) -0.7569(3)
O3 O 0.6296(3) 0.7357(3) -0.5238(3)
O4 O 0.5566(4) 0.8128(3) -0.5367(3)
O5 O 0.4444(2) 0.8365(2) -0.7808(3)
O6 O 0.4635(3) 0.7574(3) -0.8669(3)
O7 O 0.34001(19) 0.84001(19) -0.8911(3)
O8 O 0.3566(3) 0.8566(3) -0.6600(4)
O9 O 0.3444(5) 0.9182(5) -0.9427(4)
C1 C 0.6410(3) 0.7168(3) -0.7589(3)
C2 C 0.6434(3) 0.7282(3) -0.6821(3)
H1 H 0.6787 0.7136 -0.6542
C3 C 0.5925(3) 0.7618(3) -0.6465(3)
C4 C 0.5401(3) 0.7840(3) -0.6879(3)
H2 H 0.5070 0.8072 -0.6645
C5 C 0.5371(3) 0.7715(3) -0.7650(3)
C6 C 0.5874(3) 0.7371(4) -0.7999(3)
H3 H 0.5850 0.7279 -0.8508
C7 C 0.1962(3) 0.8181(3) -0.7969(3)
C8 C 0.5922(4) 0.7721(3) -0.5629(3)
C9 C 0.4765(3) 0.7905(3) -0.8080(3)
C10 C 0.3319(5) 0.8319(5) -0.6138(9)
C11 C 0.3090(15) 0.8090(15) -0.4806(15)
C12 C 0.3895(6) 0.8895(6) -0.5208(14)
N1 N 0.3423(5) 0.8423(5) -0.5374(8)
Zn1C Zn 0.84308(3) 0.65692(3) -0.77274(5)
Zn1C_2 Zn -0.15692(3) 0.65692(3) -0.77274(5)
Zn2E Zn 0.61987(3) 0.75718(3) -0.41858(4)
Zn2O Zn 0.25718(3) 0.88013(3) -0.91858(4)
Zn2C Zn 0.75718(3) 0.61987(3) -0.91858(4)
Zn2I Zn 0.11987(3) 0.74282(3) -0.41858(4)
Zn2L Zn -0.11987(3) 0.74282(3) -0.91858(4)
O1O O 0.3261(3) 0.6918(2) -0.8665(2)
O1L O 0.6918(2) 0.6739(3) -0.8665(2)
O2O O 0.3380(3) 0.7417(2) -0.7569(3)
O2L O 0.7417(2) 0.6620(3) -0.7569(3)
O3E O 0.3704(3) 0.7357(3) -1.0238(3)
O3K O 0.2357(3) 0.8704(3) -1.0238(3)
O3L O 0.1296(3) 0.7643(3) -0.5238(3)
O4L O 0.0566(4) 0.6872(3) -0.5367(3)
O5O O 0.3365(2) 0.9444(2) -0.7808(3)
O5L O -0.0556(2) 0.6635(2) -0.7808(3)
O6O O 0.2574(3) 0.9635(3) -0.8669(3)
O6L O -0.0365(3) 0.7426(3) -0.8669(3)
O9O O 0.4182(5) 0.8444(5) -0.9427(4)
C1L C 0.1410(3) 0.7832(3) -0.7589(3)
C2L C 0.1434(3) 0.7718(3) -0.6821(3)
H1L H 0.1787 0.7864 -0.6542
C3L C 0.0925(3) 0.7382(3) -0.6465(3)
C4L C 0.0401(3) 0.7160(3) -0.6879(3)
H2L H 0.0070 0.6928 -0.6645
C5L C 0.0371(3) 0.7285(3) -0.7650(3)
C6L C 0.0874(3) 0.7629(4) -0.7999(3)
H3L H 0.0850 0.7721 -0.8508
C7L C 0.6962(3) 0.6819(3) -0.7969(3)
C8L C 0.0922(4) 0.7279(3) -0.5629(3)
C9L C -0.0235(3) 0.7095(3) -0.8080(3)
O10 O 0.5698(5) 0.9302(5) 0.5414(9)
loop_
_geom_bond_atom_site_label_1
_geom_bond_atom_site_label_2
_geom_bond_site_symmetry_1
_geom_bond_site_symmetry_2
Zn1 O2 1_555 1_555
Zn2 O6 1_555 1_555
O1 C7 1_555 1_555
O2 C7 1_555 1_555
O3 C8 1_555 1_555
O4 C8 1_555 1_555
O5 Zn1 1_555 1_555
O6 C9 1_555 1_555
O7 Zn1 1_555 1_555
O8 Zn1 1_555 1_555
O9 Zn2O 1_555 1_555
C1 C2 1_555 1_555
C2 H1 1_555 1_555
C3 C2 1_555 1_555
C4 C3 1_555 1_555
H2 C4 1_555 1_555
C5 C4 1_555 1_555
C6 C1 1_555 1_555
H3 C6 1_555 1_555
C7 C1L 1_555 1_555
C8 C3 1_555 1_555
C9 O5 1_555 1_555
C10 O8 1_555 1_555
C11 N1 1_555 1_555
C12 N1 1_555 1_555
N1 C10 1_555 1_555
Zn1C O2L 1_555 1_555
Zn1C_2 O5L 1_555 1_555
Zn2E O3 1_555 1_555
Zn2O O1 1_555 1_555
Zn2C O1L 1_555 1_555
Zn2I O3L 1_555 1_555
Zn2L O6L 1_555 1_555
O1O Zn2 1_555 1_555
O1L C7L 1_555 1_555
O2O Zn1 1_555 1_555
O2L C7L 1_555 1_555
O3E Zn2 1_555 1_555
O3K Zn2O 1_555 1_555
O3L C8L 1_555 1_555
O4L C8L 1_555 1_555
O5O Zn1 1_555 1_555
O5L C9L 1_555 1_555
O6O Zn2O 1_555 1_555
O6L C9L 1_555 1_555
O9O Zn2 1_555 1_555
C1L C2L 1_555 1_555
C2L H1L 1_555 1_555
C3L C2L 1_555 1_555
C4L C3L 1_555 1_555
H2L C4L 1_555 1_555
C5L C4L 1_555 1_555
C6L C1L 1_555 1_555
H3L C6L 1_555 1_555
C7L C1 1_555 1_555
C8L C3L 1_555 1_555
C9L C5L 1_555 1_555
Zn2 O7 1_555 1_555
O7 Zn2O 1_555 1_555
C5 C6 1_555 1_555
C5 C9 1_555 1_555
C5L C6L 1_555 1_555

#END
