
#######################################################################
#
#                 Cambridge Crystallographic Data Centre
#                                CCDC 
#
#######################################################################
#
# If this CIF has been generated from an entry in the Cambridge 
# Structural Database, then it will include bibliographic, chemical, 
# crystal, experimental, refinement or atomic coordinate data resulting 
# from the CCDC's data processing and validation procedures.
#
#######################################################################

data_ACUGEL
_symmetry_cell_setting           triclinic
_symmetry_space_group_name_H-M   'P -1'
_symmetry_Int_Tables_number      2
_space_group_name_Hall           '-P 1'
loop_
_symmetry_equiv_pos_site_id
_symmetry_equiv_pos_as_xyz
1 x,y,z
2 -x,-y,-z
_cell_length_a                   5.0620(17)
_cell_length_b                   8.085(2)
_cell_length_c                   9.100(2)
_cell_angle_alpha                81.43(3)
_cell_angle_beta                 83.75(3)
_cell_angle_gamma                87.99(3)
_cell_volume                     366.015
loop_
_atom_site_label
_atom_site_type_symbol
_atom_site_fract_x
_atom_site_fract_y
_atom_site_fract_z
Cs1 Cs 0.5000 0.0000 0.5000
O1 O 0.3600(4) 0.3995(2) 0.5873(2)
H1 H 0.5000 0.5000 0.5000
O2 O 0.5047(3) 0.5097(2) 0.7749(2)
O3 O -0.0739(4) 0.1848(2) 0.66080(19)
O4 O -0.3857(3) 0.0794(2) 1.15021(18)
O5 O 0.0906(4) 0.2902(3) 0.3583(2)
H2 H 0.035(6) 0.291(4) 0.4461(16)
H3 H 0.215(5) 0.354(3) 0.332(3)
N1 N -0.0285(4) 0.2490(2) 1.0869(2)
H4 H -0.018(6) 0.257(3) 1.174(4)
N2 N -0.2205(4) 0.1387(2) 0.9055(2)
H5 H -0.333(6) 0.080(4) 0.880(3)
C1 C 0.3549(4) 0.4182(3) 0.7254(3)
C2 C 0.1509(4) 0.3193(3) 0.8316(3)
C3 C 0.1508(4) 0.3281(3) 0.9796(3)
H6 H 0.2829 0.3929 1.0096
C4 C -0.0461(4) 0.2147(3) 0.7867(3)
C5 C -0.2228(4) 0.1518(3) 1.0539(3)
Cs1_2 Cs -0.5000 0.0000 0.5000
Cs1_3 Cs -0.5000 0.0000 1.5000
Cs1_4 Cs 0.5000 1.0000 0.5000
Cs1_5 Cs 1.5000 1.0000 -0.5000
Cs1_6 Cs 1.5000 1.0000 0.5000
O1A O 0.6400(4) 0.6005(2) 0.4127(2)
O1A_2 O 0.6400(4) -0.3995(2) 0.4127(2)
O2A O 0.4953(3) 0.4903(2) 0.2251(2)
O3A O 1.0739(4) 0.8152(2) 0.33920(19)
O3_2 O 0.9261(4) 0.1848(2) 0.66080(19)
O3A_2 O 0.0739(4) -0.1848(2) 0.33920(19)
O3A_3 O 1.0739(4) -0.1848(2) 0.33920(19)
O4A O 1.3857(3) 0.9206(2) -0.15021(18)
O4_2 O 0.6143(3) 0.0794(2) 0.15021(18)
O4A_2 O 0.3857(3) -0.0794(2) 0.84979(18)
O5A O 0.9094(4) -0.2902(3) 0.6417(2)
H2A H 0.965(6) -0.291(4) 0.5539(16)
H3A H 0.785(5) -0.354(3) 0.668(3)
N1A N 1.0285(4) 0.7510(2) -0.0869(2)
H4A H 1.018(6) 0.743(3) -0.174(4)
N2A N 1.2205(4) 0.8613(2) 0.0945(2)
H5A H 1.333(6) 0.920(4) 0.120(3)
C1A C 0.6451(4) 0.5818(3) 0.2746(3)
C2A C 0.8491(4) 0.6807(3) 0.1684(3)
C3A C 0.8492(4) 0.6719(3) 0.0204(3)
H6A H 0.7171 0.6071 -0.0096
C4A C 1.0461(4) 0.7853(3) 0.2133(3)
C5A C 1.2228(4) 0.8482(3) -0.0539(3)
loop_
_geom_bond_atom_site_label_1
_geom_bond_atom_site_label_2
_geom_bond_site_symmetry_1
_geom_bond_site_symmetry_2
Cs1 O1 1_555 1_555
O1 H1 1_555 1_555
H1 O1A 1_555 1_555
O2 C1 1_555 1_555
O3 Cs1 1_555 1_555
O4 C5 1_555 1_555
O5 Cs1 1_555 1_555
H2 O5 1_555 1_555
H3 O5 1_555 1_555
N1 H4 1_555 1_555
N2 H5 1_555 1_555
C1 O1 1_555 1_555
C2 C1 1_555 1_555
C3 N1 1_555 1_555
H6 C3 1_555 1_555
C4 O3 1_555 1_555
C5 N1 1_555 1_555
Cs1_2 O3 1_555 1_555
Cs1_3 O4 1_555 1_555
Cs1_4 O1A 1_555 1_555
Cs1_5 O4A 1_555 1_555
Cs1_6 O3A 1_555 1_555
O1A C1A 1_555 1_555
O1A_2 Cs1 1_555 1_555
O2A C1A 1_555 1_555
O3A Cs1_4 1_555 1_555
O3_2 Cs1 1_555 1_555
O3A_2 Cs1 1_555 1_555
O3A_3 Cs1 1_555 1_555
O4A C5A 1_555 1_555
O4_2 Cs1 1_555 1_555
O4A_2 Cs1 1_555 1_555
O5A Cs1 1_555 1_555
H2A O5A 1_555 1_555
H3A O5A 1_555 1_555
N1A H4A 1_555 1_555
N2A H5A 1_555 1_555
C1A C2A 1_555 1_555
C2A C3A 1_555 1_555
C3A N1A 1_555 1_555
H6A C3A 1_555 1_555
C4A O3A 1_555 1_555
C5A N1A 1_555 1_555
N2 C4 1_555 1_555
N2 C5 1_555 1_555
C2 C3 1_555 1_555
C2 C4 1_555 1_555
Cs1_2 O3A_2 1_555 1_555
N2A C4A 1_555 1_555
N2A C5A 1_555 1_555
C2A C4A 1_555 1_555

#END
