
#######################################################################
#
#                 Cambridge Crystallographic Data Centre
#                                CCDC 
#
#######################################################################
#
# If this CIF has been generated from an entry in the Cambridge 
# Structural Database, then it will include bibliographic, chemical, 
# crystal, experimental, refinement or atomic coordinate data resulting 
# from the CCDC's data processing and validation procedures.
#
#######################################################################

data_ACUTOI
_symmetry_cell_setting           orthorhombic
_symmetry_space_group_name_H-M   'P b c n'
_symmetry_Int_Tables_number      60
_space_group_name_Hall           '-P 2n 2ab'
loop_
_symmetry_equiv_pos_site_id
_symmetry_equiv_pos_as_xyz
1 x,y,z
2 1/2-x,1/2-y,1/2+z
3 1/2+x,1/2-y,-z
4 -x,y,1/2-z
5 -x,-y,-z
6 1/2+x,1/2+y,1/2-z
7 1/2-x,1/2+y,z
8 x,-y,1/2+z
_cell_length_a                   20.720(3)
_cell_length_b                   7.0822(10)
_cell_length_c                   22.878(3)
_cell_angle_alpha                90
_cell_angle_beta                 90
_cell_angle_gamma                90
_cell_volume                     3357.19
loop_
_atom_site_label
_atom_site_type_symbol
_atom_site_fract_x
_atom_site_fract_y
_atom_site_fract_z
Cd1 Cd 0.95968(2) 0.22058(9) 0.09690(2)
S1 S 0.59094(10) 0.2367(3) 0.10096(9)
Na1 Na 0.45583(17) 0.1736(7) 0.04959(19)
O1 O 0.8458(3) 0.2161(9) 0.1103(3)
O2 O 0.5551(3) 0.0603(9) 0.0955(3)
C1 C 0.6438(4) 0.2618(10) -0.0117(4)
C2 C 0.7171(4) 0.2303(10) 0.0697(4)
H1 H 0.7237 0.2191 0.1098
C3 C 0.8375(4) 0.2306(10) 0.0568(4)
O3 O 0.8839(3) 0.2401(7) 0.0216(3)
C4 C 0.6547(4) 0.2386(10) 0.0488(4)
C5 C 0.7702(3) 0.2380(10) 0.0331(4)
O4 O 0.5358(3) 0.1720(11) -0.0300(3)
C6 C 0.7598(4) 0.2585(11) -0.0267(4)
H2 H 0.7949 0.2629 -0.0520
C7 C 0.6977(4) 0.2726(12) -0.0487(4)
H3 H 0.6916 0.2893 -0.0887
O5 O 0.6212(3) 0.2635(10) 0.1562(3)
O6 O 0.5472(3) 0.3908(9) 0.0849(3)
O7 O 0.3909(5) 0.2398(15) 0.1286(5)
N1 N 0.9854(4) 0.2360(10) 0.1940(3)
C8 C 0.5798(4) 0.2800(12) -0.0414(4)
O8 O 0.5728(3) 0.4051(11) -0.0811(3)
C9 C 0.9897(7) 0.0417(19) 0.2179(5)
H4 H 1.0207 -0.0301 0.1952
H5 H 0.9481 -0.0197 0.2142
C10 C 1.0478(7) 0.324(2) 0.2056(7)
H6 H 1.0477 0.4519 0.1905
H7 H 1.0814 0.2539 0.1857
C11 C 0.9380(8) 0.328(2) 0.2282(6)
H8 H 0.8966 0.2678 0.2212
H9 H 0.9347 0.4580 0.2155
Cd1F Cd 0.54032(2) 0.72058(9) 0.09690(2)
Cd1F_2 Cd 0.54032(2) -0.27942(9) 0.09690(2)
Cd1B Cd 0.45968(2) 0.27942(9) -0.09690(2)
Cd1C Cd 1.04032(2) 0.22058(9) 0.40310(2)
Cd1D Cd 1.04032(2) 0.77942(9) -0.09690(2)
Cd1_2 Cd 0.95968(2) 1.22058(9) 0.09690(2)
S1F S 0.90906(10) 0.7367(3) 0.10096(9)
Na1F Na 1.04417(17) 0.6736(7) 0.04959(19)
Na1B Na 0.95583(17) 0.3264(7) -0.04959(19)
Na1D Na 0.54417(17) -0.1736(7) -0.04959(19)
Na1D_2 Na 0.54417(17) 0.8264(7) -0.04959(19)
O1F O 0.6542(3) 0.7161(9) 0.1103(3)
O2F O 0.9449(3) 0.5603(9) 0.0955(3)
O2_2 O 0.5551(3) 1.0603(9) 0.0955(3)
C1F C 0.8562(4) 0.7618(10) -0.0117(4)
C2F C 0.7829(4) 0.7303(10) 0.0697(4)
H1F H 0.7763 0.7191 0.1098
C3F C 0.6625(4) 0.7306(10) 0.0568(4)
O3F O 0.6161(3) 0.7401(7) 0.0216(3)
O3B O 0.3839(3) 0.2599(7) -0.0216(3)
O3D O 1.1161(3) 0.7599(7) -0.0216(3)
C4F C 0.8453(4) 0.7386(10) 0.0488(4)
C5F C 0.7298(3) 0.7380(10) 0.0331(4)
O4F O 0.9642(3) 0.6720(11) -0.0300(3)
O4B O 1.0358(3) 0.3280(11) 0.0300(3)
O4D O 0.4642(3) -0.1720(11) 0.0300(3)
O4D_2 O 0.4642(3) 0.8280(11) 0.0300(3)
C6F C 0.7402(4) 0.7585(11) -0.0267(4)
H2F H 0.7051 0.7629 -0.0520
C7F C 0.8023(4) 0.7726(12) -0.0487(4)
H3F H 0.8084 0.7893 -0.0887
O5F O 0.8788(3) 0.7635(10) 0.1562(3)
O6F O 0.9528(3) 0.8908(9) 0.0849(3)
O6F_2 O 0.9528(3) -0.1092(9) 0.0849(3)
O7F O 1.1091(5) 0.7398(15) 0.1286(5)
N1C N 1.0146(4) 0.2360(10) 0.3060(3)
N1F N 0.5146(4) 0.7360(10) 0.1940(3)
C8F C 0.9202(4) 0.7800(12) -0.0414(4)
O8F O 0.9272(3) 0.9051(11) -0.0811(3)
O8B O 1.0728(3) 0.0949(11) 0.0811(3)
O8D O 0.4272(3) 0.5949(11) 0.0811(3)
C9C C 1.0103(7) 0.0417(19) 0.2821(5)
H4C H 0.9793 -0.0301 0.3048
H5C H 1.0519 -0.0197 0.2858
C10C C 0.9522(7) 0.324(2) 0.2944(7)
H6C H 0.9523 0.4519 0.3095
H7C H 0.9186 0.2539 0.3143
C11C C 1.0620(8) 0.328(2) 0.2718(6)
H8C H 1.1034 0.2678 0.2788
H9C H 1.0653 0.4580 0.2845
O9 O 0.6724(13) -0.182(4) -0.2335(11)
O10 O 0.7805(16) -0.047(6) -0.2794(16)
loop_
_geom_bond_atom_site_label_1
_geom_bond_atom_site_label_2
_geom_bond_site_symmetry_1
_geom_bond_site_symmetry_2
Cd1 O1 1_555 1_555
S1 O2 1_555 1_555
Na1 O2 1_555 1_555
O1 C3 1_555 1_555
O2 Cd1F_2 1_555 1_555
C1 C4 1_555 1_555
C2 H1 1_555 1_555
C3 O3 1_555 1_555
O3 Cd1 1_555 1_555
C4 S1 1_555 1_555
C5 C2 1_555 1_555
O4 Na1 1_555 1_555
C6 C5 1_555 1_555
H2 C6 1_555 1_555
C7 C1 1_555 1_555
H3 C7 1_555 1_555
O5 S1 1_555 1_555
O6 S1 1_555 1_555
O7 Na1 1_555 1_555
N1 Cd1 1_555 1_555
C8 C1 1_555 1_555
O8 C8 1_555 1_555
C9 N1 1_555 1_555
H4 C9 1_555 1_555
H5 C9 1_555 1_555
C10 N1 1_555 1_555
H6 C10 1_555 1_555
H7 C10 1_555 1_555
C11 N1 1_555 1_555
H8 C11 1_555 1_555
H9 C11 1_555 1_555
Cd1F O6 1_555 1_555
Cd1F_2 O4D 1_555 1_555
Cd1B O4 1_555 1_555
Cd1C N1C 1_555 1_555
Cd1D O3D 1_555 1_555
Cd1_2 O6F 1_555 1_555
S1F O2F 1_555 1_555
Na1F O2F 1_555 1_555
Na1B O3 1_555 1_555
Na1D O4 1_555 1_555
Na1D_2 O3F 1_555 1_555
O1F Cd1F 1_555 1_555
O2F Cd1 1_555 1_555
O2_2 Cd1F 1_555 1_555
C1F C4F 1_555 1_555
C2F H1F 1_555 1_555
C3F O1F 1_555 1_555
O3F Cd1F 1_555 1_555
O3B Na1 1_555 1_555
O3D Na1F 1_555 1_555
C4F S1F 1_555 1_555
C5F C2F 1_555 1_555
O4F Cd1D 1_555 1_555
O4B Cd1 1_555 1_555
O4D Na1 1_555 1_555
O4D_2 Cd1F 1_555 1_555
C6F C5F 1_555 1_555
H2F C6F 1_555 1_555
C7F C1F 1_555 1_555
H3F C7F 1_555 1_555
O5F S1F 1_555 1_555
O6F S1F 1_555 1_555
O6F_2 Cd1 1_555 1_555
O7F Na1F 1_555 1_555
N1C C9C 1_555 1_555
N1F Cd1F 1_555 1_555
C8F C1F 1_555 1_555
O8F Cd1D 1_555 1_555
O8B Cd1 1_555 1_555
O8D Cd1F 1_555 1_555
C9C C9 1_555 1_555
H4C C9C 1_555 1_555
H5C C9C 1_555 1_555
C10C C11 1_555 1_555
H6C C10C 1_555 1_555
H7C C10C 1_555 1_555
C11C C10 1_555 1_555
H8C C11C 1_555 1_555
H9C C11C 1_555 1_555
Na1 O6 1_555 1_555
C2 C4 1_555 1_555
C3 C5 1_555 1_555
O4 C8 1_555 1_555
C6 C7 1_555 1_555
O8 Cd1B 1_555 1_555
Cd1B O3B 1_555 1_555
Na1F O4F 1_555 1_555
Na1F O4B 1_555 1_555
Na1F O6F 1_555 1_555
Na1B O4F 1_555 1_555
Na1B O4B 1_555 1_555
Na1D O4D 1_555 1_555
Na1D_2 O4D_2 1_555 1_555
C2F C4F 1_555 1_555
C3F O3F 1_555 1_555
C3F C5F 1_555 1_555
O4F C8F 1_555 1_555
C6F C7F 1_555 1_555
N1C C10C 1_555 1_555
N1C C11C 1_555 1_555
C8F O8F 1_555 1_555

#END
