
#######################################################################
#
#                 Cambridge Crystallographic Data Centre
#                                CCDC 
#
#######################################################################
#
# If this CIF has been generated from an entry in the Cambridge 
# Structural Database, then it will include bibliographic, chemical, 
# crystal, experimental, refinement or atomic coordinate data resulting 
# from the CCDC's data processing and validation procedures.
#
#######################################################################

data_ADATAC
_symmetry_cell_setting           cubic
_symmetry_space_group_name_H-M   'F m -3'
_symmetry_Int_Tables_number      202
_space_group_name_Hall           '-F 2 2 3'
loop_
_symmetry_equiv_pos_site_id
_symmetry_equiv_pos_as_xyz
1 x,y,z
2 -x,-y,z
3 -x,y,-z
4 x,-y,-z
5 z,x,y
6 z,-x,-y
7 -z,-x,y
8 -z,x,-y
9 y,z,x
10 -y,z,-x
11 y,-z,-x
12 -y,-z,x
13 x,1/2+y,1/2+z
14 -x,1/2-y,1/2+z
15 -x,1/2+y,1/2-z
16 x,1/2-y,1/2-z
17 z,1/2+x,1/2+y
18 z,1/2-x,1/2-y
19 -z,1/2-x,1/2+y
20 -z,1/2+x,1/2-y
21 y,1/2+z,1/2+x
22 -y,1/2+z,1/2-x
23 y,1/2-z,1/2-x
24 -y,1/2-z,1/2+x
25 1/2+x,y,1/2+z
26 1/2-x,-y,1/2+z
27 1/2-x,y,1/2-z
28 1/2+x,-y,1/2-z
29 1/2+z,x,1/2+y
30 1/2+z,-x,1/2-y
31 1/2-z,-x,1/2+y
32 1/2-z,x,1/2-y
33 1/2+y,z,1/2+x
34 1/2-y,z,1/2-x
35 1/2+y,-z,1/2-x
36 1/2-y,-z,1/2+x
37 1/2+x,1/2+y,z
38 1/2-x,1/2-y,z
39 1/2-x,1/2+y,-z
40 1/2+x,1/2-y,-z
41 1/2+z,1/2+x,y
42 1/2+z,1/2-x,-y
43 1/2-z,1/2-x,y
44 1/2-z,1/2+x,-y
45 1/2+y,1/2+z,x
46 1/2-y,1/2+z,-x
47 1/2+y,1/2-z,-x
48 1/2-y,1/2-z,x
49 -x,-y,-z
50 x,y,-z
51 x,-y,z
52 -x,y,z
53 -z,-x,-y
54 -z,x,y
55 z,x,-y
56 z,-x,y
57 -y,-z,-x
58 y,-z,x
59 -y,z,x
60 y,z,-x
61 -x,1/2-y,1/2-z
62 x,1/2+y,1/2-z
63 x,1/2-y,1/2+z
64 -x,1/2+y,1/2+z
65 -z,1/2-x,1/2-y
66 -z,1/2+x,1/2+y
67 z,1/2+x,1/2-y
68 z,1/2-x,1/2+y
69 -y,1/2-z,1/2-x
70 y,1/2-z,1/2+x
71 -y,1/2+z,1/2+x
72 y,1/2+z,1/2-x
73 1/2-x,-y,1/2-z
74 1/2+x,y,1/2-z
75 1/2+x,-y,1/2+z
76 1/2-x,y,1/2+z
77 1/2-z,-x,1/2-y
78 1/2-z,x,1/2+y
79 1/2+z,x,1/2-y
80 1/2+z,-x,1/2+y
81 1/2-y,-z,1/2-x
82 1/2+y,-z,1/2+x
83 1/2-y,z,1/2+x
84 1/2+y,z,1/2-x
85 1/2-x,1/2-y,-z
86 1/2+x,1/2+y,-z
87 1/2+x,1/2-y,z
88 1/2-x,1/2+y,z
89 1/2-z,1/2-x,-y
90 1/2-z,1/2+x,y
91 1/2+z,1/2+x,-y
92 1/2+z,1/2-x,y
93 1/2-y,1/2-z,-x
94 1/2+y,1/2-z,x
95 1/2-y,1/2+z,x
96 1/2+y,1/2+z,-x
_cell_length_a                   56.798(9)
_cell_length_b                   56.798(9)
_cell_length_c                   56.798(9)
_cell_angle_alpha                90
_cell_angle_beta                 90
_cell_angle_gamma                90
_cell_volume                     183231
loop_
_atom_site_label
_atom_site_type_symbol
_atom_site_fract_x
_atom_site_fract_y
_atom_site_fract_z
Zn1 Zn 1.09684(7) 1.09906(7) 0.5000
Zn2 Zn 1.13575(8) 1.13436(7) 0.5000
O1 O 1.0212(2) 1.14783(19) 0.3888(2)
O2 O 1.0214(2) 1.1188(2) 0.4144(2)
O3 O 1.1131(2) 1.14586(19) 0.47337(19)
O4 O 1.08487(17) 1.12005(18) 0.47457(18)
O5 O 1.1613(3) 1.1570(2) 0.5000
O6 O 1.0702(3) 1.0771(3) 0.5000
C1 C 1.0940(2) 1.13800(19) 0.46540(18)
C2 C 1.0821(2) 1.1496(2) 0.44509(17)
C3 C 1.06266(19) 1.13883(19) 0.43572(17)
H1 H 1.0572 1.1244 0.4421
C4 C 1.05118(17) 1.1488(2) 0.4173(2)
C5 C 1.03000(18) 1.1376(2) 0.4064(2)
C6 C 1.05911(18) 1.16956(19) 0.40809(19)
H2 H 1.0511 1.1765 0.3952
C7 C 1.0785(2) 1.1804(2) 0.4174(2)
C8 C 1.0902(2) 1.17086(19) 0.43578(17)
H3 H 1.1036 1.1784 0.4422
N1 N 1.0859(2) 1.20191(18) 0.4071(2)
N2 N 1.0958(2) 1.2161(2) 0.4198(3)
C9 C 1.10287(19) 1.2377(2) 0.4085(3)
C10 C 1.1172(2) 1.2524(3) 0.4220(3)
H4 H 1.1217 1.2482 0.4375
C11 C 1.1246(3) 1.2733(3) 0.4122(3)
H5 H 1.1344 1.2835 0.4212
C12 C 1.1181(2) 1.2798(3) 0.3895(3)
C13 C 1.1041(3) 1.2649(3) 0.3771(3)
H6 H 1.0996 1.2691 0.3616
C14 C 1.0961(3) 1.2430(3) 0.3866(3)
H7 H 1.0863 1.2327 0.3778
O7 O 1.1267(3) 1.3009(3) 0.3821(3)
C15 C 1.1208(3) 1.3096(2) 0.3597(3)
H8 H 1.1041 1.3144 0.3594
H9 H 1.1232 1.2972 0.3477
C16 C 1.1362(3) 1.3304(2) 0.3543(3)
C17 C 1.1313(2) 1.3446(3) 0.3351(2)
H10 H 1.1182 1.3413 0.3253
Zn1PA Zn 1.0000 1.40316(7) 0.09906(7)
Zn1GA Zn 1.40094(7) 1.5000 0.40316(7)
Zn1EA Zn 1.0000 1.09684(7) 0.40094(7)
Zn1H Zn 1.09906(7) 1.5000 0.09684(7)
Zn1KA Zn 1.40316(7) 1.40094(7) 0.5000
Zn1V Zn 1.09906(7) 1.0000 0.40316(7)
Zn1Q Zn 1.5000 1.40316(7) 0.40094(7)
Zn1D Zn 1.5000 1.09684(7) 0.09906(7)
Zn1UA Zn 1.40094(7) 1.0000 0.09684(7)
Zn2PA Zn 1.0000 1.36425(8) 0.13436(7)
Zn2GA Zn 1.36564(7) 1.5000 0.36425(8)
Zn2EA Zn 1.0000 1.13575(8) 0.36564(7)
Zn2H Zn 1.13436(7) 1.5000 0.13575(8)
Zn2KA Zn 1.36425(8) 1.36564(7) 0.5000
Zn2V Zn 1.13436(7) 1.0000 0.36425(8)
Zn2Q Zn 1.5000 1.36425(8) 0.36564(7)
Zn2D Zn 1.5000 1.13575(8) 0.13436(7)
Zn2UA Zn 1.36564(7) 1.0000 0.13575(8)
O1PA O 1.1112(2) 1.4788(2) 0.14783(19)
O1GA O 1.35217(19) 1.3888(2) 0.4788(2)
O1V O 1.14783(19) 1.1112(2) 0.4788(2)
O1KA O 1.4788(2) 1.35217(19) 0.3888(2)
O1D O 1.3888(2) 1.0212(2) 0.14783(19)
O1QB O 1.14783(19) 1.1112(2) 0.5212(2)
O1O O 1.0212(2) 1.35217(19) 0.1112(2)
O1HB O 0.9788(2) 1.35217(19) 0.1112(2)
O1Q O 1.3888(2) 1.4788(2) 0.35217(19)
O1NB O 1.3888(2) 1.5212(2) 0.35217(19)
O2PA O 1.0856(2) 1.4786(2) 0.1188(2)
O2GA O 1.3812(2) 1.4144(2) 0.4786(2)
O2V O 1.1188(2) 1.0856(2) 0.4786(2)
O2KA O 1.4786(2) 1.3812(2) 0.4144(2)
O2D O 1.4144(2) 1.0214(2) 0.1188(2)
O2QB O 1.1188(2) 1.0856(2) 0.5214(2)
O2O O 1.0214(2) 1.3812(2) 0.0856(2)
O2HB O 0.9786(2) 1.3812(2) 0.0856(2)
O2Q O 1.4144(2) 1.4786(2) 0.3812(2)
O2NB O 1.4144(2) 1.5214(2) 0.3812(2)
O3PA O 1.02663(19) 1.3869(2) 0.14586(19)
O3GA O 1.35414(19) 1.47337(19) 0.3869(2)
O3V O 1.14586(19) 1.02663(19) 0.3869(2)
O3KA O 1.3869(2) 1.35414(19) 0.47337(19)
O3D O 1.47337(19) 1.1131(2) 0.14586(19)
O3WA O 1.1131(2) 1.14586(19) 0.52663(19)
O3MC O 0.97337(19) 1.3869(2) 0.14586(19)
O3BC O 1.35414(19) 1.52663(19) 0.3869(2)
O4PA O 1.02543(18) 1.41513(17) 0.12005(18)
O4GA O 1.37995(18) 1.47457(18) 0.41513(17)
O4V O 1.12005(18) 1.02543(18) 0.41513(17)
O4KA O 1.41513(17) 1.37995(18) 0.47457(18)
O4D O 1.47457(18) 1.08487(17) 0.12005(18)
O4WA O 1.08487(17) 1.12005(18) 0.52543(18)
O4MC O 0.97457(18) 1.41513(17) 0.12005(18)
O4BC O 1.37995(18) 1.52543(18) 0.41513(17)
O5PA O 1.0000 1.3387(3) 0.1570(2)
O5GA O 1.3430(2) 1.5000 0.3387(3)
O6PA O 1.0000 1.4298(3) 0.0771(3)
O6GA O 1.4229(3) 1.5000 0.4298(3)
C1PA C 1.03460(18) 1.4060(2) 0.13800(19)
C1GA C 1.36200(19) 1.46540(18) 0.4060(2)
C1V C 1.13800(19) 1.03460(18) 0.4060(2)
C1KA C 1.4060(2) 1.36200(19) 0.46540(18)
C1D C 1.46540(18) 1.0940(2) 0.13800(19)
C2PA C 1.05491(17) 1.4179(2) 0.1496(2)
C2GA C 1.3504(2) 1.44509(17) 0.4179(2)
C2V C 1.1496(2) 1.05491(17) 0.4179(2)
C2KA C 1.4179(2) 1.3504(2) 0.44509(17)
C2D C 1.44509(17) 1.0821(2) 0.1496(2)
C3PA C 1.06428(17) 1.43734(19) 0.13883(19)
C3GA C 1.36117(19) 1.43572(17) 0.43734(19)
C3V C 1.13883(19) 1.06428(17) 0.43734(19)
C3KA C 1.43734(19) 1.36117(19) 0.43572(17)
C3D C 1.43572(17) 1.06266(19) 0.13883(19)
H1PA H 1.0579 1.4428 0.1244
H1GA H 1.3756 1.4421 0.4428
H1V H 1.1244 1.0579 0.4428
H1KA H 1.4428 1.3756 0.4421
H1D H 1.4421 1.0572 0.1244
C4PA C 1.0827(2) 1.44882(17) 0.1488(2)
C4GA C 1.3512(2) 1.4173(2) 0.44882(17)
C4V C 1.1488(2) 1.0827(2) 0.44882(17)
C4KA C 1.44882(17) 1.3512(2) 0.4173(2)
C4D C 1.4173(2) 1.05118(17) 0.1488(2)
C5PA C 1.0936(2) 1.47000(18) 0.1376(2)
C5GA C 1.3624(2) 1.4064(2) 0.47000(18)
C5V C 1.1376(2) 1.0936(2) 0.47000(18)
C5KA C 1.47000(18) 1.3624(2) 0.4064(2)
C5D C 1.4064(2) 1.03000(18) 0.1376(2)
C6PA C 1.09191(19) 1.44089(18) 0.16956(19)
C6GA C 1.33044(19) 1.40809(19) 0.44089(18)
C6V C 1.16956(19) 1.09191(19) 0.44089(18)
C6KA C 1.44089(18) 1.33044(19) 0.40809(19)
C6D C 1.40809(19) 1.05911(18) 0.16956(19)
H2PA H 1.1048 1.4489 0.1765
H2GA H 1.3235 1.3952 0.4489
H2V H 1.1765 1.1048 0.4489
H2KA H 1.4489 1.3235 0.3952
H2D H 1.3952 1.0511 0.1765
C7PA C 1.0826(2) 1.4215(2) 0.1804(2)
C7GA C 1.3196(2) 1.4174(2) 0.4215(2)
C7V C 1.1804(2) 1.0826(2) 0.4215(2)
C7KA C 1.4215(2) 1.3196(2) 0.4174(2)
C7D C 1.4174(2) 1.0785(2) 0.1804(2)
C8PA C 1.06422(17) 1.4098(2) 0.17086(19)
C8GA C 1.32914(19) 1.43578(17) 0.4098(2)
C8V C 1.17086(19) 1.06422(17) 0.4098(2)
C8KA C 1.4098(2) 1.32914(19) 0.43578(17)
C8D C 1.43578(17) 1.0902(2) 0.17086(19)
H3PA H 1.0578 1.3964 0.1784
H3GA H 1.3216 1.4422 0.3964
H3V H 1.1784 1.0578 0.3964
H3KA H 1.3964 1.3216 0.4422
H3D H 1.4422 1.1036 0.1784
N1PA N 1.0929(2) 1.4141(2) 0.20191(18)
N1GA N 1.29809(18) 1.4071(2) 0.4141(2)
N1V N 1.20191(18) 1.0929(2) 0.4141(2)
N1KA N 1.4141(2) 1.29809(18) 0.4071(2)
N1D N 1.4071(2) 1.0859(2) 0.20191(18)
N2PA N 1.0802(3) 1.4042(2) 0.2161(2)
N2GA N 1.2839(2) 1.4198(3) 0.4042(2)
N2V N 1.2161(2) 1.0802(3) 0.4042(2)
N2KA N 1.4042(2) 1.2839(2) 0.4198(3)
N2D N 1.4198(3) 1.0958(2) 0.2161(2)
C9PA C 1.0915(3) 1.39713(19) 0.2377(2)
C9GA C 1.2623(2) 1.4085(3) 0.39713(19)
C9V C 1.2377(2) 1.0915(3) 0.39713(19)
C9KA C 1.39713(19) 1.2623(2) 0.4085(3)
C9D C 1.4085(3) 1.10287(19) 0.2377(2)
C10PA C 1.0780(3) 1.3828(2) 0.2524(3)
C10GA C 1.2476(3) 1.4220(3) 0.3828(2)
C10V C 1.2524(3) 1.0780(3) 0.3828(2)
C10KA C 1.3828(2) 1.2476(3) 0.4220(3)
C10D C 1.4220(3) 1.1172(2) 0.2524(3)
H4PA H 1.0625 1.3783 0.2482
H4GA H 1.2518 1.4375 0.3783
H4V H 1.2482 1.0625 0.3783
H4KA H 1.3783 1.2518 0.4375
H4D H 1.4375 1.1217 0.2482
C11PA C 1.0878(3) 1.3754(3) 0.2733(3)
C11GA C 1.2267(3) 1.4122(3) 0.3754(3)
C11V C 1.2733(3) 1.0878(3) 0.3754(3)
C11KA C 1.3754(3) 1.2267(3) 0.4122(3)
C11D C 1.4122(3) 1.1246(3) 0.2733(3)
H5PA H 1.0788 1.3656 0.2835
H5GA H 1.2165 1.4212 0.3656
H5V H 1.2835 1.0788 0.3656
H5KA H 1.3656 1.2165 0.4212
H5D H 1.4212 1.1344 0.2835
C12PA C 1.1105(3) 1.3819(2) 0.2798(3)
C12GA C 1.2202(3) 1.3895(3) 0.3819(2)
C12V C 1.2798(3) 1.1105(3) 0.3819(2)
C12KA C 1.3819(2) 1.2202(3) 0.3895(3)
C12D C 1.3895(3) 1.1181(2) 0.2798(3)
C13PA C 1.1229(3) 1.3959(3) 0.2649(3)
C13GA C 1.2351(3) 1.3771(3) 0.3959(3)
C13V C 1.2649(3) 1.1229(3) 0.3959(3)
C13KA C 1.3959(3) 1.2351(3) 0.3771(3)
C13D C 1.3771(3) 1.1041(3) 0.2649(3)
H6PA H 1.1384 1.4004 0.2691
H6GA H 1.2309 1.3616 0.4004
H6V H 1.2691 1.1384 0.4004
H6KA H 1.4004 1.2309 0.3616
H6D H 1.3616 1.0996 0.2691
C14PA C 1.1134(3) 1.4039(3) 0.2430(3)
C14GA C 1.2570(3) 1.3866(3) 0.4039(3)
C14V C 1.2430(3) 1.1134(3) 0.4039(3)
C14KA C 1.4039(3) 1.2570(3) 0.3866(3)
C14D C 1.3866(3) 1.0961(3) 0.2430(3)
H7PA H 1.1222 1.4137 0.2327
H7GA H 1.2673 1.3778 0.4137
H7V H 1.2327 1.1222 0.4137
H7KA H 1.4137 1.2673 0.3778
H7D H 1.3778 1.0863 0.2327
O7PA O 1.1179(3) 1.3733(3) 0.3009(3)
O7GA O 1.1991(3) 1.3821(3) 0.3733(3)
O7V O 1.3009(3) 1.1179(3) 0.3733(3)
O7KA O 1.3733(3) 1.1991(3) 0.3821(3)
O7D O 1.3821(3) 1.1267(3) 0.3009(3)
C15PA C 1.1403(3) 1.3792(3) 0.3096(2)
C15GA C 1.1904(2) 1.3597(3) 0.3792(3)
C15V C 1.3096(2) 1.1403(3) 0.3792(3)
C15KA C 1.3792(3) 1.1904(2) 0.3597(3)
C15D C 1.3597(3) 1.1208(3) 0.3096(2)
H8PA H 1.1406 1.3959 0.3144
H8GA H 1.1856 1.3594 0.3959
H8V H 1.3144 1.1406 0.3959
H8KA H 1.3959 1.1856 0.3594
H8D H 1.3594 1.1041 0.3144
H9PA H 1.1523 1.3768 0.2972
H9GA H 1.2028 1.3477 0.3768
H9V H 1.2972 1.1523 0.3768
H9KA H 1.3768 1.2028 0.3477
H9D H 1.3477 1.1232 0.2972
C16PA C 1.1457(3) 1.3638(3) 0.3304(2)
C16GA C 1.1696(2) 1.3543(3) 0.3638(3)
C16V C 1.3304(2) 1.1457(3) 0.3638(3)
C16KA C 1.3638(3) 1.1696(2) 0.3543(3)
C16D C 1.3543(3) 1.1362(3) 0.3304(2)
C17PA C 1.1649(2) 1.3687(2) 0.3446(3)
C17GA C 1.1554(3) 1.3351(2) 0.3687(2)
C17V C 1.3446(3) 1.1649(2) 0.3687(2)
C17KA C 1.3687(2) 1.1554(3) 0.3351(2)
C17D C 1.3351(2) 1.1313(2) 0.3446(3)
H10GA H 1.1587 1.3253 0.3818
H10PA H 1.1747 1.3818 0.3413
H10V H 1.3413 1.1747 0.3818
H10D H 1.3253 1.1182 0.3413
H10KA H 1.3818 1.1587 0.3253
loop_
_geom_bond_atom_site_label_1
_geom_bond_atom_site_label_2
_geom_bond_site_symmetry_1
_geom_bond_site_symmetry_2
Zn1 O4 1_555 1_555
Zn2 O3 1_555 1_555
O1 C5 1_555 1_555
O2 C5 1_555 1_555
O3 C1 1_555 1_555
O4 C1 1_555 1_555
O5 Zn2 1_555 1_555
O6 Zn1 1_555 1_555
C1 C2 1_555 1_555
C2 C3 1_555 1_555
C3 H1 1_555 1_555
C4 C3 1_555 1_555
C5 C4 1_555 1_555
C6 C4 1_555 1_555
H2 C6 1_555 1_555
C7 C6 1_555 1_555
C8 C2 1_555 1_555
H3 C8 1_555 1_555
N1 C7 1_555 1_555
N2 N1 1_555 1_555
C9 N2 1_555 1_555
C10 C9 1_555 1_555
H4 C10 1_555 1_555
C11 C10 1_555 1_555
H5 C11 1_555 1_555
C12 C11 1_555 1_555
C13 C12 1_555 1_555
H6 C13 1_555 1_555
C14 C9 1_555 1_555
H7 C14 1_555 1_555
O7 C12 1_555 1_555
C15 O7 1_555 1_555
H8 C15 1_555 1_555
H9 C15 1_555 1_555
C16 C15 1_555 1_555
C17 C16 1_555 1_555
H10 C17 1_555 1_555
Zn1PA O2O 1_555 1_555
Zn1GA O2Q 1_555 1_555
Zn1EA O2 1_555 1_555
Zn1H O2PA 1_555 1_555
Zn1KA O2GA 1_555 1_555
Zn1V O4V 1_555 1_555
Zn1Q O2KA 1_555 1_555
Zn1D O4D 1_555 1_555
Zn1UA O2D 1_555 1_555
Zn2PA O1O 1_555 1_555
Zn2GA O1Q 1_555 1_555
Zn2EA O1 1_555 1_555
Zn2H O1PA 1_555 1_555
Zn2KA O1GA 1_555 1_555
Zn2V O3V 1_555 1_555
Zn2Q O1KA 1_555 1_555
Zn2D O3D 1_555 1_555
Zn2UA O1D 1_555 1_555
O1PA C5PA 1_555 1_555
O1GA C5GA 1_555 1_555
O1V Zn2 1_555 1_555
O1KA C5KA 1_555 1_555
O1D C5D 1_555 1_555
O1QB Zn2 1_555 1_555
O1HB Zn2PA 1_555 1_555
O1NB Zn2GA 1_555 1_555
O2PA C5PA 1_555 1_555
O2GA C5GA 1_555 1_555
O2V Zn1 1_555 1_555
O2KA C5KA 1_555 1_555
O2D C5D 1_555 1_555
O2QB Zn1 1_555 1_555
O2HB Zn1PA 1_555 1_555
O2NB Zn1GA 1_555 1_555
O3PA Zn2PA 1_555 1_555
O3GA Zn2GA 1_555 1_555
O3V C1V 1_555 1_555
O3KA Zn2KA 1_555 1_555
O3D C1D 1_555 1_555
O3WA Zn2 1_555 1_555
O3MC Zn2PA 1_555 1_555
O3BC Zn2GA 1_555 1_555
O4PA Zn1PA 1_555 1_555
O4GA Zn1GA 1_555 1_555
O4V C1V 1_555 1_555
O4KA Zn1KA 1_555 1_555
O4D C1D 1_555 1_555
O4WA Zn1 1_555 1_555
O4MC Zn1PA 1_555 1_555
O4BC Zn1GA 1_555 1_555
O5PA Zn2PA 1_555 1_555
O5GA Zn2GA 1_555 1_555
O6PA Zn1PA 1_555 1_555
O6GA Zn1GA 1_555 1_555
C1PA O3PA 1_555 1_555
C1GA O3GA 1_555 1_555
C1V C2V 1_555 1_555
C1KA O3KA 1_555 1_555
C1D C2D 1_555 1_555
C2PA C1PA 1_555 1_555
C2GA C1GA 1_555 1_555
C2V C3V 1_555 1_555
C2KA C1KA 1_555 1_555
C2D C3D 1_555 1_555
C3PA C2PA 1_555 1_555
C3GA C2GA 1_555 1_555
C3V H1V 1_555 1_555
C3KA C2KA 1_555 1_555
C3D H1D 1_555 1_555
H1PA C3PA 1_555 1_555
H1GA C3GA 1_555 1_555
H1KA C3KA 1_555 1_555
C4PA C3PA 1_555 1_555
C4GA C3GA 1_555 1_555
C4V C3V 1_555 1_555
C4KA C3KA 1_555 1_555
C4D C3D 1_555 1_555
C5PA C4PA 1_555 1_555
C5GA C4GA 1_555 1_555
C5V O1V 1_555 1_555
C5KA C4KA 1_555 1_555
C5D C4D 1_555 1_555
C6PA C4PA 1_555 1_555
C6GA C4GA 1_555 1_555
C6V C4V 1_555 1_555
C6KA C4KA 1_555 1_555
C6D C4D 1_555 1_555
H2PA C6PA 1_555 1_555
H2GA C6GA 1_555 1_555
H2V C6V 1_555 1_555
H2KA C6KA 1_555 1_555
H2D C6D 1_555 1_555
C7PA C6PA 1_555 1_555
C7GA C6GA 1_555 1_555
C7V C6V 1_555 1_555
C7KA C6KA 1_555 1_555
C7D C6D 1_555 1_555
C8PA C2PA 1_555 1_555
C8GA C2GA 1_555 1_555
C8V C2V 1_555 1_555
C8KA C2KA 1_555 1_555
C8D C2D 1_555 1_555
H3PA C8PA 1_555 1_555
H3GA C8GA 1_555 1_555
H3V C8V 1_555 1_555
H3KA C8KA 1_555 1_555
H3D C8D 1_555 1_555
N1PA C7PA 1_555 1_555
N1GA C7GA 1_555 1_555
N1V C7V 1_555 1_555
N1KA C7KA 1_555 1_555
N1D C7D 1_555 1_555
N2PA N1PA 1_555 1_555
N2GA N1GA 1_555 1_555
N2V N1V 1_555 1_555
N2KA N1KA 1_555 1_555
N2D N1D 1_555 1_555
C9PA N2PA 1_555 1_555
C9GA N2GA 1_555 1_555
C9V N2V 1_555 1_555
C9KA N2KA 1_555 1_555
C9D N2D 1_555 1_555
C10PA C9PA 1_555 1_555
C10GA C9GA 1_555 1_555
C10V C9V 1_555 1_555
C10KA C9KA 1_555 1_555
C10D C9D 1_555 1_555
H4PA C10PA 1_555 1_555
H4GA C10GA 1_555 1_555
H4V C10V 1_555 1_555
H4KA C10KA 1_555 1_555
H4D C10D 1_555 1_555
C11PA C10PA 1_555 1_555
C11GA C10GA 1_555 1_555
C11V C10V 1_555 1_555
C11KA C10KA 1_555 1_555
C11D C10D 1_555 1_555
H5PA C11PA 1_555 1_555
H5GA C11GA 1_555 1_555
H5V C11V 1_555 1_555
H5KA C11KA 1_555 1_555
H5D C11D 1_555 1_555
C12PA C11PA 1_555 1_555
C12GA C11GA 1_555 1_555
C12V C11V 1_555 1_555
C12KA C11KA 1_555 1_555
C12D C11D 1_555 1_555
C13PA C12PA 1_555 1_555
C13GA C12GA 1_555 1_555
C13V C12V 1_555 1_555
C13KA C12KA 1_555 1_555
C13D C12D 1_555 1_555
H6PA C13PA 1_555 1_555
H6GA C13GA 1_555 1_555
H6V C13V 1_555 1_555
H6KA C13KA 1_555 1_555
H6D C13D 1_555 1_555
C14PA C9PA 1_555 1_555
C14GA C9GA 1_555 1_555
C14V C9V 1_555 1_555
C14KA C9KA 1_555 1_555
C14D C9D 1_555 1_555
H7PA C14PA 1_555 1_555
H7GA C14GA 1_555 1_555
H7V C14V 1_555 1_555
H7KA C14KA 1_555 1_555
H7D C14D 1_555 1_555
O7PA C12PA 1_555 1_555
O7GA C12GA 1_555 1_555
O7V C12V 1_555 1_555
O7KA C12KA 1_555 1_555
O7D C12D 1_555 1_555
C15PA O7PA 1_555 1_555
C15GA O7GA 1_555 1_555
C15V O7V 1_555 1_555
C15KA O7KA 1_555 1_555
C15D O7D 1_555 1_555
H8PA C15PA 1_555 1_555
H8GA C15GA 1_555 1_555
H8V C15V 1_555 1_555
H8KA C15KA 1_555 1_555
H8D C15D 1_555 1_555
H9PA C15PA 1_555 1_555
H9GA C15GA 1_555 1_555
H9V C15V 1_555 1_555
H9KA C15KA 1_555 1_555
H9D C15D 1_555 1_555
C16PA C17 1_555 1_555
C16GA C15GA 1_555 1_555
C16V C15V 1_555 1_555
C16KA C15KA 1_555 1_555
C16D C15D 1_555 1_555
C17PA C16PA 1_555 1_555
C17GA C16 1_555 1_555
C17V C16V 1_555 1_555
C17KA C16KA 1_555 1_555
C17D C16V 1_555 1_555
H10GA C17GA 1_555 1_555
H10PA C17PA 1_555 1_555
H10V C17V 1_555 1_555
H10D C17D 1_555 1_555
H10KA C17KA 1_555 1_555
C7 C8 1_555 1_555
C13 C14 1_555 1_555
O2V C5V 1_555 1_555
O4PA C1PA 1_555 1_555
O4GA C1GA 1_555 1_555
O4KA C1KA 1_555 1_555
C4V C5V 1_555 1_555
C7PA C8PA 1_555 1_555
C7GA C8GA 1_555 1_555
C7V C8V 1_555 1_555
C7KA C8KA 1_555 1_555
C7D C8D 1_555 1_555
C13PA C14PA 1_555 1_555
C13GA C14GA 1_555 1_555
C13V C14V 1_555 1_555
C13KA C14KA 1_555 1_555
C13D C14D 1_555 1_555
C15PA C16PA 1_555 1_555
C16GA C17PA 1_555 1_555
C16GA C17GA 1_555 1_555
C16KA C17V 1_555 1_555
C16D C17KA 1_555 1_555
C16D C17D 1_555 1_555

#END
