
#######################################################################
#
#                 Cambridge Crystallographic Data Centre
#                                CCDC 
#
#######################################################################
#
# If this CIF has been generated from an entry in the Cambridge 
# Structural Database, then it will include bibliographic, chemical, 
# crystal, experimental, refinement or atomic coordinate data resulting 
# from the CCDC's data processing and validation procedures.
#
#######################################################################

data_ADIQEL
_symmetry_cell_setting           monoclinic
_symmetry_space_group_name_H-M   'P 21/n'
_symmetry_Int_Tables_number      14
_space_group_name_Hall           '-P 2yn'
loop_
_symmetry_equiv_pos_site_id
_symmetry_equiv_pos_as_xyz
1 x,y,z
2 1/2-x,1/2+y,1/2-z
3 -x,-y,-z
4 1/2+x,1/2-y,1/2+z
_cell_length_a                   8.2010(16)
_cell_length_b                   10.492(2)
_cell_length_c                   11.125(2)
_cell_angle_alpha                90
_cell_angle_beta                 95.28(3)
_cell_angle_gamma                90
_cell_volume                     953.188
loop_
_atom_site_label
_atom_site_type_symbol
_atom_site_fract_x
_atom_site_fract_y
_atom_site_fract_z
Co1 Co 1.0000 0.5000 0.0000
C1 C 1.3147(3) 0.5127(2) 0.1202(2)
H1 H 1.2984 0.5999 0.0996
N1 N 1.1951(2) 0.4308(2) 0.09728(18)
C2 C 1.4554(3) 0.4752(3) 0.1711(2)
H2 H 1.5420 0.5345 0.1877
C3 C 1.3514(3) 0.2632(2) 0.1793(2)
H3 H 1.3630 0.1759 0.2010
C4 C 1.2146(3) 0.3078(2) 0.1277(2)
H4 H 1.1251 0.2511 0.1109
C5 C 1.4779(3) 0.3475(2) 0.2011(2)
O1 O 1.5011(2) 0.16415(18) 0.39694(17)
O2 O 1.8093(2) 0.42430(19) 0.11698(16)
C6 C 1.6291(3) 0.3031(2) 0.2493(2)
C7 C 1.6277(3) 0.2117(2) 0.3412(2)
H5 H 1.7320 0.1779 0.3685
C8 C 1.7844(3) 0.3461(3) 0.2009(2)
H6 H 1.8809 0.3087 0.2394
Co1_2 Co 0.0000 0.5000 0.0000
Co1_3 Co 2.0000 0.5000 0.0000
Co1A Co 0.5000 1.0000 -0.5000
Co1A_2 Co 1.5000 0.0000 0.5000
C1B C 0.6853(3) 0.4873(2) -0.1202(2)
H1B H 0.7016 0.4001 -0.0996
N1B N 0.8049(2) 0.5692(2) -0.09728(18)
C2B C 0.5446(3) 0.5248(3) -0.1711(2)
H2B H 0.4580 0.4655 -0.1877
C3B C 0.6486(3) 0.7368(2) -0.1793(2)
H3B H 0.6370 0.8241 -0.2010
C4B C 0.7854(3) 0.6922(2) -0.1277(2)
H4B H 0.8749 0.7489 -0.1109
C5B C 0.5221(3) 0.6525(2) -0.2011(2)
O1B O 0.4989(2) 0.83585(18) -0.39694(17)
O1A O 0.9989(2) 0.66415(18) 0.10306(17)
O1C O 1.0011(2) 0.33585(18) -0.10306(17)
O2B O 0.1907(2) 0.57570(19) -0.11698(16)
O2_2 O 0.8093(2) 0.42430(19) 0.11698(16)
O2B_2 O 1.1907(2) 0.57570(19) -0.11698(16)
C6B C 0.3709(3) 0.6969(2) -0.2493(2)
C7B C 0.3723(3) 0.7883(2) -0.3412(2)
H5B H 0.2680 0.8221 -0.3685
C8B C 0.2156(3) 0.6539(3) -0.2009(2)
H6B H 0.1191 0.6913 -0.2394
O3 O 0.8883(7) 0.0996(5) 0.0363(9)
H7 H 0.9038 0.1783 0.0289
C9 C 0.7339(12) 0.0728(7) 0.0035(7)
H8 H 0.7018 -0.0032 0.0468
H9 H 0.7200 0.0567 -0.0836
H10 H 0.6650 0.1449 0.0229
loop_
_geom_bond_atom_site_label_1
_geom_bond_atom_site_label_2
_geom_bond_site_symmetry_1
_geom_bond_site_symmetry_2
Co1 N1 1_555 1_555
C1 H1 1_555 1_555
N1 C1 1_555 1_555
C2 C1 1_555 1_555
H2 C2 1_555 1_555
C3 H3 1_555 1_555
C4 N1 1_555 1_555
H4 C4 1_555 1_555
C5 C2 1_555 1_555
O1 C7 1_555 1_555
O2 C8 1_555 1_555
C6 C5 1_555 1_555
C7 C6 1_555 1_555
H5 C7 1_555 1_555
C8 C6 1_555 1_555
H6 C8 1_555 1_555
O3 H7 1_555 1_555
C9 O3 1_555 1_555
H8 C9 1_555 1_555
H9 C9 1_555 1_555
H10 C9 1_555 1_555
Co1_2 O2B 1_555 1_555
Co1_3 O2 1_555 1_555
Co1A O1B 1_555 1_555
Co1A_2 O1 1_555 1_555
C1B H1B 1_555 1_555
N1B Co1 1_555 1_555
C2B C1B 1_555 1_555
H2B C2B 1_555 1_555
C3B H3B 1_555 1_555
C4B N1B 1_555 1_555
H4B C4B 1_555 1_555
C5B C2B 1_555 1_555
O1B C7B 1_555 1_555
O1A Co1 1_555 1_555
O1C Co1 1_555 1_555
O2B C8B 1_555 1_555
O2_2 Co1 1_555 1_555
O2B_2 Co1 1_555 1_555
C6B C5B 1_555 1_555
C7B C6B 1_555 1_555
H5B C7B 1_555 1_555
C8B C6B 1_555 1_555
H6B C8B 1_555 1_555
C3 C4 1_555 1_555
C3 C5 1_555 1_555
C1B N1B 1_555 1_555
C3B C4B 1_555 1_555
C3B C5B 1_555 1_555

#END
