
#######################################################################
#
#                 Cambridge Crystallographic Data Centre
#                                CCDC 
#
#######################################################################
#
# If this CIF has been generated from an entry in the Cambridge 
# Structural Database, then it will include bibliographic, chemical, 
# crystal, experimental, refinement or atomic coordinate data resulting 
# from the CCDC's data processing and validation procedures.
#
#######################################################################

data_ADOCEC
_symmetry_cell_setting           tetragonal
_symmetry_space_group_name_H-M   'P -4 n 2'
_symmetry_Int_Tables_number      118
_space_group_name_Hall           'P -4 -2n'
loop_
_symmetry_equiv_pos_site_id
_symmetry_equiv_pos_as_xyz
1 x,y,z
2 -x,-y,z
3 y,-x,-z
4 -y,x,-z
5 1/2+x,1/2-y,1/2+z
6 1/2-x,1/2+y,1/2+z
7 1/2+y,1/2+x,1/2-z
8 1/2-y,1/2-x,1/2-z
_cell_length_a                   17.091(2)
_cell_length_b                   17.091(2)
_cell_length_c                   14.611(3)
_cell_angle_alpha                90
_cell_angle_beta                 90
_cell_angle_gamma                90
_cell_volume                     4267.91
loop_
_atom_site_label
_atom_site_type_symbol
_atom_site_fract_x
_atom_site_fract_y
_atom_site_fract_z
Br1 Br 0.0000 0.0000 0.0000
C11 C 0.5685(9) 0.0051(11) 1.1077(11)
C12 C 0.5697(8) 0.0029(13) 1.0128(12)
C13 C 0.5000 0.0000 0.9603(11)
C14 C 0.5000 0.0000 0.8488(10)
C15 C 0.5500(9) 0.0474(9) 0.7962(9)
N3 N 0.5000 0.0000 1.1589(14)
C11A C 0.4315(9) -0.0051(11) 1.1077(11)
C11F C 0.5051(11) 0.0685(9) 0.3923(11)
C11G C 0.4949(11) -0.0685(9) 0.3923(11)
C12A C 0.4303(8) -0.0029(13) 1.0128(12)
C12F C 0.5029(13) 0.0697(8) 0.4872(12)
C12G C 0.4971(13) -0.0697(8) 0.4872(12)
C13F C 0.5000 0.0000 0.5397(11)
C14F C 0.5000 0.0000 0.6512(10)
C15A C 0.4500(9) -0.0474(9) 0.7962(9)
C15F C 0.5474(9) 0.0500(9) 0.7038(9)
C15G C 0.4526(9) -0.0500(9) 0.7038(9)
N3F N 0.5000 0.0000 0.3411(14)
O12 O 0.447(2) 0.5743(15) 1.0194(13)
O13 O 0.6778(17) 0.1778(17) 0.7500
Ni1 Ni 0.24639(4) 0.25361(4) 0.7500
V1 V 0.37871(6) 0.38682(5) 0.62810(5)
V2 V 0.68544(6) 0.45266(6) 0.58869(9)
V3 V 0.53321(6) 0.31133(6) 0.58704(9)
V4 V 0.56627(7) 0.42894(7) 0.73017(6)
C1 C 0.0786(4) 0.2726(4) 0.6841(5)
H1 H 0.0689 0.2615 0.7454
C2 C 0.0158(4) 0.2758(5) 0.6259(5)
H2 H -0.0346 0.2674 0.6477
C3 C 0.0286(4) 0.2921(4) 0.5327(5)
C4 C 0.1644(4) 0.3048(4) 0.5731(5)
H3 H 0.2148 0.3185 0.5555
C5 C -0.1720(4) 0.3046(4) 0.4266(5)
H4 H -0.2224 0.3184 0.4445
C6 C -0.1119(5) 0.3117(4) 0.4886(5)
H5 H -0.1221 0.3305 0.5471
C7 C -0.0365(4) 0.2910(4) 0.4650(5)
C8 C -0.0858(4) 0.2633(4) 0.3157(5)
H6 H -0.0761 0.2493 0.2553
C9 C -0.0233(5) 0.2674(4) 0.3747(5)
H7 H 0.0269 0.2548 0.3550
C10 C 0.1057(4) 0.3068(5) 0.5079(5)
H8 H 0.1180 0.3181 0.4473
N1 N 0.1524(3) 0.2843(3) 0.6591(4)
N2 N 0.2783(3) 0.1602(3) 0.6598(4)
O1 O 0.5000 0.5000 0.7824(3)
O2 O 0.4809(3) 0.3707(3) 0.6820(3)
O3 O 0.6044(3) 0.3868(3) 0.8177(3)
O4 O 0.6204(3) 0.3692(3) 0.6234(2)
O5 O 0.3689(3) 0.4908(2) 0.6822(3)
O6 O 0.7715(3) 0.4335(3) 0.6252(4)
O7 O 0.3135(2) 0.4405(3) 0.5389(3)
O8 O 0.4271(2) 0.3203(2) 0.5370(3)
O9 O 0.5445(3) 0.2238(3) 0.6227(4)
O10 O 0.3188(2) 0.3283(2) 0.6818(2)
Ni1C Ni -0.25361(4) 0.24639(4) 0.2500
Ni1B Ni 0.25361(4) -0.24639(4) 0.2500
Ni1B_2 Ni 0.25361(4) 0.75361(4) 1.2500
Ni1C_2 Ni 0.74639(4) 0.24639(4) 1.2500
Ni1A Ni 0.75361(4) 0.74639(4) 0.7500
Ni1C_3 Ni 0.74639(4) 0.24639(4) 0.2500
Ni1B_3 Ni 0.25361(4) 0.75361(4) 0.2500
V1A V 0.62129(6) 0.61318(5) 0.62810(5)
V1C V 0.61318(5) 0.37871(6) 0.37190(5)
V1B V 0.38682(5) 0.62129(6) 0.37190(5)
V2A V 0.31456(6) 0.54734(6) 0.58869(9)
V2B V 0.45266(6) 0.31456(6) 0.41131(9)
V2C V 0.54734(6) 0.68544(6) 0.41131(9)
V3B V 0.31133(6) 0.46679(6) 0.41296(9)
V3C V 0.68867(6) 0.53321(6) 0.41296(9)
V3A V 0.46679(6) 0.68867(6) 0.58704(9)
V4A V 0.43373(7) 0.57106(7) 0.73017(6)
V4B V 0.42894(7) 0.43373(7) 0.26983(6)
V4C V 0.57106(7) 0.56627(7) 0.26983(6)
C1B C 0.2726(4) -0.0786(4) 0.3159(5)
C1E C 0.4214(4) 0.7726(4) 1.1841(5)
C1F C 0.7726(4) 0.5786(4) 0.8159(5)
H1B H 0.2615 -0.0689 0.2546
H1E H 0.4311 0.7615 1.2454
H1F H 0.7615 0.5689 0.7546
C2B C 0.2758(5) -0.0158(4) 0.3741(5)
C2E C 0.4842(4) 0.7758(5) 1.1259(5)
C2F C 0.7758(5) 0.5158(4) 0.8741(5)
H2B H 0.2674 0.0346 0.3523
H2E H 0.5346 0.7674 1.1477
H2F H 0.7674 0.4654 0.8523
C3B C 0.2921(4) -0.0286(4) 0.4673(5)
C3E C 0.4714(4) 0.7921(4) 1.0327(5)
C3F C 0.7921(4) 0.5286(4) 0.9673(5)
C4B C 0.3048(4) -0.1644(4) 0.4269(5)
C4E C 0.3356(4) 0.8048(4) 1.0731(5)
C4F C 0.8048(4) 0.6644(4) 0.9269(5)
H3B H 0.3185 -0.2148 0.4445
H3E H 0.2852 0.8185 1.0555
H3F H 0.8185 0.7148 0.9445
C5B C 0.3046(4) 0.1720(4) 0.5734(5)
C5F C 0.8046(4) 0.3280(4) 1.0734(5)
C5E C 0.6720(4) 0.8046(4) 0.9266(5)
H4B H 0.3184 0.2224 0.5555
H4F H 0.8184 0.2776 1.0555
H4E H 0.7224 0.8184 0.9445
C6B C 0.3117(4) 0.1119(5) 0.5114(5)
C6F C 0.8117(4) 0.3881(5) 1.0114(5)
C6E C 0.6119(5) 0.8117(4) 0.9886(5)
H5B H 0.3305 0.1221 0.4529
H5F H 0.8305 0.3779 0.9529
H5E H 0.6221 0.8305 1.0471
C7B C 0.2910(4) 0.0365(4) 0.5350(5)
C7F C 0.7910(4) 0.4635(4) 1.0350(5)
C7E C 0.5365(4) 0.7910(4) 0.9650(5)
C8B C 0.2633(4) 0.0858(4) 0.6843(5)
C8F C 0.7633(4) 0.4142(4) 1.1843(5)
C8E C 0.5858(4) 0.7633(4) 0.8157(5)
H6B H 0.2493 0.0761 0.7447
H6F H 0.7493 0.4239 1.2447
H6E H 0.5761 0.7493 0.7553
C9B C 0.2674(4) 0.0233(5) 0.6253(5)
C9F C 0.7674(4) 0.4767(5) 1.1253(5)
C9E C 0.5233(5) 0.7674(4) 0.8747(5)
H7B H 0.2548 -0.0269 0.6450
H7F H 0.7548 0.5269 1.1450
H7E H 0.4731 0.7548 0.8550
C10B C 0.3068(5) -0.1057(4) 0.4921(5)
C10E C 0.3943(4) 0.8068(5) 1.0079(5)
C10F C 0.8068(5) 0.6057(4) 0.9921(5)
H8B H 0.3181 -0.1180 0.5527
H8E H 0.3820 0.8181 0.9473
H8F H 0.8181 0.6180 1.0527
N1G N 0.2157(3) 0.3476(3) 0.8409(4)
N1B N 0.2843(3) -0.1524(3) 0.3409(4)
N1E N 0.3476(3) 0.7843(3) 1.1591(4)
N1A N 0.8476(3) 0.7157(3) 0.6591(4)
N1F N 0.7843(3) 0.6524(3) 0.8409(4)
N2G N 0.3398(3) 0.2217(3) 0.8402(4)
N2C N -0.1602(3) 0.2783(3) 0.3402(4)
N2D N 0.7783(3) 0.3398(3) 1.1598(4)
N2A N 0.7217(3) 0.8398(3) 0.6598(4)
N2F N 0.6602(3) 0.7783(3) 0.8402(4)
O1B O 0.5000 0.5000 0.2176(3)
O2A O 0.5191(3) 0.6293(3) 0.6820(3)
O2B O 0.3707(3) 0.5191(3) 0.3180(3)
O2C O 0.6293(3) 0.4809(3) 0.3180(3)
O3A O 0.3956(3) 0.6132(3) 0.8177(3)
O3B O 0.3868(3) 0.3956(3) 0.1823(3)
O3C O 0.6132(3) 0.6044(3) 0.1823(3)
O4A O 0.3796(3) 0.6308(3) 0.6234(2)
O4B O 0.3692(3) 0.3796(3) 0.3766(2)
O4C O 0.6308(3) 0.6204(3) 0.3766(2)
O5A O 0.6311(3) 0.5092(2) 0.6822(3)
O5C O 0.5092(2) 0.3689(3) 0.3178(3)
O5B O 0.4908(2) 0.6311(3) 0.3178(3)
O6A O 0.2285(3) 0.5665(3) 0.6252(4)
O6B O 0.4335(3) 0.2285(3) 0.3748(4)
O6C O 0.5665(3) 0.7715(3) 0.3748(4)
O7A O 0.6865(2) 0.5595(3) 0.5389(3)
O7C O 0.5595(3) 0.3135(2) 0.4611(3)
O7B O 0.4405(3) 0.6865(2) 0.4611(3)
O8C O 0.6797(2) 0.4271(2) 0.4630(3)
O8B O 0.3203(2) 0.5729(2) 0.4630(3)
O8A O 0.5729(2) 0.6797(2) 0.5370(3)
O9B O 0.2238(3) 0.4555(3) 0.3773(4)
O9C O 0.7762(3) 0.5445(3) 0.3773(4)
O9A O 0.4555(3) 0.7762(3) 0.6227(4)
O10G O 0.1717(2) 0.1812(2) 0.8182(2)
O10A O 0.6812(2) 0.6717(2) 0.6818(2)
O10C O 0.6717(2) 0.3188(2) 0.3182(2)
O10B O 0.3283(2) 0.6812(2) 0.3182(2)
O10F O 0.8283(2) 0.8188(2) 0.8182(2)
C16? C 0.5693(8) -0.0004(11) 1.0544(10)
C17? C 0.5717(8) 0.0002(11) 1.1512(10)
C18? C 0.5000 0.0000 1.1969(11)
N4? N 0.5000 0.0000 1.0087(12)
N5? N 0.5000 0.0000 0.8488(10)
O11? O 0.5000 0.5000 0.9713(14)
loop_
_geom_bond_atom_site_label_1
_geom_bond_atom_site_label_2
_geom_bond_site_symmetry_1
_geom_bond_site_symmetry_2
Ni1 N1 1_555 1_555
V1 O2 1_555 1_555
V2 O4 1_555 1_555
V3 O2 1_555 1_555
V4 O1 1_555 1_555
C1 H1 1_555 1_555
C2 C1 1_555 1_555
H2 C2 1_555 1_555
C3 C2 1_555 1_555
C4 H3 1_555 1_555
C5 H4 1_555 1_555
C6 C5 1_555 1_555
H5 C6 1_555 1_555
C7 C3 1_555 1_555
C8 H6 1_555 1_555
C9 C7 1_555 1_555
H7 C9 1_555 1_555
C10 C3 1_555 1_555
H8 C10 1_555 1_555
C11 C12 1_555 1_555
C12 C13 1_555 1_555
C13 C14 1_555 1_555
C14 C15 1_555 1_555
C15 C15F 1_555 1_555
N1 C1 1_555 1_555
N2 Ni1 1_555 1_555
N3 C11 1_555 1_555
O1 V4A 1_555 1_555
O2 V4 1_555 1_555
O3 V4 1_555 1_555
O4 V3 1_555 1_555
O5 V1 1_555 1_555
O6 V2 1_555 1_555
O7 V1 1_555 1_555
O8 V1 1_555 1_555
O9 V3 1_555 1_555
O10 Ni1 1_555 1_555
Ni1C N2C 1_555 1_555
Ni1B N1B 1_555 1_555
Ni1B_2 N1E 1_555 1_555
Ni1C_2 N2D 1_555 1_555
Ni1A N1A 1_555 1_555
Ni1C_3 O10C 1_555 1_555
Ni1B_3 O10B 1_555 1_555
V1A O2A 1_555 1_555
V1C O2C 1_555 1_555
V1B O2B 1_555 1_555
V2A O5 1_555 1_555
V2B O8 1_555 1_555
V2C O4C 1_555 1_555
V3B O7 1_555 1_555
V3C O2C 1_555 1_555
V3A O2A 1_555 1_555
V4A O5 1_555 1_555
V4B O1B 1_555 1_555
V4C O1B 1_555 1_555
C1B H1B 1_555 1_555
C1E H1E 1_555 1_555
C1F H1F 1_555 1_555
C2B C1B 1_555 1_555
C2E C1E 1_555 1_555
C2F C1F 1_555 1_555
H2B C2B 1_555 1_555
H2E C2E 1_555 1_555
H2F C2F 1_555 1_555
C3B C2B 1_555 1_555
C3E C2E 1_555 1_555
C3F C2F 1_555 1_555
C4B H3B 1_555 1_555
C4E H3E 1_555 1_555
C4F H3F 1_555 1_555
C5B N2 1_555 1_555
C5F H4F 1_555 1_555
C5E H4E 1_555 1_555
H4B C5B 1_555 1_555
C6B C5B 1_555 1_555
C6F C5F 1_555 1_555
C6E C5E 1_555 1_555
H5B C6B 1_555 1_555
H5F C6F 1_555 1_555
H5E C6E 1_555 1_555
C7B C3B 1_555 1_555
C7F C3F 1_555 1_555
C7E C3E 1_555 1_555
C8B N2 1_555 1_555
C8F H6F 1_555 1_555
C8E H6E 1_555 1_555
H6B C8B 1_555 1_555
C9B C7B 1_555 1_555
C9F C7F 1_555 1_555
C9E C7E 1_555 1_555
H7B C9B 1_555 1_555
H7F C9F 1_555 1_555
H7E C9E 1_555 1_555
C10B C3B 1_555 1_555
C10E C3E 1_555 1_555
C10F C3F 1_555 1_555
H8B C10B 1_555 1_555
H8E C10E 1_555 1_555
H8F C10F 1_555 1_555
C11A N3 1_555 1_555
C11F C12F 1_555 1_555
C11G C12G 1_555 1_555
C12A C13 1_555 1_555
C12F C13F 1_555 1_555
C12G C13F 1_555 1_555
C13F C14F 1_555 1_555
C14F C15F 1_555 1_555
C15A C14 1_555 1_555
C15G C14F 1_555 1_555
N1G Ni1 1_555 1_555
N1B C1B 1_555 1_555
N1E C1E 1_555 1_555
N1F Ni1A 1_555 1_555
N2G Ni1 1_555 1_555
N2C C5 1_555 1_555
N2D C5F 1_555 1_555
N2A Ni1A 1_555 1_555
N2F Ni1A 1_555 1_555
N3F C11F 1_555 1_555
O2A V4A 1_555 1_555
O2B V3B 1_555 1_555
O2C V4C 1_555 1_555
O3A V4A 1_555 1_555
O3B V4B 1_555 1_555
O3C V4C 1_555 1_555
O4A V2A 1_555 1_555
O4B V2B 1_555 1_555
O4C V3C 1_555 1_555
O5A V2 1_555 1_555
O5C V1C 1_555 1_555
O5B V1B 1_555 1_555
O6A V2A 1_555 1_555
O6B V2B 1_555 1_555
O6C V2C 1_555 1_555
O7A V2 1_555 1_555
O7C V3 1_555 1_555
O7B V1B 1_555 1_555
O8C V2 1_555 1_555
O8B V1B 1_555 1_555
O8A V1A 1_555 1_555
O9B V3B 1_555 1_555
O9C V3C 1_555 1_555
O9A V3A 1_555 1_555
O10G Ni1 1_555 1_555
O10A Ni1A 1_555 1_555
O10C V1C 1_555 1_555
O10B V1B 1_555 1_555
O10F Ni1A 1_555 1_555
V1 O10 1_555 1_555
V3 O8 1_555 1_555
V4 O4 1_555 1_555
V4 O5A 1_555 1_555
C4 C10 1_555 1_555
C4 N1 1_555 1_555
C6 C7 1_555 1_555
C8 C9 1_555 1_555
C8 N2C 1_555 1_555
O7 V2A 1_555 1_555
V1A O5A 1_555 1_555
V1A O7A 1_555 1_555
V1A O10A 1_555 1_555
V1C O7C 1_555 1_555
V1C O8C 1_555 1_555
V2A O8B 1_555 1_555
V2B O5C 1_555 1_555
V2B O7C 1_555 1_555
V2C O5B 1_555 1_555
V2C O7B 1_555 1_555
V2C O8A 1_555 1_555
V3B O4B 1_555 1_555
V3B O8B 1_555 1_555
V3C O7A 1_555 1_555
V3C O8C 1_555 1_555
V3A O4A 1_555 1_555
V3A O7B 1_555 1_555
V3A O8A 1_555 1_555
V4A O4A 1_555 1_555
V4B O2B 1_555 1_555
V4B O4B 1_555 1_555
V4B O5C 1_555 1_555
V4C O4C 1_555 1_555
V4C O5B 1_555 1_555
C1F N1F 1_555 1_555
C4B C10B 1_555 1_555
C4B N1B 1_555 1_555
C4E C10E 1_555 1_555
C4E N1E 1_555 1_555
C4F C10F 1_555 1_555
C4F N1F 1_555 1_555
C5E N2F 1_555 1_555
C6B C7B 1_555 1_555
C6F C7F 1_555 1_555
C6E C7E 1_555 1_555
C8B C9B 1_555 1_555
C8F C9F 1_555 1_555
C8F N2D 1_555 1_555
C8E C9E 1_555 1_555
C8E N2F 1_555 1_555
C11A C12A 1_555 1_555
C11G N3F 1_555 1_555
C15A C15G 1_555 1_555

#END
