
#######################################################################
#
#                 Cambridge Crystallographic Data Centre
#                                CCDC 
#
#######################################################################
#
# If this CIF has been generated from an entry in the Cambridge 
# Structural Database, then it will include bibliographic, chemical, 
# crystal, experimental, refinement or atomic coordinate data resulting 
# from the CCDC's data processing and validation procedures.
#
#######################################################################

data_ADODUU
_symmetry_cell_setting           monoclinic
_symmetry_space_group_name_H-M   'C 2'
_symmetry_Int_Tables_number      5
_space_group_name_Hall           'C 2y'
loop_
_symmetry_equiv_pos_site_id
_symmetry_equiv_pos_as_xyz
1 x,y,z
2 -x,y,-z
3 1/2+x,1/2+y,z
4 1/2-x,1/2+y,-z
_cell_length_a                   32.6663(15)
_cell_length_b                   7.0665(3)
_cell_length_c                   14.5262(7)
_cell_angle_alpha                90
_cell_angle_beta                 104.3980(10)
_cell_angle_gamma                90
_cell_volume                     3247.86
loop_
_atom_site_label
_atom_site_type_symbol
_atom_site_fract_x
_atom_site_fract_y
_atom_site_fract_z
Tb1 Tb 0.748658(7) 1.25638(8) 0.030483(15)
O1 O 0.69689(15) 1.5355(8) -0.0409(3)
O2 O 0.67330(13) 1.2526(15) -0.0345(3)
O3 O 0.28321(19) 2.1905(7) -0.1567(4)
O4 O 0.27922(15) 1.9446(7) -0.0665(3)
O5 O 0.26387(14) 1.0703(7) -0.8894(3)
O6 O 0.30135(17) 0.8287(7) -0.8247(4)
O7 O 0.39621(17) 1.6124(8) -0.3179(4)
O8 O 0.39087(17) 1.4810(7) -0.5445(3)
O9 O 0.50616(16) 1.6265(8) -0.2800(4)
O10 O 0.5000 1.5801(10) -0.5000
C1 C 0.44663(19) 1.5742(10) -0.4130(4)
C2 C 0.4696(2) 1.6922(10) -0.4714(5)
H1 H 0.4495 1.7416 -0.5270
H2 H 0.4834 1.7985 -0.4339
C3 C 0.4238(2) 1.4083(11) -0.4698(5)
H3 H 0.4434 1.3348 -0.4957
H4 H 0.4121 1.3266 -0.4290
C4 C 0.4172(2) 1.7092(10) -0.3795(5)
H5 H 0.4332 1.8147 -0.3460
H6 H 0.3964 1.7589 -0.4339
C5 C 0.4789(2) 1.4847(11) -0.3293(5)
H7 H 0.4643 1.4239 -0.2867
H8 H 0.4952 1.3892 -0.3525
C6 C 0.3709(2) 1.7167(11) -0.2768(6)
C7 C 0.3624(3) 1.9060(14) -0.2970(7)
H9 H 0.3737 1.9689 -0.3412
C8 C 0.3362(3) 2.0002(13) -0.2485(6)
H10 H 0.3304 2.1278 -0.2611
C9 C 0.3188(2) 1.9116(12) -0.1836(5)
C10 C 0.3266(3) 1.7165(14) -0.1678(6)
H11 H 0.3146 1.6516 -0.1254
C11 C 0.3523(3) 1.6222(12) -0.2155(6)
H12 H 0.3569 1.4930 -0.2058
C12 C 0.5443(2) 1.5691(11) -0.2238(5)
C13 C 0.5736(2) 1.7107(10) -0.1928(5)
H13 H 0.5667 1.8361 -0.2087
C14 C 0.6137(2) 1.6648(11) -0.1375(5)
H14 H 0.6337 1.7594 -0.1167
C15 C 0.6238(2) 1.4768(11) -0.1137(5)
C16 C 0.5936(2) 1.3407(12) -0.1444(5)
H15 H 0.6001 1.2151 -0.1278
C17 C 0.5539(2) 1.3853(12) -0.1995(6)
H16 H 0.5339 1.2907 -0.2198
C18 C 0.6668(2) 1.4178(11) -0.0595(5)
C19 C 0.3687(3) 1.3548(16) -0.6086(7)
C20 C 0.3766(3) 1.1641(16) -0.6102(8)
H17 H 0.3983 1.1113 -0.5633
C21 C 0.3525(3) 1.0486(13) -0.6811(6)
H18 H 0.3593 0.9212 -0.6842
C22 C 0.3185(2) 1.1255(12) -0.7470(5)
C23 C 0.3091(3) 1.3147(11) -0.7446(6)
H19 H 0.2859 1.3651 -0.7883
C24 C 0.3347(3) 1.4305(11) -0.6761(6)
H20 H 0.3290 1.5593 -0.6755
C25 C 0.2939(2) 1.0021(9) -0.8236(4)
C29 C 0.2920(2) 2.0205(10) -0.1342(5)
Tb1A Tb 0.251342(7) 1.25638(8) -1.030483(15)
Tb1C Tb 0.751342(7) 1.75638(8) -0.030483(15)
Tb1A_2 Tb 0.251342(7) 2.25638(8) -0.030483(15)
Tb1B Tb 0.248658(7) 1.75638(8) 0.030483(15)
Tb1B_2 Tb 0.248658(7) 0.75638(8) -0.969517(15)
Tb1C_2 Tb 0.751342(7) 0.75638(8) -0.030483(15)
Tb1_2 Tb 0.748658(7) 2.25638(8) -0.969517(15)
Tb1C_3 Tb 0.751342(7) 1.75638(8) -1.030483(15)
Tb1B_3 Tb 0.248658(7) 1.75638(8) -0.969517(15)
O1A O 0.30311(15) 1.5355(8) -0.9591(3)
O1C O 0.80311(15) 1.0355(8) 0.0409(3)
O1B O 0.19689(15) 1.0355(8) -1.0409(3)
O2A O 0.32670(13) 1.2526(15) -0.9655(3)
O3A O 0.71679(19) 2.1905(7) -0.8433(4)
O3A_2 O 0.71679(19) 1.1905(7) 0.1567(4)
O3_2 O 0.28321(19) 1.1905(7) -1.1567(4)
O4A O 0.72078(15) 1.9446(7) -0.9335(3)
O4A_2 O 0.72078(15) 0.9446(7) 0.0665(3)
O4B O 0.77922(15) 1.4446(7) -0.0665(3)
O4_2 O 0.27922(15) 0.9446(7) -1.0665(3)
O4C O 0.22078(15) 1.4446(7) -0.9335(3)
O5A O 0.73613(14) 1.0703(7) -0.1106(3)
O5B O 0.76387(14) 1.5703(7) 0.1106(3)
O5C O 0.23613(14) 1.5703(7) -1.1106(3)
O6A O 0.69865(17) 0.8287(7) -0.1753(4)
O6B O 0.80135(17) 1.3287(7) 0.1753(4)
O6C O 0.19865(17) 1.3287(7) -1.1753(4)
O7A O 0.60379(17) 1.6124(8) -0.6821(4)
O8A O 0.60913(17) 1.4810(7) -0.4555(3)
O9A O 0.49384(16) 1.6265(8) -0.7200(4)
C1A C 0.55337(19) 1.5742(10) -0.5870(4)
C2A C 0.5304(2) 1.6922(10) -0.5286(5)
H1A H 0.5505 1.7416 -0.4730
H2A H 0.5166 1.7985 -0.5661
C3A C 0.5762(2) 1.4083(11) -0.5302(5)
H3A H 0.5566 1.3348 -0.5043
H4A H 0.5879 1.3266 -0.5710
C4A C 0.5828(2) 1.7092(10) -0.6205(5)
H5A H 0.5668 1.8147 -0.6540
H6A H 0.6036 1.7589 -0.5661
C5A C 0.5211(2) 1.4847(11) -0.6707(5)
H7A H 0.5357 1.4239 -0.7133
H8A H 0.5048 1.3892 -0.6475
C6A C 0.6291(2) 1.7167(11) -0.7232(6)
C7A C 0.6376(3) 1.9060(14) -0.7030(7)
H9A H 0.6263 1.9689 -0.6588
C8A C 0.6638(3) 2.0002(13) -0.7515(6)
H10A H 0.6696 2.1278 -0.7389
C9A C 0.6812(2) 1.9116(12) -0.8164(5)
C10A C 0.6734(3) 1.7165(14) -0.8322(6)
H11A H 0.6854 1.6516 -0.8746
C11A C 0.6477(3) 1.6222(12) -0.7845(6)
H12A H 0.6431 1.4930 -0.7942
C12A C 0.4557(2) 1.5691(11) -0.7762(5)
C13A C 0.4264(2) 1.7107(10) -0.8072(5)
H13A H 0.4333 1.8361 -0.7913
C14A C 0.3863(2) 1.6648(11) -0.8625(5)
H14A H 0.3663 1.7594 -0.8833
C15A C 0.3762(2) 1.4768(11) -0.8863(5)
C16A C 0.4064(2) 1.3407(12) -0.8556(5)
H15A H 0.3999 1.2151 -0.8722
C17A C 0.4461(2) 1.3853(12) -0.8005(6)
H16A H 0.4661 1.2907 -0.7802
C18A C 0.3332(2) 1.4178(11) -0.9405(5)
C19A C 0.6313(3) 1.3548(16) -0.3914(7)
C20A C 0.6234(3) 1.1641(16) -0.3898(8)
H17A H 0.6017 1.1113 -0.4367
C21A C 0.6475(3) 1.0486(13) -0.3189(6)
H18A H 0.6407 0.9212 -0.3158
C22A C 0.6815(2) 1.1255(12) -0.2530(5)
C23A C 0.6909(3) 1.3147(11) -0.2554(6)
H19A H 0.7141 1.3651 -0.2117
C24A C 0.6653(3) 1.4305(11) -0.3239(6)
H20A H 0.6710 1.5593 -0.3245
C25A C 0.7061(2) 1.0021(9) -0.1764(4)
C29A C 0.7080(2) 2.0205(10) -0.8658(5)
N1 N 0.4472(4) 0.040(3) 0.9079(10)
O11 O 0.4728(4) 0.0752(18) 0.7836(9)
C26 C 0.4422(11) 0.263(5) 0.9077(19)
H21 H 0.4526 0.3162 0.8571
H22 H 0.4580 0.3133 0.9674
H23 H 0.4129 0.2950 0.8985
C27 C 0.4363(8) -0.087(5) 0.9693(13)
H24 H 0.4446 -0.2124 0.9554
H25 H 0.4063 -0.0840 0.9618
H26 H 0.4504 -0.0547 1.0335
C28 C 0.4637(6) -0.023(3) 0.8414(11)
H27 H 0.4687 -0.1525 0.8390
loop_
_geom_bond_atom_site_label_1
_geom_bond_atom_site_label_2
_geom_bond_site_symmetry_1
_geom_bond_site_symmetry_2
Tb1 O1 1_555 1_555
N1 C26 1_555 1_555
O1 C18 1_555 1_555
O2 Tb1 1_555 1_555
O3 C29 1_555 1_555
O4 C29 1_555 1_555
O5 C25 1_555 1_555
O6 C25 1_555 1_555
O7 C4 1_555 1_555
O8 C3 1_555 1_555
O9 C5 1_555 1_555
O10 C2 1_555 1_555
O11 C28 1_555 1_555
C1 C2 1_555 1_555
C2 H1 1_555 1_555
H2 C2 1_555 1_555
C3 C1 1_555 1_555
H3 C3 1_555 1_555
H4 C3 1_555 1_555
C4 C1 1_555 1_555
H5 C4 1_555 1_555
H6 C4 1_555 1_555
C5 C1 1_555 1_555
H7 C5 1_555 1_555
H8 C5 1_555 1_555
C6 O7 1_555 1_555
C7 C6 1_555 1_555
H9 C7 1_555 1_555
C8 C7 1_555 1_555
H10 C8 1_555 1_555
C9 C8 1_555 1_555
C10 C9 1_555 1_555
H11 C10 1_555 1_555
C11 C6 1_555 1_555
H12 C11 1_555 1_555
C12 O9 1_555 1_555
C13 C12 1_555 1_555
H13 C13 1_555 1_555
C14 C13 1_555 1_555
H14 C14 1_555 1_555
C15 C14 1_555 1_555
C16 C15 1_555 1_555
H15 C16 1_555 1_555
C17 C12 1_555 1_555
H16 C17 1_555 1_555
C18 O2 1_555 1_555
C19 O8 1_555 1_555
C20 C19 1_555 1_555
H17 C20 1_555 1_555
C21 C20 1_555 1_555
H18 C21 1_555 1_555
C22 C21 1_555 1_555
C23 C22 1_555 1_555
H19 C23 1_555 1_555
C24 C19 1_555 1_555
H20 C24 1_555 1_555
C25 C22 1_555 1_555
C26 H21 1_555 1_555
H22 C26 1_555 1_555
H23 C26 1_555 1_555
C27 N1 1_555 1_555
H24 C27 1_555 1_555
H25 C27 1_555 1_555
H26 C27 1_555 1_555
C28 N1 1_555 1_555
H27 C28 1_555 1_555
C29 C9 1_555 1_555
Tb1A O5 1_555 1_555
Tb1C O1 1_555 1_555
Tb1A_2 O3 1_555 1_555
Tb1B O4 1_555 1_555
Tb1B_2 O5 1_555 1_555
Tb1C_2 O1C 1_555 1_555
Tb1_2 O3A 1_555 1_555
Tb1C_3 O4A 1_555 1_555
Tb1B_3 O1A 1_555 1_555
O1A Tb1A 1_555 1_555
O1C Tb1 1_555 1_555
O1B Tb1A 1_555 1_555
O2A Tb1A 1_555 1_555
O3A C29A 1_555 1_555
O3A_2 Tb1 1_555 1_555
O3_2 Tb1A 1_555 1_555
O4A Tb1_2 1_555 1_555
O4A_2 Tb1 1_555 1_555
O4B Tb1 1_555 1_555
O4_2 Tb1A 1_555 1_555
O4C Tb1A 1_555 1_555
O5A Tb1 1_555 1_555
O5B Tb1 1_555 1_555
O5C Tb1A 1_555 1_555
O6A Tb1C_2 1_555 1_555
O6B Tb1 1_555 1_555
O6C Tb1A 1_555 1_555
O7A C4A 1_555 1_555
O8A C3A 1_555 1_555
O9A C5A 1_555 1_555
C1A C2A 1_555 1_555
C2A O10 1_555 1_555
H1A C2A 1_555 1_555
H2A C2A 1_555 1_555
C3A C1A 1_555 1_555
H3A C3A 1_555 1_555
H4A C3A 1_555 1_555
C4A C1A 1_555 1_555
H5A C4A 1_555 1_555
H6A C4A 1_555 1_555
C5A C1A 1_555 1_555
H7A C5A 1_555 1_555
H8A C5A 1_555 1_555
C6A O7A 1_555 1_555
C7A C6A 1_555 1_555
H9A C7A 1_555 1_555
C8A C7A 1_555 1_555
H10A C8A 1_555 1_555
C9A C8A 1_555 1_555
C10A C9A 1_555 1_555
H11A C10A 1_555 1_555
C11A C6A 1_555 1_555
H12A C11A 1_555 1_555
C12A O9A 1_555 1_555
C13A C12A 1_555 1_555
H13A C13A 1_555 1_555
C14A C13A 1_555 1_555
H14A C14A 1_555 1_555
C15A C14A 1_555 1_555
C16A C15A 1_555 1_555
H15A C16A 1_555 1_555
C17A C12A 1_555 1_555
H16A C17A 1_555 1_555
C18A O1A 1_555 1_555
C19A O8A 1_555 1_555
C20A C19A 1_555 1_555
H17A C20A 1_555 1_555
C21A C20A 1_555 1_555
H18A C21A 1_555 1_555
C22A C21A 1_555 1_555
C23A C22A 1_555 1_555
H19A C23A 1_555 1_555
C24A C19A 1_555 1_555
H20A C24A 1_555 1_555
C25A O5A 1_555 1_555
C29A O4A 1_555 1_555
O4 Tb1A_2 1_555 1_555
O6 Tb1B_2 1_555 1_555
C10 C11 1_555 1_555
C15 C18 1_555 1_555
C16 C17 1_555 1_555
C23 C24 1_555 1_555
Tb1C O4B 1_555 1_555
Tb1C O5B 1_555 1_555
Tb1B_2 O1B 1_555 1_555
Tb1B_2 O4_2 1_555 1_555
Tb1C_2 O4A_2 1_555 1_555
Tb1C_2 O5A 1_555 1_555
Tb1B_3 O4C 1_555 1_555
Tb1B_3 O5C 1_555 1_555
O2A C18A 1_555 1_555
O6A C25A 1_555 1_555
C9A C29A 1_555 1_555
C10A C11A 1_555 1_555
C15A C18A 1_555 1_555
C16A C17A 1_555 1_555
C22A C25A 1_555 1_555
C23A C24A 1_555 1_555

#END
