
#######################################################################
#
#                 Cambridge Crystallographic Data Centre
#                                CCDC 
#
#######################################################################
#
# If this CIF has been generated from an entry in the Cambridge 
# Structural Database, then it will include bibliographic, chemical, 
# crystal, experimental, refinement or atomic coordinate data resulting 
# from the CCDC's data processing and validation procedures.
#
#######################################################################

data_ADOKOV
_symmetry_cell_setting           monoclinic
_symmetry_space_group_name_H-M   'C 2'
_symmetry_Int_Tables_number      5
_space_group_name_Hall           'C 2y'
loop_
_symmetry_equiv_pos_site_id
_symmetry_equiv_pos_as_xyz
1 x,y,z
2 -x,y,-z
3 1/2+x,1/2+y,z
4 1/2-x,1/2+y,-z
_cell_length_a                   17.5697(3)
_cell_length_b                   12.2799(2)
_cell_length_c                   9.0323(2)
_cell_angle_alpha                90
_cell_angle_beta                 113.8490(10)
_cell_angle_gamma                90
_cell_volume                     1782.36
loop_
_atom_site_label
_atom_site_type_symbol
_atom_site_fract_x
_atom_site_fract_y
_atom_site_fract_z
Cu1 Cu 0.5000 0.99950(6) 0.5000
F1 F 0.40183(11) 1.0019(3) 0.6348(2)
N1 N 0.4330(3) 1.1172(3) 0.3477(5)
N2 N 0.4320(3) 0.8809(3) 0.3436(5)
B1 B 0.3511(2) 1.0139(4) 0.7181(4)
C1 C 0.3808(4) 1.1768(3) 0.3852(7)
C2 C 0.4410(4) 1.1471(4) 0.2118(7)
C3 C 0.4445(3) 0.8548(5) 0.2135(7)
C4 C 0.3757(4) 0.8214(5) 0.3786(8)
F2 F 0.3421(3) 1.1222(3) 0.7331(6)
F3 F 0.2745(2) 0.9758(6) 0.6297(5)
F4 F 0.3892(3) 0.9783(6) 0.8692(4)
C5 C 0.3381(4) 1.2657(4) 0.2951(8)
C6 C 0.3987(4) 1.2302(4) 0.1138(6)
C7 C 0.4056(4) 0.7605(4) 0.1210(8)
C8 C 0.3327(4) 0.7363(4) 0.2868(7)
C9 C 0.3465(3) 1.2973(4) 0.1531(7)
C10 C 0.3490(3) 0.7034(3) 0.1587(6)
C11 C 0.3044(3) 1.3955(4) 0.0581(7)
C12 C 0.3066(3) 0.6019(4) 0.0664(6)
C13 C 0.35073(18) 1.4968(4) 0.1488(4)
F1A F 0.59817(11) 1.0019(3) 0.3652(2)
N1A N 0.5670(3) 1.1172(3) 0.6523(5)
N2A N 0.5680(3) 0.8809(3) 0.6564(5)
B1A B 0.6489(2) 1.0139(4) 0.2819(4)
F2A F 0.6579(3) 1.1222(3) 0.2669(6)
F3A F 0.7255(2) 0.9758(6) 0.3703(5)
F4A F 0.6108(3) 0.9783(6) 0.1308(4)
C13_2 C 0.35073(18) 0.4968(4) 0.1488(4)
C12_2 C 0.3066(3) 1.6019(4) 0.0664(6)
C11_2 C 0.3044(3) 0.3955(4) 0.0581(7)
C10_2 C 0.3490(3) 1.7034(3) 0.1587(6)
C9_2 C 0.3465(3) 0.2973(4) 0.1531(7)
C7_2 C 0.4056(4) 1.7605(4) 0.1210(8)
C8_2 C 0.3327(4) 1.7363(4) 0.2868(7)
C5_2 C 0.3381(4) 0.2657(4) 0.2951(8)
C6_2 C 0.3987(4) 0.2302(4) 0.1138(6)
C3_2 C 0.4445(3) 1.8548(5) 0.2135(7)
C4_2 C 0.3757(4) 1.8214(5) 0.3786(8)
C1_2 C 0.3808(4) 0.1768(3) 0.3852(7)
C2_2 C 0.4410(4) 0.1471(4) 0.2118(7)
N2_2 N 0.4320(3) 1.8809(3) 0.3436(5)
N1_2 N 0.4330(3) 0.1172(3) 0.3477(5)
Cu1_2 Cu 0.5000 1.99950(6) 0.5000
Cu1_3 Cu 0.5000 -0.00050(6) 0.5000
loop_
_geom_bond_atom_site_label_1
_geom_bond_atom_site_label_2
_geom_bond_site_symmetry_1
_geom_bond_site_symmetry_2
Cu1 F1 1_555 1_555
F1 B1 1_555 1_555
N1 Cu1 1_555 1_555
N2 Cu1 1_555 1_555
B1 F2 1_555 1_555
C1 N1 1_555 1_555
C2 N1 1_555 1_555
C3 N2 1_555 1_555
C4 N2 1_555 1_555
F3 B1 1_555 1_555
F4 B1 1_555 1_555
C5 C1 1_555 1_555
C6 C2 1_555 1_555
C7 C3 1_555 1_555
C8 C4 1_555 1_555
C9 C5 1_555 1_555
C10 C7 1_555 1_555
C11 C9 1_555 1_555
C12 C10 1_555 1_555
C13 C11 1_555 1_555
F1A Cu1 1_555 1_555
N1A Cu1 1_555 1_555
N2A Cu1 1_555 1_555
B1A F1A 1_555 1_555
F2A B1A 1_555 1_555
F3A B1A 1_555 1_555
F4A B1A 1_555 1_555
C13_2 C12 1_555 1_555
C12_2 C13 1_555 1_555
C11_2 C13_2 1_555 1_555
C10_2 C12_2 1_555 1_555
C9_2 C11_2 1_555 1_555
C7_2 C10_2 1_555 1_555
C8_2 C10_2 1_555 1_555
C5_2 C9_2 1_555 1_555
C6_2 C9_2 1_555 1_555
C3_2 C7_2 1_555 1_555
C4_2 C8_2 1_555 1_555
C1_2 C5_2 1_555 1_555
C2_2 C6_2 1_555 1_555
N2_2 C3_2 1_555 1_555
N1_2 C1_2 1_555 1_555
Cu1_2 N2_2 1_555 1_555
Cu1_3 N1_2 1_555 1_555
C6 C9 1_555 1_555
C8 C10 1_555 1_555
C4_2 N2_2 1_555 1_555
C2_2 N1_2 1_555 1_555

#END
