
#######################################################################
#
#                 Cambridge Crystallographic Data Centre
#                                CCDC 
#
#######################################################################
#
# If this CIF has been generated from an entry in the Cambridge 
# Structural Database, then it will include bibliographic, chemical, 
# crystal, experimental, refinement or atomic coordinate data resulting 
# from the CCDC's data processing and validation procedures.
#
#######################################################################

data_ADUWIH
_symmetry_cell_setting           cubic
_symmetry_space_group_name_H-M   'P n -3'
_symmetry_Int_Tables_number      201
_space_group_name_Hall           '-P 2ab 2bc 3'
loop_
_symmetry_equiv_pos_site_id
_symmetry_equiv_pos_as_xyz
1 x,y,z
2 1/2-x,1/2-y,z
3 x,1/2-y,1/2-z
4 1/2-x,y,1/2-z
5 z,x,y
6 y,z,x
7 1/2-z,1/2-x,y
8 1/2-y,z,1/2-x
9 z,1/2-x,1/2-y
10 1/2-y,1/2-z,x
11 1/2-z,x,1/2-y
12 y,1/2-z,1/2-x
13 -x,-y,-z
14 1/2+x,1/2+y,-z
15 -x,1/2+y,1/2+z
16 1/2+x,-y,1/2+z
17 -z,-x,-y
18 -y,-z,-x
19 1/2+z,1/2+x,-y
20 1/2+y,-z,1/2+x
21 -z,1/2+x,1/2+y
22 1/2+y,1/2+z,-x
23 1/2+z,-x,1/2+y
24 -y,1/2+z,1/2+x
_cell_length_a                   22.0720(5)
_cell_length_b                   22.0720(5)
_cell_length_c                   22.0720(5)
_cell_angle_alpha                90
_cell_angle_beta                 90
_cell_angle_gamma                90
_cell_volume                     10752.9
loop_
_atom_site_label
_atom_site_type_symbol
_atom_site_fract_x
_atom_site_fract_y
_atom_site_fract_z
Zn1 Zn 0.407458(16) 0.092542(16) 0.407458(16)
Zn2 Zn 0.5000 0.0000 0.5000
C1 C 0.48827(15) 0.18489(14) 0.55102(17)
C2 C 0.48348(14) 0.24335(13) 0.53291(15)
H1 H 0.4644 0.2525 0.4965
C3 C 0.50717(17) 0.29004(15) 0.56889(17)
C4 C 0.5370(3) 0.2759(2) 0.6217(2)
H2 H 0.5539 0.3062 0.6455
C5 C 0.5414(3) 0.2158(2) 0.6388(3)
H3 H 0.5619 0.2061 0.6744
C6 C 0.5168(3) 0.17049(19) 0.6053(2)
H4 H 0.5190 0.1305 0.6185
C7 C 0.46338(14) 0.13546(14) 0.51154(16)
C8 C 0.52674(16) 0.39672(13) 0.57679(15)
H5 H 0.5702 0.3908 0.5799
H6 H 0.5101 0.4018 0.6172
C9 C 0.51214(16) 0.45080(12) 0.53737(14)
O1 O 0.46542(10) 0.08245(9) 0.52945(10)
O2 O 0.44076(10) 0.15230(9) 0.46124(10)
O3 O 0.35474(11) 0.14526(11) 0.35474(11)
O4 O 0.49860(11) 0.34660(9) 0.54622(11)
C1P C 0.44898(17) 0.51173(15) 0.81511(14)
C2P C 0.46709(15) 0.51652(14) 0.75665(13)
H1P H 0.5035 0.5356 0.7475
C3P C 0.43111(17) 0.49283(17) 0.70996(15)
C4P C 0.3783(2) 0.4630(3) 0.7241(2)
H2P H 0.3545 0.4461 0.6938
C5P C 0.3612(3) 0.4586(3) 0.7842(2)
H3P H 0.3256 0.4381 0.7939
C6P C 0.3947(2) 0.4832(3) 0.82951(19)
H4P H 0.3815 0.4810 0.8695
C7P C 0.48846(16) 0.53662(14) 0.86454(14)
C8P C 0.42321(15) 0.47326(16) 0.60328(13)
H5P H 0.4201 0.4298 0.6092
H6P H 0.3828 0.4899 0.5982
C9P C 0.46263(14) 0.48786(16) 0.54920(12)
O1P O 0.47055(10) 0.53458(10) 0.91755(9)
O2P O 0.53876(10) 0.55924(10) 0.84770(9)
O4P O 0.45378(11) 0.50140(11) 0.65340(9)
C1Q C 0.81511(14) 0.44898(17) 0.51173(15)
C2Q C 0.75665(13) 0.46709(15) 0.51652(14)
H1Q H 0.7475 0.5035 0.5356
C3Q C 0.70996(15) 0.43111(17) 0.49283(17)
C4Q C 0.7241(2) 0.3783(2) 0.4630(3)
H2Q H 0.6938 0.3545 0.4461
C5Q C 0.7842(2) 0.3612(3) 0.4586(3)
H3Q H 0.7939 0.3256 0.4381
C6Q C 0.82951(19) 0.3947(2) 0.4832(3)
H4Q H 0.8695 0.3815 0.4810
C7Q C 0.86454(14) 0.48846(16) 0.53662(14)
C8Q C 0.60328(13) 0.42321(15) 0.47326(16)
H5Q H 0.6092 0.4201 0.4298
H6Q H 0.5982 0.3828 0.4899
C9Q C 0.54920(12) 0.46263(14) 0.48786(16)
O1Q O 0.91755(9) 0.47055(10) 0.53458(10)
O2Q O 0.84770(9) 0.53876(10) 0.55924(10)
O4Q O 0.65340(9) 0.45378(11) 0.50140(11)
C1D C 0.55102(17) 0.48827(15) 0.18489(14)
C2D C 0.53291(15) 0.48348(14) 0.24335(13)
H1D H 0.4965 0.4644 0.2525
C3D C 0.56889(17) 0.50717(17) 0.29004(15)
C4D C 0.6217(2) 0.5370(3) 0.2759(2)
H2D H 0.6455 0.5539 0.3062
C5D C 0.6388(3) 0.5414(3) 0.2158(2)
H3D H 0.6744 0.5619 0.2061
C6D C 0.6053(2) 0.5168(3) 0.17049(19)
H4D H 0.6185 0.5190 0.1305
C7D C 0.51154(16) 0.46338(14) 0.13546(14)
C8D C 0.57679(15) 0.52674(16) 0.39672(13)
H5D H 0.5799 0.5702 0.3908
H6D H 0.6172 0.5101 0.4018
C9D C 0.53737(14) 0.51214(16) 0.45080(12)
O1D O 0.52945(10) 0.46542(10) 0.08245(9)
O2D O 0.46124(10) 0.44076(10) 0.15230(9)
O4D O 0.54622(11) 0.49860(11) 0.34660(9)
C1E C 0.18489(14) 0.55102(17) 0.48827(15)
C2E C 0.24335(13) 0.53291(15) 0.48348(14)
H1E H 0.2525 0.4965 0.4644
C3E C 0.29004(15) 0.56889(17) 0.50717(17)
C4E C 0.2759(2) 0.6217(2) 0.5370(3)
H2E H 0.3062 0.6455 0.5539
C5E C 0.2158(2) 0.6388(3) 0.5414(3)
H3E H 0.2061 0.6744 0.5619
C6E C 0.17049(19) 0.6053(2) 0.5168(3)
H4E H 0.1305 0.6185 0.5190
C7E C 0.13546(14) 0.51154(16) 0.46338(14)
C8E C 0.39672(13) 0.57679(15) 0.52674(16)
H5E H 0.3908 0.5799 0.5702
H6E H 0.4018 0.6172 0.5101
C9E C 0.45080(12) 0.53737(14) 0.51214(16)
O1E O 0.08245(9) 0.52945(10) 0.46542(10)
O2E O 0.15230(9) 0.46124(10) 0.44076(10)
O4E O 0.34660(9) 0.54622(11) 0.49860(11)
C1L C 0.51173(15) 0.81511(14) 0.44898(17)
C2L C 0.51652(14) 0.75665(13) 0.46709(15)
H1L H 0.5356 0.7475 0.5035
C3L C 0.49283(17) 0.70996(15) 0.43111(17)
C4L C 0.4630(3) 0.7241(2) 0.3783(2)
H2L H 0.4461 0.6938 0.3545
C5L C 0.4586(3) 0.7842(2) 0.3612(3)
H3L H 0.4381 0.7939 0.3256
C6L C 0.4832(3) 0.82951(19) 0.3947(2)
H4L H 0.4810 0.8695 0.3815
C7L C 0.53662(14) 0.86454(14) 0.48846(16)
C8L C 0.47326(16) 0.60328(13) 0.42321(15)
H5L H 0.4298 0.6092 0.4201
H6L H 0.4899 0.5982 0.3828
C9L C 0.48786(16) 0.54920(12) 0.46263(14)
O1L O 0.53458(10) 0.91755(9) 0.47055(10)
O2L O 0.55924(10) 0.84770(9) 0.53876(10)
O4L O 0.50140(11) 0.65340(9) 0.45378(11)
Zn1A Zn 0.092542(16) 0.407458(16) 0.407458(16)
O3A O 0.14526(11) 0.35474(11) 0.35474(11)
Zn1B Zn 0.407458(16) 0.407458(16) 0.092542(16)
Zn1L Zn 0.592542(16) 0.907458(16) 0.592542(16)
Zn1M Zn 0.907458(16) 0.592542(16) 0.592542(16)
Zn1N Zn 0.592542(16) 0.592542(16) 0.907458(16)
Zn2_2 Zn 0.5000 1.0000 0.5000
Zn2A Zn 0.0000 0.5000 0.5000
Zn2A_2 Zn 1.0000 0.5000 0.5000
Zn2B Zn 0.5000 0.5000 0.0000
Zn2B_2 Zn 0.5000 0.5000 1.0000
O1H O 0.52945(10) 0.03458(10) 0.41755(9)
O1I O 0.41755(9) -0.02945(10) 0.46542(10)
O1L_2 O 0.53458(10) -0.08245(9) 0.47055(10)
O1T O 0.47055(10) -0.03458(10) 0.58245(9)
O1U O 0.58245(9) 0.02945(10) 0.53458(10)
O2A O 0.05924(10) 0.34770(9) 0.46124(10)
O2H O 0.46124(10) 0.05924(10) 0.34770(9)
O2I O 0.34770(9) 0.03876(10) 0.44076(10)
O2J O 0.03876(10) 0.44076(10) 0.34770(9)
loop_
_geom_bond_atom_site_label_1
_geom_bond_atom_site_label_2
_geom_bond_site_symmetry_1
_geom_bond_site_symmetry_2
Zn1 O2 1_555 1_555
Zn2 O1 1_555 1_555
C1 C2 1_555 1_555
C2 H1 1_555 1_555
C3 C2 1_555 1_555
C4 C3 1_555 1_555
H2 C4 1_555 1_555
C5 C4 1_555 1_555
H3 C5 1_555 1_555
C6 C1 1_555 1_555
H4 C6 1_555 1_555
C7 C1 1_555 1_555
C8 H5 1_555 1_555
H6 C8 1_555 1_555
C9 C8 1_555 1_555
O1 C7 1_555 1_555
O2 C7 1_555 1_555
O3 Zn1 1_555 1_555
O4 C3 1_555 1_555
C1P C2P 1_555 1_555
C2P H1P 1_555 1_555
C3P C2P 1_555 1_555
C4P C3P 1_555 1_555
H2P C4P 1_555 1_555
C5P C4P 1_555 1_555
H3P C5P 1_555 1_555
C6P C1P 1_555 1_555
H4P C6P 1_555 1_555
C7P C1P 1_555 1_555
C8P H5P 1_555 1_555
H6P C8P 1_555 1_555
C9P C9 1_555 1_555
O1P C7P 1_555 1_555
O2P C7P 1_555 1_555
O4P C3P 1_555 1_555
C1Q C2Q 1_555 1_555
C2Q H1Q 1_555 1_555
C3Q C2Q 1_555 1_555
C4Q C3Q 1_555 1_555
H2Q C4Q 1_555 1_555
C5Q C4Q 1_555 1_555
H3Q C5Q 1_555 1_555
C6Q C1Q 1_555 1_555
H4Q C6Q 1_555 1_555
C7Q C1Q 1_555 1_555
C8Q H5Q 1_555 1_555
H6Q C8Q 1_555 1_555
C9Q C9 1_555 1_555
O1Q C7Q 1_555 1_555
O2Q C7Q 1_555 1_555
O4Q C3Q 1_555 1_555
C1D C2D 1_555 1_555
C2D H1D 1_555 1_555
C3D C2D 1_555 1_555
C4D C3D 1_555 1_555
H2D C4D 1_555 1_555
C5D C4D 1_555 1_555
H3D C5D 1_555 1_555
C6D C1D 1_555 1_555
H4D C6D 1_555 1_555
C7D C1D 1_555 1_555
C8D H5D 1_555 1_555
H6D C8D 1_555 1_555
C9D C9Q 1_555 1_555
O1D C7D 1_555 1_555
O2D C7D 1_555 1_555
O4D C3D 1_555 1_555
C1E C2E 1_555 1_555
C2E H1E 1_555 1_555
C3E C2E 1_555 1_555
C4E C3E 1_555 1_555
H2E C4E 1_555 1_555
C5E C4E 1_555 1_555
H3E C5E 1_555 1_555
C6E C1E 1_555 1_555
H4E C6E 1_555 1_555
C7E C1E 1_555 1_555
C8E H5E 1_555 1_555
H6E C8E 1_555 1_555
C9E C9P 1_555 1_555
O1E C7E 1_555 1_555
O2E C7E 1_555 1_555
O4E C3E 1_555 1_555
C1L C2L 1_555 1_555
C2L H1L 1_555 1_555
C3L C2L 1_555 1_555
C4L C3L 1_555 1_555
H2L C4L 1_555 1_555
C5L C4L 1_555 1_555
H3L C5L 1_555 1_555
C6L C1L 1_555 1_555
H4L C6L 1_555 1_555
C7L C1L 1_555 1_555
C8L H5L 1_555 1_555
H6L C8L 1_555 1_555
C9L C9D 1_555 1_555
O1L C7L 1_555 1_555
O2L C7L 1_555 1_555
O4L C3L 1_555 1_555
Zn1A O2E 1_555 1_555
O3A Zn1A 1_555 1_555
Zn1B O2D 1_555 1_555
Zn1L O2L 1_555 1_555
Zn1M O2Q 1_555 1_555
Zn1N O2P 1_555 1_555
Zn2_2 O1L 1_555 1_555
Zn2A O1E 1_555 1_555
Zn2A_2 O1Q 1_555 1_555
Zn2B O1D 1_555 1_555
Zn2B_2 O1P 1_555 1_555
O1H Zn2 1_555 1_555
O1I Zn2 1_555 1_555
O1L_2 Zn2 1_555 1_555
O1T Zn2 1_555 1_555
O1U Zn2 1_555 1_555
O2A Zn1A 1_555 1_555
O2H Zn1 1_555 1_555
O2I Zn1 1_555 1_555
O2J Zn1A 1_555 1_555
C5 C6 1_555 1_555
C8 O4 1_555 1_555
C5P C6P 1_555 1_555
C8P C9P 1_555 1_555
C8P O4P 1_555 1_555
C5Q C6Q 1_555 1_555
C8Q C9Q 1_555 1_555
C8Q O4Q 1_555 1_555
C5D C6D 1_555 1_555
C8D C9D 1_555 1_555
C8D O4D 1_555 1_555
C5E C6E 1_555 1_555
C8E C9E 1_555 1_555
C8E O4E 1_555 1_555
C9E C9L 1_555 1_555
C5L C6L 1_555 1_555
C8L C9L 1_555 1_555
C8L O4L 1_555 1_555

#END
