
#######################################################################
#
#                 Cambridge Crystallographic Data Centre
#                                CCDC 
#
#######################################################################
#
# If this CIF has been generated from an entry in the Cambridge 
# Structural Database, then it will include bibliographic, chemical, 
# crystal, experimental, refinement or atomic coordinate data resulting 
# from the CCDC's data processing and validation procedures.
#
#######################################################################

data_AFOTUL
_symmetry_cell_setting           monoclinic
_symmetry_space_group_name_H-M   'C 2'
_symmetry_Int_Tables_number      5
_space_group_name_Hall           'C 2y'
loop_
_symmetry_equiv_pos_site_id
_symmetry_equiv_pos_as_xyz
1 x,y,z
2 -x,y,-z
3 1/2+x,1/2+y,z
4 1/2-x,1/2+y,-z
_cell_length_a                   29.007(6)
_cell_length_b                   8.6876(17)
_cell_length_c                   14.166(3)
_cell_angle_alpha                90
_cell_angle_beta                 116.276(3)
_cell_angle_gamma                90
_cell_volume                     3200.98
loop_
_atom_site_label
_atom_site_type_symbol
_atom_site_fract_x
_atom_site_fract_y
_atom_site_fract_z
Sm1 Sm 0.227164(13) 0.73218(15) -0.00549(2)
C1 C 0.2135(4) 0.4114(14) 0.1290(8)
C2 C 0.2056(4) 0.4109(13) 0.2272(8)
C3 C 0.1795(5) 0.5274(14) 0.2470(8)
H1 H 0.1647 0.6054 0.1978
C4 C 0.1749(5) 0.5299(14) 0.3420(8)
H2 H 0.1574 0.6106 0.3549
C5 C 0.1960(5) 0.4139(15) 0.4168(8)
C6 C 0.2198(6) 0.2932(18) 0.3934(11)
H3 H 0.2332 0.2129 0.4413
C7 C 0.2243(7) 0.2886(18) 0.2985(11)
H4 H 0.2396 0.2045 0.2832
C8 C 0.1936(5) 0.4239(15) 0.5210(8)
C9 C 0.1549(5) 0.5074(16) 0.5297(8)
H5 H 0.1278 0.5466 0.4696
C10 C 0.1563(5) 0.5332(17) 0.6300(8)
H6 H 0.1312 0.5931 0.6365
C11 C 0.1957(4) 0.4675(13) 0.7181(7)
C12 C 0.2317(6) 0.3748(16) 0.7061(9)
H7 H 0.2561 0.3235 0.7645
C13 C 0.2324(6) 0.3562(18) 0.6090(10)
H8 H 0.2582 0.2997 0.6034
C14 C 0.2001(4) 0.5125(12) 0.8264(8)
C15 C 0.3335(4) 0.5554(13) 0.1648(8)
C16 C 0.3828(4) 0.5579(14) 0.2650(8)
C17 C 0.4047(6) 0.6936(15) 0.3114(11)
H9 H 0.3887 0.7861 0.2816
C18 C 0.4507(6) 0.6951(19) 0.4030(12)
H10 H 0.4650 0.7889 0.4334
C19 C 0.4759(5) 0.5588(16) 0.4505(10)
C20 C 0.4539(6) 0.4270(16) 0.3998(13)
H11 H 0.4701 0.3341 0.4279
C21 C 0.4082(6) 0.4243(14) 0.3074(11)
H12 H 0.3950 0.3310 0.2744
C22 C 0.1464(6) 0.9563(15) 0.0477(14)
H13 H 0.1703 1.0352 0.0638
O1 O 0.2078(4) 0.5349(11) 0.0836(7)
O2 O 0.2237(3) 0.2873(9) 0.0986(6)
O3 O 0.2402(3) 0.4682(10) 0.9073(6)
O4 O 0.1682(3) 0.6015(9) 0.8309(6)
O5 O 0.3113(3) 0.6807(9) 0.1295(6)
O6 O 0.3189(3) 0.4264(12) 0.1242(7)
O7 O 0.1600(4) 0.8223(12) 0.0406(9)
O8 O 0.1000(6) 0.9901(19) 0.0333(14)
H14 H 0.0803 0.9904 -0.0301
Sm1C Sm 0.272836(13) 1.23218(15) 0.00549(2)
Sm1C_2 Sm 0.272836(13) 0.23218(15) 0.00549(2)
Sm1_2 Sm 0.227164(13) 0.73218(15) 0.99451(2)
Sm1C_3 Sm 0.272836(13) 0.23218(15) 1.00549(2)
Sm1A Sm 0.772836(13) 0.73218(15) 1.00549(2)
Sm1B Sm 0.727164(13) 0.23218(15) 0.99451(2)
Sm1_3 Sm 0.227164(13) 0.73218(15) -1.00549(2)
Sm1C_4 Sm 0.272836(13) 1.23218(15) -0.99451(2)
C1C C 0.2865(4) 0.9114(14) -0.1290(8)
C2C C 0.2944(4) 0.9109(13) -0.2272(8)
C3C C 0.3205(5) 1.0274(14) -0.2470(8)
H1C H 0.3353 1.1054 -0.1978
C4C C 0.3251(5) 1.0299(14) -0.3420(8)
H2C H 0.3426 1.1106 -0.3549
C5C C 0.3040(5) 0.9139(15) -0.4168(8)
C6C C 0.2802(6) 0.7932(18) -0.3934(11)
H3C H 0.2668 0.7129 -0.4413
C7C C 0.2757(7) 0.7886(18) -0.2985(11)
H4C H 0.2604 0.7045 -0.2832
C8C C 0.3064(5) 0.9239(15) -0.5210(8)
C9C C 0.3451(5) 1.0074(16) -0.5297(8)
H5C H 0.3722 1.0466 -0.4696
C10C C 0.3437(5) 1.0332(17) -0.6300(8)
H6C H 0.3688 1.0931 -0.6365
C11C C 0.3043(4) 0.9675(13) -0.7181(7)
C12C C 0.2683(6) 0.8748(16) -0.7061(9)
H7C H 0.2439 0.8235 -0.7645
C13C C 0.2676(6) 0.8562(18) -0.6090(10)
H8C H 0.2418 0.7997 -0.6034
C14C C 0.2999(4) 1.0125(12) -0.8264(8)
C15A C 0.6665(4) 0.5554(13) 0.8352(8)
C16A C 0.6172(4) 0.5579(14) 0.7350(8)
C17A C 0.5953(6) 0.6936(15) 0.6886(11)
H9A H 0.6113 0.7861 0.7184
C18A C 0.5493(6) 0.6951(19) 0.5970(12)
H10A H 0.5350 0.7889 0.5666
C19A C 0.5241(5) 0.5588(16) 0.5495(10)
C20A C 0.5461(6) 0.4270(16) 0.6002(13)
H11A H 0.5299 0.3341 0.5721
C21A C 0.5918(6) 0.4243(14) 0.6926(11)
H12A H 0.6050 0.3310 0.7256
C22C C 0.3536(6) 1.4563(15) -0.0477(14)
H13C H 0.3297 1.5352 -0.0638
O1C O 0.2922(4) 1.0349(11) -0.0836(7)
O2C O 0.2763(3) 0.7873(9) -0.0986(6)
O2_2 O 0.2237(3) 1.2873(9) 0.0986(6)
O3C O 0.2598(3) 0.9682(10) -0.9073(6)
O3_2 O 0.2402(3) 0.4682(10) -0.0927(6)
O3C_2 O 0.2598(3) 0.9682(10) 0.0927(6)
O3_3 O 0.2402(3) 1.4682(10) -0.0927(6)
O4C O 0.3318(3) 1.1015(9) -0.8309(6)
O4_2 O 0.1682(3) 0.6015(9) -0.1691(6)
O4C_2 O 0.3318(3) 1.1015(9) 0.1691(6)
O5A O 0.6887(3) 0.6807(9) 0.8705(6)
O5C O 0.1887(3) 1.1807(9) -0.1295(6)
O6A O 0.6811(3) 0.4264(12) 0.8758(7)
O6C O 0.1811(3) 0.9264(12) -0.1242(7)
O6_2 O 0.3189(3) 1.4264(12) 0.1242(7)
O7C O 0.3400(4) 1.3223(12) -0.0406(9)
O8C O 0.4000(6) 1.4901(19) -0.0333(14)
H14C H 0.4197 1.4904 0.0301
loop_
_geom_bond_atom_site_label_1
_geom_bond_atom_site_label_2
_geom_bond_site_symmetry_1
_geom_bond_site_symmetry_2
Sm1 O1 1_555 1_555
C1 C2 1_555 1_555
C2 C3 1_555 1_555
C3 H1 1_555 1_555
C4 C3 1_555 1_555
H2 C4 1_555 1_555
C5 C4 1_555 1_555
C6 C5 1_555 1_555
H3 C6 1_555 1_555
C7 C2 1_555 1_555
H4 C7 1_555 1_555
C8 C5 1_555 1_555
C9 C8 1_555 1_555
H5 C9 1_555 1_555
C10 C9 1_555 1_555
H6 C10 1_555 1_555
C11 C10 1_555 1_555
C12 C11 1_555 1_555
H7 C12 1_555 1_555
C13 C8 1_555 1_555
H8 C13 1_555 1_555
C14 C11 1_555 1_555
C15 C16 1_555 1_555
C16 C17 1_555 1_555
C17 H9 1_555 1_555
C18 C17 1_555 1_555
H10 C18 1_555 1_555
C19 C18 1_555 1_555
C20 C19 1_555 1_555
H11 C20 1_555 1_555
C21 C16 1_555 1_555
H12 C21 1_555 1_555
C22 H13 1_555 1_555
O1 C1 1_555 1_555
O2 C1 1_555 1_555
O3 C14 1_555 1_555
O4 C14 1_555 1_555
O5 Sm1 1_555 1_555
O6 C15 1_555 1_555
O7 Sm1 1_555 1_555
O8 C22 1_555 1_555
H14 O8 1_555 1_555
Sm1C O1C 1_555 1_555
Sm1C_2 O2 1_555 1_555
Sm1_2 O3 1_555 1_555
Sm1C_3 O3 1_555 1_555
Sm1A O5A 1_555 1_555
Sm1B O6A 1_555 1_555
Sm1_3 O3C 1_555 1_555
Sm1C_4 O3C 1_555 1_555
C1C C2C 1_555 1_555
C2C C3C 1_555 1_555
C3C H1C 1_555 1_555
C4C C3C 1_555 1_555
H2C C4C 1_555 1_555
C5C C4C 1_555 1_555
C6C C5C 1_555 1_555
H3C C6C 1_555 1_555
C7C C2C 1_555 1_555
H4C C7C 1_555 1_555
C8C C5C 1_555 1_555
C9C C8C 1_555 1_555
H5C C9C 1_555 1_555
C10C C9C 1_555 1_555
H6C C10C 1_555 1_555
C11C C10C 1_555 1_555
C12C C11C 1_555 1_555
H7C C12C 1_555 1_555
C13C C8C 1_555 1_555
H8C C13C 1_555 1_555
C14C C11C 1_555 1_555
C15A C16A 1_555 1_555
C16A C17A 1_555 1_555
C17A H9A 1_555 1_555
C18A C17A 1_555 1_555
H10A C18A 1_555 1_555
C19A C19 1_555 1_555
C20A C19A 1_555 1_555
H11A C20A 1_555 1_555
C21A C16A 1_555 1_555
H12A C21A 1_555 1_555
C22C H13C 1_555 1_555
O1C C1C 1_555 1_555
O2C Sm1 1_555 1_555
O2_2 Sm1C 1_555 1_555
O3C C14C 1_555 1_555
O3_2 Sm1 1_555 1_555
O3C_2 Sm1 1_555 1_555
O3_3 Sm1C 1_555 1_555
O4C Sm1C_4 1_555 1_555
O4_2 Sm1 1_555 1_555
O4C_2 Sm1C 1_555 1_555
O5A C15A 1_555 1_555
O5C Sm1C 1_555 1_555
O6A C15A 1_555 1_555
O6C Sm1 1_555 1_555
O6_2 Sm1C 1_555 1_555
O7C Sm1C 1_555 1_555
O8C C22C 1_555 1_555
H14C O8C 1_555 1_555
C6 C7 1_555 1_555
C12 C13 1_555 1_555
C15 O5 1_555 1_555
C20 C21 1_555 1_555
C22 O7 1_555 1_555
O4 Sm1_2 1_555 1_555
O6 Sm1C_2 1_555 1_555
Sm1C O3C_2 1_555 1_555
Sm1C_2 O3_2 1_555 1_555
C1C O2C 1_555 1_555
C6C C7C 1_555 1_555
C12C C13C 1_555 1_555
C14C O4C 1_555 1_555
C18A C19A 1_555 1_555
C20A C21A 1_555 1_555
C22C O7C 1_555 1_555

#END
