
#######################################################################
#
#                 Cambridge Crystallographic Data Centre
#                                CCDC 
#
#######################################################################
#
# If this CIF has been generated from an entry in the Cambridge 
# Structural Database, then it will include bibliographic, chemical, 
# crystal, experimental, refinement or atomic coordinate data resulting 
# from the CCDC's data processing and validation procedures.
#
#######################################################################

data_AFOVOH
_symmetry_cell_setting           monoclinic
_symmetry_space_group_name_H-M   'C 2'
_symmetry_Int_Tables_number      5
_space_group_name_Hall           'C 2y'
loop_
_symmetry_equiv_pos_site_id
_symmetry_equiv_pos_as_xyz
1 x,y,z
2 -x,y,-z
3 1/2+x,1/2+y,z
4 1/2-x,1/2+y,-z
_cell_length_a                   28.769(12)
_cell_length_b                   8.723(3)
_cell_length_c                   14.179(6)
_cell_angle_alpha                90
_cell_angle_beta                 116.028(11)
_cell_angle_gamma                90
_cell_volume                     3197.37
loop_
_atom_site_label
_atom_site_type_symbol
_atom_site_fract_x
_atom_site_fract_y
_atom_site_fract_z
Nd1 Nd 0.226907(16) 1.13108(15) -0.00504(3)
C1 C 0.2126(5) 0.8103(14) 0.1318(10)
C2 C 0.2057(5) 0.8082(14) 0.2302(9)
C3 C 0.1812(5) 0.9309(15) 0.2508(10)
H1 H 0.1683 1.0114 0.2033
C4 C 0.1761(5) 0.9315(15) 0.3453(10)
H2 H 0.1586 1.0119 0.3584
C5 C 0.1966(6) 0.8156(17) 0.4194(11)
C6 C 0.2188(6) 0.6921(17) 0.3944(12)
H3 H 0.2314 0.6108 0.4413
C7 C 0.2230(6) 0.6867(17) 0.2987(12)
H4 H 0.2373 0.6013 0.2821
C8 C 0.1940(5) 0.8234(15) 0.5214(10)
C9 C 0.1542(5) 0.9077(15) 0.5298(10)
H5 H 0.1271 0.9476 0.4701
C10 C 0.1558(5) 0.9307(15) 0.6296(10)
H6 H 0.1302 0.9886 0.6362
C11 C 0.1952(5) 0.8673(15) 0.7176(10)
C12 C 0.2320(5) 0.7758(16) 0.7058(11)
H7 H 0.2566 0.7251 0.7640
C13 C 0.2327(6) 0.7589(16) 0.6119(11)
H8 H 0.2593 0.7035 0.6075
C14 C 0.1988(4) 0.9104(13) 0.8245(9)
C15 C 0.3346(5) 0.9511(14) 0.1667(10)
C16 C 0.3820(5) 0.9548(16) 0.2648(11)
C17 C 0.4039(6) 1.0886(17) 0.3140(13)
H9 H 0.3874 1.1802 0.2846
C18 C 0.4495(7) 1.095(2) 0.4055(15)
H10 H 0.4632 1.1888 0.4357
C19 C 0.4757(6) 0.955(2) 0.4539(14)
C20 C 0.4554(6) 0.8216(19) 0.3953(14)
H11 H 0.4744 0.7312 0.4151
C21 C 0.4082(6) 0.8210(18) 0.3094(13)
H12 H 0.3932 0.7276 0.2803
C22 C 0.1473(6) 1.3548(16) 0.0528(15)
H13 H 0.1733 1.4284 0.0793
O1 O 0.2072(4) 0.9311(11) 0.0846(8)
O2 O 0.2244(4) 0.6824(10) 0.1015(7)
O3 O 0.2392(3) 0.8668(10) 0.9042(6)
O4 O 0.1673(3) 1.0000(10) 0.8301(7)
O5 O 0.3124(4) 1.0785(10) 0.1289(8)
O6 O 0.3192(4) 0.8266(11) 0.1237(8)
O7 O 0.1594(5) 1.2211(13) 0.0428(10)
O8 O 0.0999(6) 1.396(2) 0.0275(14)
H14 H 0.0839 1.3340 0.0490
Nd1C Nd 0.273093(16) 1.63108(15) 0.00504(3)
Nd1C_2 Nd 0.273093(16) 0.63108(15) 0.00504(3)
Nd1_2 Nd 0.226907(16) 1.13108(15) 0.99496(3)
Nd1C_3 Nd 0.273093(16) 0.63108(15) 1.00504(3)
Nd1A Nd 0.773093(16) 1.13108(15) 1.00504(3)
Nd1B Nd 0.726907(16) 0.63108(15) 0.99496(3)
Nd1_3 Nd 0.226907(16) 1.13108(15) -1.00504(3)
Nd1C_4 Nd 0.273093(16) 1.63108(15) -0.99496(3)
C1C C 0.2874(5) 1.3103(14) -0.1318(10)
C2C C 0.2943(5) 1.3082(14) -0.2302(9)
C3C C 0.3188(5) 1.4309(15) -0.2508(10)
H1C H 0.3317 1.5114 -0.2033
C4C C 0.3239(5) 1.4315(15) -0.3453(10)
H2C H 0.3414 1.5119 -0.3584
C5C C 0.3034(6) 1.3156(17) -0.4194(11)
C6C C 0.2812(6) 1.1921(17) -0.3944(12)
H3C H 0.2686 1.1108 -0.4413
C7C C 0.2770(6) 1.1867(17) -0.2987(12)
H4C H 0.2627 1.1013 -0.2821
C8C C 0.3060(5) 1.3234(15) -0.5214(10)
C9C C 0.3458(5) 1.4077(15) -0.5298(10)
H5C H 0.3729 1.4476 -0.4701
C10C C 0.3442(5) 1.4307(15) -0.6296(10)
H6C H 0.3698 1.4886 -0.6362
C11C C 0.3048(5) 1.3673(15) -0.7176(10)
C12C C 0.2680(5) 1.2758(16) -0.7058(11)
H7C H 0.2434 1.2251 -0.7640
C13C C 0.2673(6) 1.2589(16) -0.6119(11)
H8C H 0.2407 1.2035 -0.6075
C14C C 0.3012(4) 1.4104(13) -0.8245(9)
C15A C 0.6654(5) 0.9511(14) 0.8333(10)
C16A C 0.6180(5) 0.9548(16) 0.7352(11)
C17A C 0.5961(6) 1.0886(17) 0.6860(13)
H9A H 0.6126 1.1802 0.7154
C18A C 0.5505(7) 1.095(2) 0.5945(15)
H10A H 0.5368 1.1888 0.5643
C19A C 0.5243(6) 0.955(2) 0.5461(14)
C20A C 0.5446(6) 0.8216(19) 0.6047(14)
H11A H 0.5256 0.7312 0.5849
C21A C 0.5918(6) 0.8210(18) 0.6906(13)
H12A H 0.6068 0.7276 0.7197
C22C C 0.3527(6) 1.8548(16) -0.0528(15)
H13C H 0.3267 1.9284 -0.0793
O1C O 0.2928(4) 1.4311(11) -0.0846(8)
O2C O 0.2756(4) 1.1824(10) -0.1015(7)
O2_2 O 0.2244(4) 1.6824(10) 0.1015(7)
O3C O 0.2608(3) 1.3668(10) -0.9042(6)
O3_2 O 0.2392(3) 0.8668(10) -0.0958(6)
O3C_2 O 0.2608(3) 1.3668(10) 0.0958(6)
O3_3 O 0.2392(3) 1.8668(10) -0.0958(6)
O4C O 0.3327(3) 1.5000(10) -0.8301(7)
O4_2 O 0.1673(3) 1.0000(10) -0.1699(7)
O4C_2 O 0.3327(3) 1.5000(10) 0.1699(7)
O5A O 0.6876(4) 1.0785(10) 0.8711(8)
O5C O 0.1876(4) 1.5785(10) -0.1289(8)
O6A O 0.6808(4) 0.8266(11) 0.8763(8)
O6C O 0.1808(4) 1.3266(11) -0.1237(8)
O6_2 O 0.3192(4) 1.8266(11) 0.1237(8)
O7C O 0.3406(5) 1.7211(13) -0.0428(10)
O8C O 0.4001(6) 1.896(2) -0.0275(14)
H14C H 0.4161 1.8340 -0.0490
loop_
_geom_bond_atom_site_label_1
_geom_bond_atom_site_label_2
_geom_bond_site_symmetry_1
_geom_bond_site_symmetry_2
Nd1 O1 1_555 1_555
C1 C2 1_555 1_555
C2 C3 1_555 1_555
C3 H1 1_555 1_555
C4 C3 1_555 1_555
H2 C4 1_555 1_555
C5 C4 1_555 1_555
C6 C5 1_555 1_555
H3 C6 1_555 1_555
C7 C2 1_555 1_555
H4 C7 1_555 1_555
C8 C5 1_555 1_555
C9 C8 1_555 1_555
H5 C9 1_555 1_555
C10 C9 1_555 1_555
H6 C10 1_555 1_555
C11 C10 1_555 1_555
C12 C11 1_555 1_555
H7 C12 1_555 1_555
C13 C8 1_555 1_555
H8 C13 1_555 1_555
C14 C11 1_555 1_555
C15 C16 1_555 1_555
C16 C17 1_555 1_555
C17 H9 1_555 1_555
C18 C17 1_555 1_555
H10 C18 1_555 1_555
C19 C18 1_555 1_555
C20 C19 1_555 1_555
H11 C20 1_555 1_555
C21 C16 1_555 1_555
H12 C21 1_555 1_555
C22 H13 1_555 1_555
O1 C1 1_555 1_555
O2 C1 1_555 1_555
O3 C14 1_555 1_555
O4 C14 1_555 1_555
O5 Nd1 1_555 1_555
O6 C15 1_555 1_555
O7 Nd1 1_555 1_555
O8 C22 1_555 1_555
H14 O8 1_555 1_555
Nd1C O1C 1_555 1_555
Nd1C_2 O2 1_555 1_555
Nd1_2 O3 1_555 1_555
Nd1C_3 O3 1_555 1_555
Nd1A O5A 1_555 1_555
Nd1B O6A 1_555 1_555
Nd1_3 O3C 1_555 1_555
Nd1C_4 O3C 1_555 1_555
C1C C2C 1_555 1_555
C2C C3C 1_555 1_555
C3C H1C 1_555 1_555
C4C C3C 1_555 1_555
H2C C4C 1_555 1_555
C5C C4C 1_555 1_555
C6C C5C 1_555 1_555
H3C C6C 1_555 1_555
C7C C2C 1_555 1_555
H4C C7C 1_555 1_555
C8C C5C 1_555 1_555
C9C C8C 1_555 1_555
H5C C9C 1_555 1_555
C10C C9C 1_555 1_555
H6C C10C 1_555 1_555
C11C C10C 1_555 1_555
C12C C11C 1_555 1_555
H7C C12C 1_555 1_555
C13C C8C 1_555 1_555
H8C C13C 1_555 1_555
C14C C11C 1_555 1_555
C15A C16A 1_555 1_555
C16A C17A 1_555 1_555
C17A H9A 1_555 1_555
C18A C17A 1_555 1_555
H10A C18A 1_555 1_555
C19A C19 1_555 1_555
C20A C19A 1_555 1_555
H11A C20A 1_555 1_555
C21A C16A 1_555 1_555
H12A C21A 1_555 1_555
C22C H13C 1_555 1_555
O1C C1C 1_555 1_555
O2C Nd1 1_555 1_555
O2_2 Nd1C 1_555 1_555
O3C C14C 1_555 1_555
O3_2 Nd1 1_555 1_555
O3C_2 Nd1 1_555 1_555
O3_3 Nd1C 1_555 1_555
O4C Nd1C_4 1_555 1_555
O4_2 Nd1 1_555 1_555
O4C_2 Nd1C 1_555 1_555
O5A C15A 1_555 1_555
O5C Nd1C 1_555 1_555
O6A C15A 1_555 1_555
O6C Nd1 1_555 1_555
O6_2 Nd1C 1_555 1_555
O7C Nd1C 1_555 1_555
O8C C22C 1_555 1_555
H14C O8C 1_555 1_555
C6 C7 1_555 1_555
C12 C13 1_555 1_555
C15 O5 1_555 1_555
C20 C21 1_555 1_555
C22 O7 1_555 1_555
O4 Nd1_2 1_555 1_555
O6 Nd1C_2 1_555 1_555
Nd1C O3C_2 1_555 1_555
Nd1C_2 O3_2 1_555 1_555
C1C O2C 1_555 1_555
C6C C7C 1_555 1_555
C12C C13C 1_555 1_555
C14C O4C 1_555 1_555
C18A C19A 1_555 1_555
C20A C21A 1_555 1_555
C22C O7C 1_555 1_555

#END
