
#######################################################################
#
#                 Cambridge Crystallographic Data Centre
#                                CCDC 
#
#######################################################################
#
# If this CIF has been generated from an entry in the Cambridge 
# Structural Database, then it will include bibliographic, chemical, 
# crystal, experimental, refinement or atomic coordinate data resulting 
# from the CCDC's data processing and validation procedures.
#
#######################################################################

data_AFUKAP
_symmetry_cell_setting           monoclinic
_symmetry_space_group_name_H-M   'C 2/c'
_symmetry_Int_Tables_number      15
_space_group_name_Hall           '-C 2yn'
loop_
_symmetry_equiv_pos_site_id
_symmetry_equiv_pos_as_xyz
1 x,y,z
2 -x,y,1/2-z
3 1/2+x,1/2+y,z
4 1/2-x,1/2+y,1/2-z
5 -x,-y,-z
6 x,-y,1/2+z
7 1/2-x,1/2-y,-z
8 1/2+x,1/2-y,1/2+z
_cell_length_a                   29.960(7)
_cell_length_b                   20.191(5)
_cell_length_c                   16.386(4)
_cell_angle_alpha                90
_cell_angle_beta                 110.129(4)
_cell_angle_gamma                90
_cell_volume                     9306.82
loop_
_atom_site_label
_atom_site_type_symbol
_atom_site_fract_x
_atom_site_fract_y
_atom_site_fract_z
Mn1 Mn 0.7500 0.2500 1.0000
Mn2 Mn 0.76663(3) 0.08717(4) 1.04034(6)
N1 N 0.7632(2) -0.0140(3) 1.0797(4)
N2 N 0.7559(2) -0.1228(3) 1.0697(4)
O1 O 1.0000 0.3203(3) 0.7500
O2 O 0.98073(16) 0.2884(3) 0.9397(4)
O3 O 1.09240(16) 0.3040(2) 1.0496(3)
O4 O 1.12066(16) 0.3275(2) 0.8741(3)
O5 O 0.83277(19) 0.0928(3) 1.0133(4)
O6 O 0.81261(13) 0.1861(2) 1.0564(3)
O7 O 1.21843(17) 0.3441(2) 1.4421(3)
O8 O 1.2209(2) 0.4454(3) 1.3997(3)
O9 O 1.22870(15) 0.2732(2) 0.6078(3)
O10 O 1.24279(16) 0.3804(2) 0.6383(3)
C1 C 1.04737(19) 0.3109(3) 0.8984(4)
C2 C 1.0146(2) 0.2564(3) 0.9108(4)
H1 H 1.0326 0.2251 0.9536
H2 H 0.9994 0.2335 0.8570
C3 C 1.0690(2) 0.3495(3) 0.9827(4)
H3 H 1.0443 0.3719 0.9969
H4 H 1.0909 0.3820 0.9759
C4 C 1.0881(2) 0.2765(4) 0.8743(4)
H5 H 1.0754 0.2561 0.8181
H6 H 1.1031 0.2431 0.9165
C5 C 1.0208(2) 0.3571(3) 0.8261(4)
H7 H 1.0420 0.3896 0.8168
H8 H 0.9964 0.3796 0.8409
C6 C 0.9480(2) 0.2505(4) 0.9593(5)
C7 C 0.9419(3) 0.1840(4) 0.9446(6)
H9 H 0.9603 0.1605 0.9190
C8 C 0.9063(2) 0.1516(4) 0.9697(5)
H10 H 0.9020 0.1061 0.9617
C9 C 0.8779(2) 0.1868(4) 1.0057(4)
C10 C 0.8857(2) 0.2542(4) 1.0200(5)
H11 H 0.8667 0.2786 1.0435
C11 C 0.9204(3) 0.2841(4) 0.9999(6)
H12 H 0.9264 0.3287 1.0133
C12 C 0.8397(2) 0.1531(4) 1.0266(4)
C13 C 1.1187(2) 0.3279(3) 1.1284(4)
C14 C 1.1415(3) 0.2789(4) 1.1911(4)
H13 H 1.1381 0.2341 1.1774
C15 C 1.1685(2) 0.3002(4) 1.2723(4)
H14 H 1.1826 0.2687 1.3147
C16 C 1.1757(2) 0.3656(3) 1.2938(4)
C17 C 1.1547(3) 0.4120(4) 1.2327(4)
H15 H 1.1601 0.4566 1.2463
C18 C 1.1248(3) 0.3931(4) 1.1482(4)
H16 H 1.1095 0.4250 1.1071
C19 C 1.2064(2) 0.3851(4) 1.3829(4)
C20 C 1.1480(2) 0.3210(3) 0.8214(4)
C21 C 1.1504(2) 0.2643(3) 0.7773(4)
H17 H 1.1350 0.2258 0.7842
C22 C 1.1772(2) 0.2663(3) 0.7208(4)
H18 H 1.1787 0.2287 0.6889
C23 C 1.2005(2) 0.3219(3) 0.7124(4)
C24 C 1.2001(2) 0.3769(4) 0.7631(4)
H19 H 1.2180 0.4142 0.7614
C25 C 1.1726(2) 0.3758(3) 0.8167(4)
H20 H 1.1713 0.4129 0.8493
C26 C 1.2266(2) 0.3252(3) 0.6491(4)
C27 C 0.7571(4) -0.0387(3) 1.1542(6)
H21 H 0.7549 -0.0118 1.2010
C28 C 0.7520(4) -0.1038(4) 1.1478(5)
H22 H 0.7467 -0.1318 1.1886
C29 C 0.7614(2) -0.0681(3) 1.0301(4)
H23 H 0.7637 -0.0669 0.9750
C30 C 0.7526(2) -0.1878(3) 1.0341(4)
C31 C 0.7234(3) -0.2328(3) 1.0492(5)
H24 H 0.7055 -0.2216 1.0837
C32 C 0.7196(3) -0.2954(3) 1.0141(5)
H25 H 0.6972 -0.3216 1.0301
N1F N 0.7368(2) -0.4860(3) 0.9203(4)
N2F N 0.7441(2) -0.3772(3) 0.9303(4)
C27F C 0.7429(4) -0.4613(3) 0.8458(6)
H21F H 0.7451 -0.4882 0.7990
C28F C 0.7480(4) -0.3962(4) 0.8522(5)
H22F H 0.7533 -0.3682 0.8114
C29F C 0.7386(2) -0.4319(3) 0.9699(4)
H23F H 0.7363 -0.4331 1.0250
C30F C 0.7474(2) -0.3122(3) 0.9659(4)
C31F C 0.7766(3) -0.2672(3) 0.9508(5)
H24F H 0.7945 -0.2784 0.9163
C32F C 0.7804(3) -0.2046(3) 0.9859(5)
H25F H 0.8028 -0.1784 0.9699
O2A O 1.01927(16) 0.2884(3) 0.5603(4)
O3A O 0.90760(16) 0.3040(2) 0.4504(3)
O4A O 0.87934(16) 0.3275(2) 0.6259(3)
O5A O 1.16723(19) 0.0928(3) 0.4867(4)
O6A O 1.18739(13) 0.1861(2) 0.4436(3)
O7A O 0.78157(17) 0.3441(2) 0.0579(3)
O8A O 0.7791(2) 0.4454(3) 0.1003(3)
O9A O 0.77130(15) 0.2732(2) 0.8922(3)
O10A O 0.75721(16) 0.3804(2) 0.8617(3)
C1A C 0.95263(19) 0.3109(3) 0.6016(4)
C2A C 0.9854(2) 0.2564(3) 0.5892(4)
H1A H 0.9674 0.2251 0.5464
H2A H 1.0006 0.2335 0.6430
C3A C 0.9310(2) 0.3495(3) 0.5173(4)
H3A H 0.9557 0.3719 0.5031
H4A H 0.9091 0.3820 0.5241
C4A C 0.9119(2) 0.2765(4) 0.6257(4)
H5A H 0.9246 0.2561 0.6819
H6A H 0.8969 0.2431 0.5835
C5A C 0.9792(2) 0.3571(3) 0.6739(4)
H7A H 0.9580 0.3896 0.6832
H8A H 1.0036 0.3796 0.6591
C6A C 1.0520(2) 0.2505(4) 0.5407(5)
C7A C 1.0581(3) 0.1840(4) 0.5554(6)
H9A H 1.0397 0.1605 0.5810
C8A C 1.0937(2) 0.1516(4) 0.5303(5)
H10A H 1.0980 0.1061 0.5383
C9A C 1.1221(2) 0.1868(4) 0.4943(4)
C10A C 1.1143(2) 0.2542(4) 0.4800(5)
H11A H 1.1333 0.2786 0.4565
C11A C 1.0796(3) 0.2841(4) 0.5001(6)
H12A H 1.0736 0.3287 0.4867
C12A C 1.1603(2) 0.1531(4) 0.4734(4)
C13A C 0.8813(2) 0.3279(3) 0.3716(4)
C14A C 0.8585(3) 0.2789(4) 0.3089(4)
H13A H 0.8619 0.2341 0.3226
C15A C 0.8315(2) 0.3002(4) 0.2277(4)
H14A H 0.8174 0.2687 0.1853
C16A C 0.8243(2) 0.3656(3) 0.2062(4)
C17A C 0.8453(3) 0.4120(4) 0.2673(4)
H15A H 0.8399 0.4566 0.2537
C18A C 0.8752(3) 0.3931(4) 0.3518(4)
H16A H 0.8905 0.4250 0.3929
C19A C 0.7936(2) 0.3851(4) 0.1171(4)
C20A C 0.8520(2) 0.3210(3) 0.6786(4)
C21A C 0.8496(2) 0.2643(3) 0.7227(4)
H17A H 0.8650 0.2258 0.7158
C22A C 0.8228(2) 0.2663(3) 0.7792(4)
H18A H 0.8213 0.2287 0.8111
C23A C 0.7995(2) 0.3219(3) 0.7876(4)
C24A C 0.7999(2) 0.3769(4) 0.7369(4)
H19A H 0.7820 0.4142 0.7386
C25A C 0.8274(2) 0.3758(3) 0.6833(4)
H20A H 0.8287 0.4129 0.6507
C26A C 0.7734(2) 0.3252(3) 0.8509(4)
Mn2A Mn 1.23337(3) 0.08717(4) 0.45966(6)
Mn1_2 Mn 0.7500 0.2500 0.0000
Mn1A Mn 1.2500 0.2500 0.5000
Mn1A_2 Mn 1.2500 0.2500 1.5000
Mn2F Mn 0.73337(3) -0.58717(4) 0.95966(6)
Mn2F_2 Mn 0.73337(3) 0.41283(4) -0.04034(6)
Mn2F_3 Mn 0.73337(3) 0.41283(4) 0.95966(6)
Mn2G Mn 1.26663(3) 0.41283(4) 0.54034(6)
Mn2G_2 Mn 1.26663(3) 0.41283(4) 1.54034(6)
N1A N 1.2368(2) -0.0140(3) 0.4203(4)
O6F O 0.68739(13) 0.3139(2) 0.9436(3)
O7A_2 O 0.78157(17) 0.3441(2) 1.0579(3)
O7F O 1.28157(17) 0.1559(2) 0.5579(3)
O7G O 0.71843(17) 0.1559(2) 0.9421(3)
O8F O 1.2791(2) 0.0546(3) 0.6003(3)
O8G O 0.7209(2) 0.0546(3) 0.8997(3)
O9G O 0.72870(15) 0.2268(2) 1.1078(3)
O10F O 1.25721(16) 0.1196(2) 0.3617(3)
O10G O 0.74279(16) 0.1196(2) 1.1383(3)
loop_
_geom_bond_atom_site_label_1
_geom_bond_atom_site_label_2
_geom_bond_site_symmetry_1
_geom_bond_site_symmetry_2
Mn1 O6 1_555 1_555
Mn2 N1 1_555 1_555
N1 C27 1_555 1_555
N2 C28 1_555 1_555
O1 C5 1_555 1_555
O2 C2 1_555 1_555
O3 C3 1_555 1_555
O4 C4 1_555 1_555
O5 Mn2 1_555 1_555
O6 Mn2 1_555 1_555
O7 C19 1_555 1_555
O8 C19 1_555 1_555
O9 C26 1_555 1_555
O10 C26 1_555 1_555
C1 C2 1_555 1_555
C2 H1 1_555 1_555
H2 C2 1_555 1_555
C3 C1 1_555 1_555
H3 C3 1_555 1_555
H4 C3 1_555 1_555
C4 C1 1_555 1_555
H5 C4 1_555 1_555
H6 C4 1_555 1_555
C5 C1 1_555 1_555
H7 C5 1_555 1_555
H8 C5 1_555 1_555
C6 O2 1_555 1_555
C7 C6 1_555 1_555
H9 C7 1_555 1_555
C8 C7 1_555 1_555
H10 C8 1_555 1_555
C9 C8 1_555 1_555
C10 C9 1_555 1_555
H11 C10 1_555 1_555
C11 C6 1_555 1_555
H12 C11 1_555 1_555
C12 O5 1_555 1_555
C13 O3 1_555 1_555
C14 C13 1_555 1_555
H13 C14 1_555 1_555
C15 C14 1_555 1_555
H14 C15 1_555 1_555
C16 C15 1_555 1_555
C17 C16 1_555 1_555
H15 C17 1_555 1_555
C18 C13 1_555 1_555
H16 C18 1_555 1_555
C19 C16 1_555 1_555
C20 O4 1_555 1_555
C21 C20 1_555 1_555
H17 C21 1_555 1_555
C22 C21 1_555 1_555
H18 C22 1_555 1_555
C23 C22 1_555 1_555
C24 C23 1_555 1_555
H19 C24 1_555 1_555
C25 C20 1_555 1_555
H20 C25 1_555 1_555
C26 C23 1_555 1_555
C27 H21 1_555 1_555
C28 C27 1_555 1_555
H22 C28 1_555 1_555
C29 N1 1_555 1_555
H23 C29 1_555 1_555
C30 N2 1_555 1_555
C31 C30 1_555 1_555
H24 C31 1_555 1_555
C32 C31 1_555 1_555
H25 C32 1_555 1_555
N1F C27F 1_555 1_555
N2F C28F 1_555 1_555
C27F H21F 1_555 1_555
C28F C27F 1_555 1_555
H22F C28F 1_555 1_555
C29F N1F 1_555 1_555
H23F C29F 1_555 1_555
C30F C32 1_555 1_555
C31F C30F 1_555 1_555
H24F C31F 1_555 1_555
C32F C30 1_555 1_555
H25F C32F 1_555 1_555
O2A C2A 1_555 1_555
O3A C3A 1_555 1_555
O4A C4A 1_555 1_555
O5A C12A 1_555 1_555
O6A C12A 1_555 1_555
O7A C19A 1_555 1_555
O8A C19A 1_555 1_555
O9A Mn1 1_555 1_555
O10A C26A 1_555 1_555
C1A C2A 1_555 1_555
C2A H1A 1_555 1_555
H2A C2A 1_555 1_555
C3A C1A 1_555 1_555
H3A C3A 1_555 1_555
H4A C3A 1_555 1_555
C4A C1A 1_555 1_555
H5A C4A 1_555 1_555
H6A C4A 1_555 1_555
C5A O1 1_555 1_555
H7A C5A 1_555 1_555
H8A C5A 1_555 1_555
C6A O2A 1_555 1_555
C7A C6A 1_555 1_555
H9A C7A 1_555 1_555
C8A C7A 1_555 1_555
H10A C8A 1_555 1_555
C9A C8A 1_555 1_555
C10A C9A 1_555 1_555
H11A C10A 1_555 1_555
C11A C6A 1_555 1_555
H12A C11A 1_555 1_555
C12A C9A 1_555 1_555
C13A O3A 1_555 1_555
C14A C13A 1_555 1_555
H13A C14A 1_555 1_555
C15A C14A 1_555 1_555
H14A C15A 1_555 1_555
C16A C15A 1_555 1_555
C17A C16A 1_555 1_555
H15A C17A 1_555 1_555
C18A C13A 1_555 1_555
H16A C18A 1_555 1_555
C19A C16A 1_555 1_555
C20A O4A 1_555 1_555
C21A C20A 1_555 1_555
H17A C21A 1_555 1_555
C22A C21A 1_555 1_555
H18A C22A 1_555 1_555
C23A C22A 1_555 1_555
C24A C23A 1_555 1_555
H19A C24A 1_555 1_555
C25A C20A 1_555 1_555
H20A C25A 1_555 1_555
C26A O9A 1_555 1_555
Mn2A O5A 1_555 1_555
Mn1_2 O7A 1_555 1_555
Mn1A O9 1_555 1_555
Mn1A_2 O7 1_555 1_555
Mn2F N1F 1_555 1_555
Mn2F_2 O7A 1_555 1_555
Mn2F_3 O10A 1_555 1_555
Mn2G O10 1_555 1_555
Mn2G_2 O7 1_555 1_555
N1A Mn2A 1_555 1_555
O6F Mn1 1_555 1_555
O7A_2 Mn1 1_555 1_555
O7F Mn2A 1_555 1_555
O7G Mn1 1_555 1_555
O8F Mn2A 1_555 1_555
O8G Mn2 1_555 1_555
O9G Mn1 1_555 1_555
O10F Mn2A 1_555 1_555
O10G Mn2 1_555 1_555
Mn2 O7G 1_555 1_555
N2 C29 1_555 1_555
O6 C12 1_555 1_555
O8 Mn2G_2 1_555 1_555
C9 C12 1_555 1_555
C10 C11 1_555 1_555
C17 C18 1_555 1_555
C24 C25 1_555 1_555
N2F C29F 1_555 1_555
N2F C30F 1_555 1_555
C31F C32F 1_555 1_555
O6A Mn2A 1_555 1_555
O6A Mn1A 1_555 1_555
O8A Mn2F_2 1_555 1_555
C1A C5A 1_555 1_555
C10A C11A 1_555 1_555
C17A C18A 1_555 1_555
C23A C26A 1_555 1_555
C24A C25A 1_555 1_555
Mn1A O7F 1_555 1_555
Mn2F_3 O6F 1_555 1_555
Mn2F_3 O7A_2 1_555 1_555

#END
