
#######################################################################
#
#                 Cambridge Crystallographic Data Centre
#                                CCDC 
#
#######################################################################
#
# If this CIF has been generated from an entry in the Cambridge 
# Structural Database, then it will include bibliographic, chemical, 
# crystal, experimental, refinement or atomic coordinate data resulting 
# from the CCDC's data processing and validation procedures.
#
#######################################################################

data_AGOFAF
_symmetry_cell_setting           orthorhombic
_symmetry_space_group_name_H-M   'P n m a'
_symmetry_Int_Tables_number      62
_space_group_name_Hall           '-P 2ac 2n'
loop_
_symmetry_equiv_pos_site_id
_symmetry_equiv_pos_as_xyz
1 x,y,z
2 1/2-x,-y,1/2+z
3 1/2+x,1/2-y,1/2-z
4 -x,1/2+y,-z
5 -x,-y,-z
6 1/2+x,y,1/2-z
7 1/2-x,1/2+y,1/2+z
8 x,1/2-y,z
_cell_length_a                   15.219(3)
_cell_length_b                   75.540(15)
_cell_length_c                   14.401(3)
_cell_angle_alpha                90
_cell_angle_beta                 90
_cell_angle_gamma                90
_cell_volume                     16556
loop_
_atom_site_label
_atom_site_type_symbol
_atom_site_fract_x
_atom_site_fract_y
_atom_site_fract_z
Cu1 Cu -0.02502(3) -0.125517(4) 0.10627(3)
C1 C -0.4069(2) -0.00148(4) -0.1976(2)
H1 H -0.4704 -0.0014 -0.2128
H2 H -0.3735 -0.0018 -0.2565
Cu2 Cu 0.02648(3) -0.126188(5) -0.06748(4)
Cu3 Cu 0.49889(4) -0.2500 0.01943(5)
Cu4 Cu -0.5000 0.0000 0.0000
N1 N -0.38638(17) -0.01690(3) -0.14248(19)
N2 N -0.42804(17) -0.01923(3) -0.05977(19)
C2 C -0.3937(2) -0.03394(4) -0.0242(2)
H3 H -0.4102 -0.0389 0.0338
C3 C -0.3296(2) -0.04117(4) -0.0841(2)
C4 C -0.3266(2) -0.02956(4) -0.1584(2)
H4 H -0.2891 -0.0304 -0.2110
N3 N -0.38435(17) 0.01440(3) -0.14621(19)
N4 N -0.42630(17) 0.01808(3) -0.06567(19)
C5 C -0.3915(2) 0.03299(4) -0.0344(3)
H5 H -0.4083 0.0387 0.0215
C6 C -0.3260(2) 0.03918(4) -0.0957(3)
C7 C -0.3229(2) 0.02679(4) -0.1657(3)
H6 H -0.2848 0.0269 -0.2179
C8 C -0.2760(2) -0.05706(4) -0.0694(3)
C9 C -0.2108(3) -0.06168(5) -0.1333(3)
H7 H -0.2028 -0.0548 -0.1878
C10 C -0.1576(3) -0.07629(5) -0.1177(3)
H8 H -0.1131 -0.0792 -0.1614
C11 C -0.1686(2) -0.08671(4) -0.0392(3)
C12 C -0.2332(2) -0.08220(4) 0.0241(3)
H9 H -0.2410 -0.0892 0.0783
C13 C -0.2868(2) -0.06762(5) 0.0094(3)
H10 H -0.3311 -0.0648 0.0534
C14 C -0.1088(2) -0.10200(4) -0.0203(3)
O1 O -0.05534(16) -0.10639(3) -0.08379(19)
O2 O -0.11511(15) -0.10937(3) 0.05772(18)
C15 C -0.2716(2) 0.05514(4) -0.0852(3)
C16 C -0.2890(3) 0.06739(5) -0.0152(3)
H11 H -0.3379 0.0657 0.0248
C17 C -0.2356(3) 0.08209(5) -0.0034(3)
H12 H -0.2454 0.0899 0.0473
C18 C -0.1668(2) 0.08546(4) -0.0663(3)
C19 C -0.1514(2) 0.07383(5) -0.1376(4)
H13 H -0.1052 0.0761 -0.1804
C20 C -0.2033(2) 0.05864(5) -0.1479(3)
H14 H -0.1922 0.0507 -0.1976
C21 C -0.1080(2) 0.10112(4) -0.0504(3)
O3 O -0.11543(17) 0.10916(3) 0.0244(2)
O4 O -0.05539(17) 0.10505(3) -0.1155(2)
C22 C -0.4218(4) -0.2500 -0.1859(4)
H15 H -0.3921 -0.2500 -0.2471
H16 H -0.4860 -0.2500 -0.1966
N5 N -0.3969(2) -0.23433(4) -0.1344(2)
N6 N -0.4339(2) -0.23144(4) -0.0502(2)
C23 C -0.3973(3) -0.21692(5) -0.0168(3)
H17 H -0.4110 -0.2117 0.0415
C24 C -0.3342(3) -0.21015(5) -0.0811(3)
C25 C -0.3365(3) -0.22185(5) -0.1540(3)
H18 H -0.3017 -0.2213 -0.2087
C26 C -0.2773(3) -0.19479(5) -0.0661(3)
C27 C -0.2770(3) -0.18614(6) 0.0194(3)
H19 H -0.3152 -0.1900 0.0675
C28 C -0.2210(3) -0.17187(5) 0.0346(3)
H20 H -0.2202 -0.1662 0.0936
C29 C -0.1660(2) -0.16575(4) -0.0358(3)
C30 C -0.1678(3) -0.17411(5) -0.1213(3)
H21 H -0.1308 -0.1700 -0.1698
C31 C -0.2227(3) -0.18843(6) -0.1372(3)
H22 H -0.2233 -0.1940 -0.1965
C32 C -0.1051(2) -0.15059(4) -0.0170(3)
O5 O -0.09569(16) -0.14599(3) 0.06586(18)
O6 O -0.06735(18) -0.14344(3) -0.0864(2)
C33 C 0.4173(4) -0.2500 0.2256(4)
H23 H 0.4812 -0.2500 0.2384
H24 H 0.3860 -0.2500 0.2859
N7 N 0.3944(2) -0.23430(4) 0.1743(2)
N8 N 0.4319(2) -0.23158(4) 0.0884(3)
C34 C 0.3956(2) -0.21661(5) 0.0575(3)
H25 H 0.4073 -0.2114 -0.0013
C35 C 0.3369(2) -0.20946(4) 0.1245(3)
C36 C 0.3376(2) -0.22137(4) 0.1963(3)
H26 H 0.3040 -0.2206 0.2518
C37 C 0.2836(3) -0.19339(5) 0.1118(3)
C38 C 0.2460(3) -0.18458(5) 0.1872(4)
H27 H 0.2571 -0.1886 0.2486
C39 C 0.1926(3) -0.17006(5) 0.1727(3)
H28 H 0.1679 -0.1640 0.2243
C40 C 0.1747(2) -0.16427(4) 0.0831(3)
C41 C 0.2119(3) -0.17292(6) 0.0093(4)
H29 H 0.2006 -0.1689 -0.0520
C42 C 0.2658(3) -0.18750(6) 0.0224(4)
H30 H 0.2905 -0.1934 -0.0296
C43 C 0.1111(2) -0.14949(4) 0.0654(3)
O7 O 0.07327(16) -0.14213(3) 0.1332(2)
O8 O 0.10004(18) -0.14554(3) -0.0191(2)
O9 O 0.0864(5) -0.12770(5) -0.2002(4)
C44 C 0.1820(5) -0.12700(9) -0.1804(5)
H31 H 0.2020 -0.1271 -0.1179
N9 N 0.2385(5) -0.12624(9) -0.2480(4)
C45 C 0.3304(5) -0.12425(13) -0.2270(7)
H32 H 0.3371 -0.1173 -0.1699
H33 H 0.3597 -0.1181 -0.2783
H34 H 0.3570 -0.1360 -0.2185
C46 C 0.2176(9) -0.1252(2) -0.3394(7)
H35 H 0.1608 -0.1192 -0.3464
H36 H 0.2138 -0.1371 -0.3656
H37 H 0.2630 -0.1185 -0.3723
O10 O -0.0753(2) -0.12527(3) 0.2449(2)
C47 C -0.0581(3) -0.13685(6) 0.3016(3)
H38 H -0.0176 -0.1458 0.2836
N10 N -0.0921(3) -0.13782(6) 0.3867(3)
C48 C -0.0619(7) -0.15150(12) 0.4512(6)
H39 H -0.0269 -0.1603 0.4174
H40 H -0.1127 -0.1573 0.4796
H41 H -0.0257 -0.1461 0.4998
C49 C -0.1568(5) -0.12406(9) 0.4168(5)
H42 H -0.1769 -0.1174 0.3626
H43 H -0.1287 -0.1160 0.4611
H44 H -0.2072 -0.1298 0.4466
N11 N -0.3437(3) -0.00689(7) 0.1717(3)
O11 O -0.3946(2) 0.00223(5) 0.1290(2)
O12 O -0.3612(6) -0.02239(7) 0.1857(4)
O13 O -0.2777(3) 0.00003(5) 0.2064(4)
N12 N 0.3327(9) -0.23790(17) -0.1476(10)
O14 O 0.3823(5) -0.2500 -0.1087(5)
O15 O 0.2677(13) -0.2500 -0.1863(14)
O16 O 0.3089(9) -0.22312(15) -0.1548(10)
N13 N 0.6734(7) -0.24551(10) 0.1667(7)
O17 O 0.6045(5) -0.2500 0.1470(5)
O18 O 0.7007(9) -0.23107(15) 0.1371(9)
O19 O 0.7060(10) -0.2500 0.2401(11)
N5G N -0.3969(2) -0.26567(4) -0.1344(2)
N6G N -0.4339(2) -0.26856(4) -0.0502(2)
C23G C -0.3973(3) -0.28308(5) -0.0168(3)
H17G H -0.4110 -0.2883 0.0415
C24G C -0.3342(3) -0.28985(5) -0.0811(3)
C25G C -0.3365(3) -0.27815(5) -0.1540(3)
H18G H -0.3017 -0.2787 -0.2087
C26G C -0.2773(3) -0.30521(5) -0.0661(3)
C27G C -0.2770(3) -0.31386(6) 0.0194(3)
H19G H -0.3152 -0.3100 0.0675
C28G C -0.2210(3) -0.32813(5) 0.0346(3)
H20G H -0.2202 -0.3338 0.0936
C29G C -0.1660(2) -0.33425(4) -0.0358(3)
C30G C -0.1678(3) -0.32589(5) -0.1213(3)
H21G H -0.1308 -0.3300 -0.1698
C31G C -0.2227(3) -0.31157(6) -0.1372(3)
H22G H -0.2233 -0.3060 -0.1965
C32G C -0.1051(2) -0.34941(4) -0.0170(3)
O5G O -0.09569(16) -0.35401(3) 0.06586(18)
O6G O -0.06735(18) -0.35656(3) -0.0864(2)
N7G N 0.3944(2) -0.26570(4) 0.1743(2)
N8G N 0.4319(2) -0.26842(4) 0.0884(3)
C34G C 0.3956(2) -0.28339(5) 0.0575(3)
H25G H 0.4073 -0.2886 -0.0013
C35G C 0.3369(2) -0.29054(4) 0.1245(3)
C36G C 0.3376(2) -0.27863(4) 0.1963(3)
H26G H 0.3040 -0.2794 0.2518
C37G C 0.2836(3) -0.30661(5) 0.1118(3)
C38G C 0.2460(3) -0.31542(5) 0.1872(4)
H27G H 0.2571 -0.3114 0.2486
C39G C 0.1926(3) -0.32994(5) 0.1727(3)
H28G H 0.1679 -0.3360 0.2243
C40G C 0.1747(2) -0.33573(4) 0.0831(3)
C41G C 0.2119(3) -0.32708(6) 0.0093(4)
H29G H 0.2006 -0.3311 -0.0520
C42G C 0.2658(3) -0.31250(6) 0.0224(4)
H30G H 0.2905 -0.3066 -0.0296
C43G C 0.1111(2) -0.35051(4) 0.0654(3)
O7G O 0.07327(16) -0.35787(3) 0.1332(2)
O8G O 0.10004(18) -0.35446(3) -0.0191(2)
N12G N 0.3327(9) -0.26210(17) -0.1476(10)
O16G O 0.3089(9) -0.27688(15) -0.1548(10)
N13G N 0.6734(7) -0.25449(10) 0.1667(7)
O18G O 0.7007(9) -0.26893(15) 0.1371(9)
Cu1D Cu -0.97498(3) 0.125517(4) -0.10627(3)
C1D C -0.5931(2) 0.00148(4) 0.1976(2)
H1D H -0.5296 0.0014 0.2128
H2D H -0.6265 0.0018 0.2565
Cu2D Cu -1.02648(3) 0.126188(5) 0.06748(4)
N1D N -0.61362(17) 0.01690(3) 0.14248(19)
N2D N -0.57196(17) 0.01923(3) 0.05977(19)
C2D C -0.6063(2) 0.03394(4) 0.0242(2)
H3D H -0.5898 0.0389 -0.0338
C3D C -0.6704(2) 0.04117(4) 0.0841(2)
C4D C -0.6734(2) 0.02956(4) 0.1584(2)
H4D H -0.7109 0.0304 0.2110
N3D N -0.61565(17) -0.01440(3) 0.14621(19)
N4D N -0.57370(17) -0.01808(3) 0.06567(19)
C5D C -0.6085(2) -0.03299(4) 0.0344(3)
H5D H -0.5917 -0.0387 -0.0215
C6D C -0.6740(2) -0.03918(4) 0.0957(3)
C7D C -0.6771(2) -0.02679(4) 0.1657(3)
H6D H -0.7152 -0.0269 0.2179
C8D C -0.7240(2) 0.05706(4) 0.0694(3)
C9D C -0.7892(3) 0.06168(5) 0.1333(3)
H7D H -0.7972 0.0548 0.1878
C10D C -0.8424(3) 0.07629(5) 0.1177(3)
H8D H -0.8869 0.0792 0.1614
C11D C -0.8314(2) 0.08671(4) 0.0392(3)
C12D C -0.7668(2) 0.08220(4) -0.0241(3)
H9D H -0.7590 0.0892 -0.0783
C13D C -0.7132(2) 0.06762(5) -0.0094(3)
H10D H -0.6689 0.0648 -0.0534
C14D C -0.8912(2) 0.10200(4) 0.0203(3)
O1D O -0.94466(16) 0.10639(3) 0.08379(19)
O2D O -0.88489(15) 0.10937(3) -0.05772(18)
C15D C -0.7284(2) -0.05514(4) 0.0852(3)
C16D C -0.7110(3) -0.06739(5) 0.0152(3)
H11D H -0.6621 -0.0657 -0.0248
C17D C -0.7644(3) -0.08209(5) 0.0034(3)
H12D H -0.7546 -0.0899 -0.0473
C18D C -0.8332(2) -0.08546(4) 0.0663(3)
C19D C -0.8486(2) -0.07383(5) 0.1376(4)
H13D H -0.8948 -0.0761 0.1804
C20D C -0.7967(2) -0.05864(5) 0.1479(3)
H14D H -0.8078 -0.0507 0.1976
C21D C -0.8920(2) -0.10112(4) 0.0504(3)
O3D O -0.88457(17) -0.10916(3) -0.0244(2)
O4D O -0.94461(17) -0.10505(3) 0.1155(2)
O9D O -1.0864(5) 0.12770(5) 0.2002(4)
C44D C -1.1820(5) 0.12700(9) 0.1804(5)
H31D H -1.2020 0.1271 0.1179
N9D N -1.2385(5) 0.12624(9) 0.2480(4)
C45D C -1.3304(5) 0.12425(13) 0.2270(7)
H32D H -1.3371 0.1173 0.1699
H33D H -1.3597 0.1181 0.2783
H34D H -1.3570 0.1360 0.2185
C46D C -1.2176(9) 0.1252(2) 0.3394(7)
H35D H -1.1608 0.1192 0.3464
H36D H -1.2138 0.1371 0.3656
H37D H -1.2630 0.1185 0.3723
O10D O -0.9247(2) 0.12527(3) -0.2449(2)
C47D C -0.9419(3) 0.13685(6) -0.3016(3)
H38D H -0.9824 0.1458 -0.2836
N10D N -0.9079(3) 0.13782(6) -0.3867(3)
C48D C -0.9381(7) 0.15150(12) -0.4512(6)
H39D H -0.9731 0.1603 -0.4174
H40D H -0.8873 0.1573 -0.4796
H41D H -0.9743 0.1461 -0.4998
C49D C -0.8432(5) 0.12406(9) -0.4168(5)
H42D H -0.8231 0.1174 -0.3626
H43D H -0.8713 0.1160 -0.4611
H44D H -0.7928 0.1298 -0.4466
N11D N -0.6563(3) 0.00689(7) -0.1717(3)
O11D O -0.6054(2) -0.00223(5) -0.1290(2)
O12D O -0.6388(6) 0.02239(7) -0.1857(4)
O13D O -0.7223(3) -0.00003(5) -0.2064(4)
Cu1_2 Cu -1.02502(3) -0.125517(4) 0.10627(3)
Cu1D_2 Cu 0.02502(3) 0.125517(4) -0.10627(3)
Cu1G Cu -0.02502(3) -0.374483(4) 0.10627(3)
Cu2_2 Cu -0.97352(3) -0.126188(5) -0.06748(4)
Cu2D_2 Cu -0.02648(3) 0.126188(5) 0.06748(4)
Cu2G Cu 0.02648(3) -0.373812(5) -0.06748(4)
Cu3_2 Cu -0.50111(4) -0.2500 0.01943(5)
O3_2 O -1.11543(17) 0.10916(3) 0.0244(2)
O3D_2 O 0.11543(17) -0.10916(3) -0.0244(2)
O4_2 O -1.05539(17) 0.10505(3) -0.1155(2)
O4D_2 O 0.05539(17) -0.10505(3) 0.1155(2)
N6_2 N 0.5661(2) -0.23144(4) -0.0502(2)
N6G_2 N 0.5661(2) -0.26856(4) -0.0502(2)
O5D O -0.90431(16) 0.14599(3) -0.06586(18)
O6D O -0.93265(18) 0.14344(3) 0.0864(2)
O7D O -1.07327(16) 0.14213(3) -0.1332(2)
O8D O -1.10004(18) 0.14554(3) 0.0191(2)
loop_
_geom_bond_atom_site_label_1
_geom_bond_atom_site_label_2
_geom_bond_site_symmetry_1
_geom_bond_site_symmetry_2
Cu1 Cu2 1_555 1_555
C1 H1 1_555 1_555
H2 C1 1_555 1_555
Cu2 O1 1_555 1_555
Cu3 N8 1_555 1_555
Cu4 N2 1_555 1_555
N1 C1 1_555 1_555
N2 N1 1_555 1_555
C2 N2 1_555 1_555
H3 C2 1_555 1_555
C3 C2 1_555 1_555
C4 N1 1_555 1_555
H4 C4 1_555 1_555
N3 C1 1_555 1_555
N4 Cu4 1_555 1_555
C5 N4 1_555 1_555
H5 C5 1_555 1_555
C6 C5 1_555 1_555
C7 N3 1_555 1_555
H6 C7 1_555 1_555
C8 C3 1_555 1_555
C9 C8 1_555 1_555
H7 C9 1_555 1_555
C10 C9 1_555 1_555
H8 C10 1_555 1_555
C11 C10 1_555 1_555
C12 C11 1_555 1_555
H9 C12 1_555 1_555
C13 C8 1_555 1_555
H10 C13 1_555 1_555
C14 C11 1_555 1_555
O1 C14 1_555 1_555
O2 Cu1 1_555 1_555
C15 C6 1_555 1_555
C16 C15 1_555 1_555
H11 C16 1_555 1_555
C17 C16 1_555 1_555
H12 C17 1_555 1_555
C18 C17 1_555 1_555
C19 C18 1_555 1_555
H13 C19 1_555 1_555
C20 C15 1_555 1_555
H14 C20 1_555 1_555
C21 C18 1_555 1_555
O3 C21 1_555 1_555
O4 C21 1_555 1_555
C22 H15 1_555 1_555
H16 C22 1_555 1_555
N5 C22 1_555 1_555
N6 N5 1_555 1_555
C23 N6 1_555 1_555
H17 C23 1_555 1_555
C24 C23 1_555 1_555
C25 N5 1_555 1_555
H18 C25 1_555 1_555
C26 C24 1_555 1_555
C27 C26 1_555 1_555
H19 C27 1_555 1_555
C28 C27 1_555 1_555
H20 C28 1_555 1_555
C29 C28 1_555 1_555
C30 C29 1_555 1_555
H21 C30 1_555 1_555
C31 C26 1_555 1_555
H22 C31 1_555 1_555
C32 C29 1_555 1_555
O5 Cu1 1_555 1_555
O6 Cu2 1_555 1_555
C33 H23 1_555 1_555
H24 C33 1_555 1_555
N7 C33 1_555 1_555
N8 N7 1_555 1_555
C34 N8 1_555 1_555
H25 C34 1_555 1_555
C35 C34 1_555 1_555
C36 N7 1_555 1_555
H26 C36 1_555 1_555
C37 C35 1_555 1_555
C38 C37 1_555 1_555
H27 C38 1_555 1_555
C39 C38 1_555 1_555
H28 C39 1_555 1_555
C40 C39 1_555 1_555
C41 C40 1_555 1_555
H29 C41 1_555 1_555
C42 C37 1_555 1_555
H30 C42 1_555 1_555
C43 C40 1_555 1_555
O7 Cu1 1_555 1_555
O8 Cu2 1_555 1_555
O9 Cu2 1_555 1_555
C44 O9 1_555 1_555
H31 C44 1_555 1_555
N9 C44 1_555 1_555
C45 N9 1_555 1_555
H32 C45 1_555 1_555
H33 C45 1_555 1_555
H34 C45 1_555 1_555
C46 N9 1_555 1_555
H35 C46 1_555 1_555
H36 C46 1_555 1_555
H37 C46 1_555 1_555
O10 Cu1 1_555 1_555
C47 O10 1_555 1_555
H38 C47 1_555 1_555
N10 C47 1_555 1_555
C48 N10 1_555 1_555
H39 C48 1_555 1_555
H40 C48 1_555 1_555
H41 C48 1_555 1_555
C49 N10 1_555 1_555
H42 C49 1_555 1_555
H43 C49 1_555 1_555
H44 C49 1_555 1_555
N11 O11 1_555 1_555
O11 Cu4 1_555 1_555
O12 N11 1_555 1_555
O13 N11 1_555 1_555
N12 O14 1_555 1_555
O14 Cu3 1_555 1_555
O15 N12 1_555 1_555
O16 N12 1_555 1_555
N13 O17 1_555 1_555
O17 Cu3 1_555 1_555
O18 N13 1_555 1_555
O19 N13 1_555 1_555
N5G C22 1_555 1_555
N6G N5G 1_555 1_555
C23G N6G 1_555 1_555
H17G C23G 1_555 1_555
C24G C23G 1_555 1_555
C25G N5G 1_555 1_555
H18G C25G 1_555 1_555
C26G C24G 1_555 1_555
C27G C26G 1_555 1_555
H19G C27G 1_555 1_555
C28G C27G 1_555 1_555
H20G C28G 1_555 1_555
C29G C28G 1_555 1_555
C30G C29G 1_555 1_555
H21G C30G 1_555 1_555
C31G C26G 1_555 1_555
H22G C31G 1_555 1_555
C32G C29G 1_555 1_555
O5G C32G 1_555 1_555
O6G C32G 1_555 1_555
N7G C33 1_555 1_555
N8G Cu3 1_555 1_555
C34G N8G 1_555 1_555
H25G C34G 1_555 1_555
C35G C34G 1_555 1_555
C36G N7G 1_555 1_555
H26G C36G 1_555 1_555
C37G C35G 1_555 1_555
C38G C37G 1_555 1_555
H27G C38G 1_555 1_555
C39G C38G 1_555 1_555
H28G C39G 1_555 1_555
C40G C39G 1_555 1_555
C41G C40G 1_555 1_555
H29G C41G 1_555 1_555
C42G C37G 1_555 1_555
H30G C42G 1_555 1_555
C43G C40G 1_555 1_555
O7G C43G 1_555 1_555
O8G C43G 1_555 1_555
N12G O14 1_555 1_555
O16G N12G 1_555 1_555
N13G N13 1_555 1_555
O18G N13G 1_555 1_555
Cu1D Cu2D 1_555 1_555
C1D H1D 1_555 1_555
H2D C1D 1_555 1_555
Cu2D O1D 1_555 1_555
N1D C1D 1_555 1_555
N2D Cu4 1_555 1_555
C2D N2D 1_555 1_555
H3D C2D 1_555 1_555
C3D C2D 1_555 1_555
C4D N1D 1_555 1_555
H4D C4D 1_555 1_555
N3D C1D 1_555 1_555
N4D Cu4 1_555 1_555
C5D N4D 1_555 1_555
H5D C5D 1_555 1_555
C6D C5D 1_555 1_555
C7D N3D 1_555 1_555
H6D C7D 1_555 1_555
C8D C3D 1_555 1_555
C9D C8D 1_555 1_555
H7D C9D 1_555 1_555
C10D C9D 1_555 1_555
H8D C10D 1_555 1_555
C11D C10D 1_555 1_555
C12D C11D 1_555 1_555
H9D C12D 1_555 1_555
C13D C8D 1_555 1_555
H10D C13D 1_555 1_555
C14D C11D 1_555 1_555
O1D C14D 1_555 1_555
O2D Cu1D 1_555 1_555
C15D C6D 1_555 1_555
C16D C15D 1_555 1_555
H11D C16D 1_555 1_555
C17D C16D 1_555 1_555
H12D C17D 1_555 1_555
C18D C17D 1_555 1_555
C19D C18D 1_555 1_555
H13D C19D 1_555 1_555
C20D C15D 1_555 1_555
H14D C20D 1_555 1_555
C21D C18D 1_555 1_555
O3D C21D 1_555 1_555
O4D C21D 1_555 1_555
O9D Cu2D 1_555 1_555
C44D O9D 1_555 1_555
H31D C44D 1_555 1_555
N9D C44D 1_555 1_555
C45D N9D 1_555 1_555
H32D C45D 1_555 1_555
H33D C45D 1_555 1_555
H34D C45D 1_555 1_555
C46D N9D 1_555 1_555
H35D C46D 1_555 1_555
H36D C46D 1_555 1_555
H37D C46D 1_555 1_555
O10D Cu1D 1_555 1_555
C47D O10D 1_555 1_555
H38D C47D 1_555 1_555
N10D C47D 1_555 1_555
C48D N10D 1_555 1_555
H39D C48D 1_555 1_555
H40D C48D 1_555 1_555
H41D C48D 1_555 1_555
C49D N10D 1_555 1_555
H42D C49D 1_555 1_555
H43D C49D 1_555 1_555
H44D C49D 1_555 1_555
N11D O11D 1_555 1_555
O11D Cu4 1_555 1_555
O12D N11D 1_555 1_555
O13D N11D 1_555 1_555
Cu1_2 O4D 1_555 1_555
Cu1D_2 O4 1_555 1_555
Cu1G O5G 1_555 1_555
Cu2_2 O3D 1_555 1_555
Cu2D_2 O3 1_555 1_555
Cu2G O6G 1_555 1_555
Cu3_2 N6 1_555 1_555
O3_2 Cu2D 1_555 1_555
O3D_2 Cu2 1_555 1_555
O4_2 Cu1D 1_555 1_555
O4D_2 Cu1 1_555 1_555
N6_2 Cu3 1_555 1_555
N6G_2 Cu3 1_555 1_555
O5D Cu1D 1_555 1_555
O6D Cu2D 1_555 1_555
O7D Cu1D 1_555 1_555
O8D Cu2D 1_555 1_555
C3 C4 1_555 1_555
N3 N4 1_555 1_555
C6 C7 1_555 1_555
C12 C13 1_555 1_555
C14 O2 1_555 1_555
C19 C20 1_555 1_555
C24 C25 1_555 1_555
C30 C31 1_555 1_555
C32 O5 1_555 1_555
C32 O6 1_555 1_555
C35 C36 1_555 1_555
C41 C42 1_555 1_555
C43 O7 1_555 1_555
C43 O8 1_555 1_555
O15 N12G 1_555 1_555
O17 N13G 1_555 1_555
O19 N13G 1_555 1_555
N6G Cu3_2 1_555 1_555
C24G C25G 1_555 1_555
C30G C31G 1_555 1_555
N7G N8G 1_555 1_555
C35G C36G 1_555 1_555
C41G C42G 1_555 1_555
O7G Cu1G 1_555 1_555
O8G Cu2G 1_555 1_555
N1D N2D 1_555 1_555
C3D C4D 1_555 1_555
N3D N4D 1_555 1_555
C6D C7D 1_555 1_555
C12D C13D 1_555 1_555
C14D O2D 1_555 1_555
C19D C20D 1_555 1_555
Cu1_2 Cu2_2 1_555 1_555
Cu1D_2 Cu2D_2 1_555 1_555
Cu1G Cu2G 1_555 1_555

#END
