
#######################################################################
#
#                 Cambridge Crystallographic Data Centre
#                                CCDC 
#
#######################################################################
#
# If this CIF has been generated from an entry in the Cambridge 
# Structural Database, then it will include bibliographic, chemical, 
# crystal, experimental, refinement or atomic coordinate data resulting 
# from the CCDC's data processing and validation procedures.
#
#######################################################################

data_AGOWID
_symmetry_cell_setting           triclinic
_symmetry_space_group_name_H-M   'P -1'
_symmetry_Int_Tables_number      2
_space_group_name_Hall           '-P 1'
loop_
_symmetry_equiv_pos_site_id
_symmetry_equiv_pos_as_xyz
1 x,y,z
2 -x,-y,-z
_cell_length_a                   7.925(4)
_cell_length_b                   8.989(6)
_cell_length_c                   11.726(6)
_cell_angle_alpha                96.28(3)
_cell_angle_beta                 98.63(2)
_cell_angle_gamma                98.97(2)
_cell_volume                     808.201
loop_
_atom_site_label
_atom_site_type_symbol
_atom_site_fract_x
_atom_site_fract_y
_atom_site_fract_z
C1 C 0.5758(2) 0.2908(2) 0.70951(15)
C2 C 0.4639(2) 0.1504(2) 0.73561(15)
H1 H 0.4196 0.1764 0.8066
H2 H 0.3653 0.1200 0.6730
C3 C 0.5765(2) -0.1842(2) 0.59130(15)
C4 C 0.4695(2) -0.1219(2) 0.67581(15)
H3 H 0.3614 -0.1063 0.6318
H4 H 0.4413 -0.1979 0.7259
C5 C 0.6392(2) 0.00980(19) 0.86167(14)
C6 C 0.6706(2) 0.13196(19) 0.95095(15)
H5 H 0.6319 0.2219 0.9372
C7 C 0.7589(2) 0.1201(2) 1.05973(15)
H6 H 0.7757 0.2014 1.1189
C8 C 0.8230(2) -0.0111(2) 1.08227(14)
C9 C 0.7931(2) -0.1318(2) 0.99287(16)
H7 H 0.8350 -0.2205 1.0063
C10 C 0.7025(2) -0.1227(2) 0.88446(15)
H8 H 0.6834 -0.2053 0.8261
C11 C 0.9258(2) -0.0177(2) 1.19854(15)
N1 N 0.5524(2) 0.02088(16) 0.74928(12)
Na1 Na 0.70264(10) 0.49576(8) 0.57052(7)
O1 O 0.52052(19) 0.41253(16) 0.71895(12)
O2 O 0.71665(17) 0.27959(15) 0.67283(12)
O3 O 0.70204(18) -0.09667(16) 0.56440(12)
O4 O 0.53062(19) -0.31883(15) 0.54829(12)
O5 O 0.9395(2) 0.08672(16) 1.28035(11)
O6 O 1.00014(17) -0.13340(15) 1.21007(11)
O7 O 0.9495(2) 0.17005(17) 0.52465(12)
H9 H 0.9528 0.1236 0.4581
H10 H 1.0276 0.2489 0.5443
O8 O 0.9626(2) 0.60310(17) 0.69752(13)
H11 H 0.9924 0.6993 0.7101
H12 H 0.9728 0.5703 0.7630
O9 O 0.81948(19) 0.56713(17) 0.40602(13)
H13 H 0.8786 0.5073 0.3756
H14 H 0.7250 0.5671 0.3609
Zn1 Zn 0.81967(3) 0.09629(2) 0.651229(17)
Na1_2 Na 0.70264(10) -0.50424(8) 0.57052(7)
Na1A Na 0.29736(10) -0.49576(8) 0.42948(7)
O4_2 O 0.53062(19) 0.68117(15) 0.54829(12)
O4A O 0.46938(19) 0.31883(15) 0.45171(12)
O6A O 0.99986(17) 0.13340(15) 0.78993(11)
Zn1A Zn 1.18033(3) -0.09629(2) 1.348771(17)
O10 O 0.6141(3) 0.4735(3) 0.09255(19)
H15 H 0.5653 0.5064 0.1476
H16 H 0.5412 0.4016 0.0505
H17 H 1.0046 0.6401 0.1287
H18 H 0.8541 0.5354 0.0951
O11 O 0.9641(2) 0.54605(19) 0.10841(14)
loop_
_geom_bond_atom_site_label_1
_geom_bond_atom_site_label_2
_geom_bond_site_symmetry_1
_geom_bond_site_symmetry_2
C1 C2 1_555 1_555
C2 H1 1_555 1_555
H2 C2 1_555 1_555
C3 C4 1_555 1_555
C4 H3 1_555 1_555
H4 C4 1_555 1_555
C5 C6 1_555 1_555
C6 H5 1_555 1_555
C7 C6 1_555 1_555
H6 C7 1_555 1_555
C8 C7 1_555 1_555
C9 C8 1_555 1_555
H7 C9 1_555 1_555
C10 C5 1_555 1_555
H8 C10 1_555 1_555
C11 C8 1_555 1_555
N1 C2 1_555 1_555
Na1 O1 1_555 1_555
O1 C1 1_555 1_555
O2 C1 1_555 1_555
O3 C3 1_555 1_555
O4 C3 1_555 1_555
O5 C11 1_555 1_555
O6 C11 1_555 1_555
O7 H9 1_555 1_555
H10 O7 1_555 1_555
O8 Na1 1_555 1_555
H11 O8 1_555 1_555
H12 O8 1_555 1_555
O9 Na1 1_555 1_555
H13 O9 1_555 1_555
H14 O9 1_555 1_555
Zn1 O2 1_555 1_555
O10 H15 1_555 1_555
H16 O10 1_555 1_555
H17 O11 1_555 1_555
H18 O11 1_555 1_555
Na1_2 O4 1_555 1_555
Na1A O4 1_555 1_555
O4_2 Na1 1_555 1_555
O4A Na1 1_555 1_555
O6A Zn1 1_555 1_555
Zn1A O6 1_555 1_555
C4 N1 1_555 1_555
C5 N1 1_555 1_555
C9 C10 1_555 1_555
Na1 O2 1_555 1_555
O3 Zn1 1_555 1_555
O7 Zn1 1_555 1_555

#END
