
#######################################################################
#
#                 Cambridge Crystallographic Data Centre
#                                CCDC 
#
#######################################################################
#
# If this CIF has been generated from an entry in the Cambridge 
# Structural Database, then it will include bibliographic, chemical, 
# crystal, experimental, refinement or atomic coordinate data resulting 
# from the CCDC's data processing and validation procedures.
#
#######################################################################

data_AHUNEW
_symmetry_cell_setting           tetragonal
_symmetry_space_group_name_H-M   'P 4/n c c'
_symmetry_Int_Tables_number      130
_space_group_name_Hall           '-P 4a 2ac'
loop_
_symmetry_equiv_pos_site_id
_symmetry_equiv_pos_as_xyz
1 x,y,z
2 1/2-y,x,z
3 y,1/2-x,z
4 1/2+y,1/2+x,1/2-z
5 1/2+x,-y,1/2-z
6 -x,1/2+y,1/2-z
7 -y,-x,1/2-z
8 1/2-x,1/2-y,z
9 -x,-y,-z
10 1/2+y,-x,-z
11 -y,1/2+x,-z
12 1/2-y,1/2-x,1/2+z
13 1/2-x,y,1/2+z
14 x,1/2-y,1/2+z
15 y,x,1/2+z
16 1/2+x,1/2+y,-z
_cell_length_a                   11.301(1)
_cell_length_b                   11.301(1)
_cell_length_c                   15.733(2)
_cell_angle_alpha                90
_cell_angle_beta                 90
_cell_angle_gamma                90
_cell_volume                     2009.3
loop_
_atom_site_label
_atom_site_type_symbol
_atom_site_fract_x
_atom_site_fract_y
_atom_site_fract_z
Cu1 Cu 0.7500 0.2500 0.2500
O1 O 0.6008(3) 0.1008 0.2500
N1 N 0.8417(4) 0.1588(4) 0.1595(2)
C1 C 0.9606(5) 0.1577(5) 0.1565(3)
C2 C 1.0267(5) 0.0979(5) 0.0963(3)
C3 C 0.9674(5) 0.0322(5) 0.0336(3)
C4 C 0.8451(5) 0.0297(5) 0.0376(3)
C5 C 0.7858(4) 0.0953(6) 0.0994(3)
H1 H 1.0020 0.2010 0.1985
H2 H 1.1107 0.1017 0.0971
H3 H 0.8012 -0.0165 -0.0015
H4 H 0.7021 0.0960 0.0989
C3H C 1.0326(5) -0.0322(5) -0.0336(3)
C2H C 0.9733(5) -0.0979(5) -0.0963(3)
C1H C 1.0394(5) -0.1577(5) -0.1565(3)
N1H N 1.1583(4) -0.1588(4) -0.1595(2)
C5H C 1.2142(4) -0.0953(6) -0.0994(3)
C4H C 1.1549(5) -0.0297(5) -0.0376(3)
H3H H 1.1988 0.0165 0.0015
H4H H 1.2979 -0.0960 -0.0989
H1H H 0.9980 -0.2010 -0.1985
H2H H 0.8893 -0.1017 -0.0971
O1F O 0.8992 0.3992(3) 0.2500
N1C N 0.6588(4) 0.3417(4) 0.3405(2)
C1C C 0.6577(5) 0.4606(5) 0.3435(3)
C2C C 0.5979(5) 0.5267(5) 0.4037(3)
C3C C 0.5322(5) 0.4674(5) 0.4664(3)
C4C C 0.5297(5) 0.3451(5) 0.4624(3)
C5C C 0.5953(6) 0.2858(4) 0.4006(3)
H1C H 0.7010 0.5020 0.3015
H2C H 0.6017 0.6107 0.4029
H3C H 0.4835 0.3012 0.5015
H4C H 0.5960 0.2021 0.4011
C3K C 0.4678(5) 0.5326(5) 0.5336(3)
C2K C 0.4021(5) 0.4733(5) 0.5963(3)
C1K C 0.3423(5) 0.5394(5) 0.6565(3)
N1K N 0.3412(4) 0.6583(4) 0.6595(2)
C5K C 0.4047(6) 0.7142(4) 0.5994(3)
C4K C 0.4703(5) 0.6549(5) 0.5376(3)
H3K H 0.5165 0.6988 0.4985
H4K H 0.4040 0.7979 0.5989
H1K H 0.2990 0.4980 0.6985
H2K H 0.3983 0.3893 0.5971
N1F N 0.8412(4) 0.1583(4) 0.3405(2)
N1G N 0.6583(4) 0.3412(4) 0.1595(2)
Cu1N Cu 1.2500 -0.2500 -0.2500
Cu1N_2 Cu 0.2500 0.7500 0.7500
Ti1 Ti 0.2500 0.2500 0.3081(1)
F1 F 0.2500 0.2500 0.1899(4)
F2 F 0.1558(3) 0.1155(3) 0.3047(2)
F3 F 0.2500 0.2500 0.4240(4)
F2A F 0.3845(3) 0.1558(3) 0.3047(2)
F2B F 0.1155(3) 0.3442(3) 0.3047(2)
F2G F 0.3442(3) 0.3845(3) 0.3047(2)
loop_
_geom_bond_atom_site_label_1
_geom_bond_atom_site_label_2
_geom_bond_site_symmetry_1
_geom_bond_site_symmetry_2
Cu1 O1 1_555 1_555
N1 Cu1 1_555 1_555
C1 N1 1_555 1_555
C2 C1 1_555 1_555
C3 C2 1_555 1_555
C4 C3 1_555 1_555
C5 N1 1_555 1_555
H1 C1 1_555 1_555
H2 C2 1_555 1_555
H3 C4 1_555 1_555
H4 C5 1_555 1_555
Ti1 F1 1_555 1_555
F2 Ti1 1_555 1_555
F3 Ti1 1_555 1_555
C3H C3 1_555 1_555
C2H C3H 1_555 1_555
C1H C2H 1_555 1_555
N1H C1H 1_555 1_555
C5H N1H 1_555 1_555
C4H C3H 1_555 1_555
H3H C4H 1_555 1_555
H4H C5H 1_555 1_555
H1H C1H 1_555 1_555
H2H C2H 1_555 1_555
O1F Cu1 1_555 1_555
N1C Cu1 1_555 1_555
C1C N1C 1_555 1_555
C2C C1C 1_555 1_555
C3C C2C 1_555 1_555
C4C C3C 1_555 1_555
C5C N1C 1_555 1_555
H1C C1C 1_555 1_555
H2C C2C 1_555 1_555
H3C C4C 1_555 1_555
H4C C5C 1_555 1_555
C3K C3C 1_555 1_555
C2K C3K 1_555 1_555
C1K C2K 1_555 1_555
N1K C1K 1_555 1_555
C5K N1K 1_555 1_555
C4K C3K 1_555 1_555
H3K C4K 1_555 1_555
H4K C5K 1_555 1_555
H1K C1K 1_555 1_555
H2K C2K 1_555 1_555
N1F Cu1 1_555 1_555
N1G Cu1 1_555 1_555
Cu1N N1H 1_555 1_555
Cu1N_2 N1K 1_555 1_555
F2A Ti1 1_555 1_555
F2B Ti1 1_555 1_555
F2G Ti1 1_555 1_555
C4 C5 1_555 1_555
C5H C4H 1_555 1_555
C4C C5C 1_555 1_555
C5K C4K 1_555 1_555

#END
