
#######################################################################
#
#                 Cambridge Crystallographic Data Centre
#                                CCDC 
#
#######################################################################
#
# If this CIF has been generated from an entry in the Cambridge 
# Structural Database, then it will include bibliographic, chemical, 
# crystal, experimental, refinement or atomic coordinate data resulting 
# from the CCDC's data processing and validation procedures.
#
#######################################################################

data_AJAKON
_symmetry_cell_setting           monoclinic
_symmetry_space_group_name_H-M   'P 21/c'
_symmetry_Int_Tables_number      14
_space_group_name_Hall           '-P 2ybc'
loop_
_symmetry_equiv_pos_site_id
_symmetry_equiv_pos_as_xyz
1 x,y,z
2 -x,1/2+y,1/2-z
3 -x,-y,-z
4 x,1/2-y,1/2+z
_cell_length_a                   14.4144(10)
_cell_length_b                   23.3964(17)
_cell_length_c                   15.5641(11)
_cell_angle_alpha                90
_cell_angle_beta                 107.6320(10)
_cell_angle_gamma                90
_cell_volume                     5002.33
loop_
_atom_site_label
_atom_site_type_symbol
_atom_site_fract_x
_atom_site_fract_y
_atom_site_fract_z
Cd1 Cd 0.24684(4) 0.44474(2) 0.58252(4)
Cd2 Cd 0.27371(5) 0.30844(3) 0.69252(4)
O1 O 0.4129(4) 0.4356(3) 0.6001(5)
O2 O 0.3375(4) 0.3523(3) 0.5912(4)
C1 C 0.4161(6) 0.3822(4) 0.6047(6)
C2 C 0.5103(6) 0.3524(4) 0.6252(7)
C3 C 0.6892(7) 0.2970(4) 0.6726(8)
C4 C 0.6040(7) 0.2663(4) 0.6361(7)
H1 H 0.6066 0.2273 0.6256
C5 C 0.5151(7) 0.2939(4) 0.6152(7)
H2 H 0.4579 0.2729 0.5941
C6 C 0.5971(7) 0.3834(4) 0.6571(8)
H3 H 0.5952 0.4230 0.6620
C7 C 0.6855(7) 0.3554(4) 0.6814(8)
H4 H 0.7428 0.3761 0.7038
O3 O 1.1600(4) 0.3810(3) 0.6323(5)
N1 N 0.7823(6) 0.2688(3) 0.6984(7)
C8 C 0.7345(7) 0.2016(4) 0.7967(7)
H5 H 0.6932 0.2290 0.8085
C9 C 0.7940(6) 0.2155(4) 0.7415(7)
O4 O 1.0451(5) 0.4072(2) 0.5093(4)
O5 O 0.1868(5) 0.2230(3) 0.7099(5)
O6 O 0.1666(5) 0.2585(3) 0.5761(5)
C10 C 0.9994(6) 0.3479(3) 0.6126(6)
C11 C 1.0702(6) 0.3806(3) 0.5806(7)
C12 C 0.0630(7) 0.1810(4) 0.5891(6)
C13 C 1.0207(6) 0.3278(4) 0.7006(7)
H6 H 1.0831 0.3323 0.7404
C14 C 0.7383(7) 0.1481(4) 0.8322(7)
H7 H 0.6952 0.1382 0.8638
C15 C 0.1441(7) 0.2229(4) 0.6287(7)
N2 N -0.1464(6) 0.0558(3) 0.4648(5)
C16 C -0.1828(7) 0.0175(4) 0.5193(6)
C17 C -0.1597(6) 0.0066(3) 0.2001(6)
C18 C -0.2321(7) 0.0108(4) 0.3215(6)
H8 H -0.2840 0.0029 0.3434
C19 C 0.9496(7) 0.3009(4) 0.7293(7)
H9 H 0.9640 0.2877 0.7882
C20 C -0.0813(7) 0.0371(4) 0.2537(6)
H10 H -0.0312 0.0473 0.2307
C21 C 0.0569(7) 0.1309(4) 0.6329(7)
H11 H 0.1003 0.1241 0.6898
C22 C -0.0137(7) 0.0898(4) 0.5933(6)
H12 H -0.0165 0.0559 0.6235
C23 C -0.2262(7) 0.0398(4) 0.5799(6)
H13 H -0.2327 0.0791 0.5846
C24 C 0.8620(6) 0.1763(4) 0.7317(7)
H14 H 0.9024 0.1852 0.6970
C25 C -0.1730(7) -0.0410(4) 0.5111(7)
H15 H -0.1437 -0.0557 0.4702
C26 C -0.1505(7) 0.0403(4) 0.3749(6)
C27 C -0.0790(7) 0.0996(4) 0.5097(7)
C28 C -0.0758(7) 0.0528(4) 0.3402(6)
H16 H -0.0210 0.0721 0.3756
C29 C 0.8696(6) 0.1234(4) 0.7744(6)
H17 H 0.9180 0.0980 0.7711
C30 C 0.8367(7) 0.3127(4) 0.5799(7)
H18 H 0.7754 0.3067 0.5389
C31 C -0.2521(7) -0.0551(5) 0.6281(6)
C32 C -0.0050(8) 0.1914(4) 0.5056(7)
H19 H -0.0019 0.2253 0.4755
C33 C 0.8572(6) 0.2938(4) 0.6697(7)
C34 C -0.2348(7) -0.0064(4) 0.2359(6)
H20 H -0.2880 -0.0272 0.2013
C35 C -0.2603(8) 0.0025(5) 0.6343(7)
H21 H -0.2892 0.0176 0.6753
C36 C -0.2077(7) -0.0774(4) 0.5655(7)
H22 H -0.2016 -0.1168 0.5606
C37 C 0.9065(7) 0.3395(4) 0.5540(7)
H23 H 0.8919 0.3526 0.4950
C38 C -0.0784(8) 0.1514(4) 0.4663(6)
H24 H -0.1258 0.1595 0.4121
C39 C 0.8053(6) 0.1080(4) 0.8221(6)
C40 C -0.1644(7) -0.0097(4) 0.1078(6)
O7 O -0.3247(6) -0.0739(4) 0.7428(6)
C41 C -0.2831(8) -0.0940(5) 0.6893(8)
O8 O -0.2245(5) -0.0480(3) 0.0666(4)
O9 O -0.1060(5) 0.0165(3) 0.0731(4)
C42 C 0.8068(7) 0.0496(4) 0.8605(6)
O10 O -0.2687(7) -0.1475(4) 0.6819(5)
O11 O 0.8778(5) 0.0167(2) 0.8686(4)
O12 O 0.7314(5) 0.0351(3) 0.8785(5)
O13 O 0.4117(6) 0.2596(4) 0.7640(6)
Cd3 Cd 1.0000 0.5000 0.5000
Cd1B Cd 1.75316(4) 0.55526(2) 0.41748(4)
Cd2B Cd 1.72629(5) 0.69156(3) 0.30748(4)
O1B O 1.5871(4) 0.5644(3) 0.3999(5)
O2B O 1.6625(4) 0.6477(3) 0.4088(4)
C1B C 1.5839(6) 0.6178(4) 0.3953(6)
C2B C 1.4897(6) 0.6476(4) 0.3748(7)
C3B C 1.3108(7) 0.7030(4) 0.3274(8)
C4B C 1.3960(7) 0.7337(4) 0.3639(7)
H1B H 1.3934 0.7727 0.3744
C5B C 1.4849(7) 0.7061(4) 0.3848(7)
H2B H 1.5421 0.7271 0.4059
C6B C 1.4029(7) 0.6166(4) 0.3429(8)
H3B H 1.4048 0.5770 0.3380
C7B C 1.3145(7) 0.6446(4) 0.3186(8)
H4B H 1.2572 0.6239 0.2962
O3B O 0.8400(4) 0.6190(3) 0.3677(5)
N1B N 1.2177(6) 0.7312(3) 0.3016(7)
C8B C 1.2655(7) 0.7984(4) 0.2033(7)
H5B H 1.3068 0.7710 0.1915
C9B C 1.2060(6) 0.7845(4) 0.2585(7)
O4B O 0.9549(5) 0.5928(2) 0.4907(4)
O5B O 1.8132(5) 0.7770(3) 0.2901(5)
O6B O 1.8334(5) 0.7415(3) 0.4239(5)
C10B C 1.0006(6) 0.6521(3) 0.3874(6)
C11B C 0.9298(6) 0.6194(3) 0.4194(7)
C12B C 1.9370(7) 0.8190(4) 0.4109(6)
C13B C 0.9793(6) 0.6722(4) 0.2994(7)
H6B H 0.9169 0.6677 0.2596
C14B C 1.2617(7) 0.8519(4) 0.1678(7)
H7B H 1.3048 0.8618 0.1362
C15B C 1.8559(7) 0.7771(4) 0.3713(7)
N2B N 2.1464(6) 0.9442(3) 0.5352(5)
C16B C 2.1828(7) 0.9825(4) 0.4807(6)
C17B C 2.1597(6) 0.9934(3) 0.7999(6)
C18B C 2.2321(7) 0.9892(4) 0.6785(6)
H8B H 2.2840 0.9971 0.6566
C19B C 1.0504(7) 0.6991(4) 0.2707(7)
H9B H 1.0360 0.7123 0.2118
C20B C 2.0813(7) 0.9629(4) 0.7463(6)
H10B H 2.0312 0.9527 0.7693
C21B C 1.9431(7) 0.8691(4) 0.3671(7)
H11B H 1.8997 0.8759 0.3102
C22B C 2.0137(7) 0.9102(4) 0.4067(6)
H12B H 2.0165 0.9441 0.3765
C23B C 2.2262(7) 0.9602(4) 0.4201(6)
H13B H 2.2327 0.9209 0.4154
C24B C 1.1380(6) 0.8237(4) 0.2683(7)
H14B H 1.0976 0.8148 0.3030
C25B C 2.1730(7) 1.0410(4) 0.4889(7)
H15B H 2.1437 1.0557 0.5298
C26B C 2.1505(7) 0.9597(4) 0.6251(6)
C27B C 2.0790(7) 0.9004(4) 0.4903(7)
C28B C 2.0758(7) 0.9472(4) 0.6598(6)
H16B H 2.0210 0.9279 0.6244
C29B C 1.1304(6) 0.8766(4) 0.2256(6)
H17B H 1.0820 0.9020 0.2289
C30B C 1.1633(7) 0.6873(4) 0.4201(7)
H18B H 1.2246 0.6933 0.4611
C31B C 2.2521(7) 1.0551(5) 0.3719(6)
C32B C 2.0050(8) 0.8086(4) 0.4944(7)
H19B H 2.0019 0.7747 0.5245
C33B C 1.1428(6) 0.7062(4) 0.3303(7)
C34B C 2.2348(7) 1.0064(4) 0.7641(6)
H20B H 2.2880 1.0272 0.7987
C35B C 2.2603(8) 0.9975(5) 0.3657(7)
H21B H 2.2892 0.9824 0.3247
C36B C 2.2077(7) 1.0774(4) 0.4345(7)
H22B H 2.2016 1.1168 0.4394
C37B C 1.0935(7) 0.6605(4) 0.4460(7)
H23B H 1.1081 0.6474 0.5050
C38B C 2.0784(8) 0.8486(4) 0.5337(6)
H24B H 2.1258 0.8405 0.5879
C39B C 1.1947(6) 0.8920(4) 0.1779(6)
C40B C 2.1644(7) 1.0097(4) 0.8922(6)
O7B O 2.3247(6) 1.0739(4) 0.2572(6)
C41B C 2.2831(8) 1.0940(5) 0.3107(8)
O8B O 2.2245(5) 1.0480(3) 0.9334(4)
O9B O 2.1060(5) 0.9835(3) 0.9269(4)
C42B C 1.1932(7) 0.9504(4) 0.1395(6)
O10B O 2.2687(7) 1.1475(4) 0.3181(5)
O11B O 1.1222(5) 0.9833(2) 0.1314(4)
O12B O 1.2686(5) 0.9649(3) 0.1215(5)
O13B O 1.5883(6) 0.7404(4) 0.2360(6)
Cd1_2 Cd 1.24684(4) 0.44474(2) 0.58252(4)
Cd1A Cd -0.24684(4) -0.05526(2) -0.08252(4)
Cd1A_2 Cd -0.24684(4) -0.05526(2) 0.91748(4)
Cd1A_3 Cd 0.75316(4) -0.05526(2) 0.91748(4)
Cd1B_2 Cd 0.75316(4) 0.55526(2) 0.41748(4)
Cd1C Cd 1.24684(4) 1.05526(2) 0.08252(4)
Cd1C_2 Cd 2.24684(4) 1.05526(2) 0.08252(4)
Cd1C_3 Cd 2.24684(4) 1.05526(2) 1.08252(4)
Cd2_2 Cd 1.27371(5) 0.30844(3) 0.69252(4)
Cd2A Cd -0.27371(5) -0.19156(3) 0.80748(4)
Cd2B_2 Cd 0.72629(5) 0.69156(3) 0.30748(4)
Cd2C Cd 2.27371(5) 1.19156(3) 0.19252(4)
O3_2 O 0.1600(4) 0.3810(3) 0.6323(5)
O3B_2 O 1.8400(4) 0.6190(3) 0.3677(5)
O7A O 0.3247(6) 0.4261(4) 0.7572(6)
O7C O 1.6753(6) 0.5739(4) 0.2428(6)
O8A O 0.2245(5) 0.4520(3) 0.4334(4)
O8C O 1.7755(5) 0.5480(3) 0.5666(4)
O9A O 1.1060(5) 0.5165(3) 0.4269(4)
O9C O 0.8940(5) 0.4835(3) 0.5731(4)
O10A O 0.2687(7) 0.3525(4) 0.8181(5)
O10C O 1.7313(7) 0.6475(4) 0.1819(5)
O11A O 0.1222(5) 0.5167(2) 0.6314(4)
O11A_2 O 1.1222(5) 0.5167(2) 0.6314(4)
O11C O 0.8778(5) 0.4833(2) 0.3686(4)
O11C_2 O 1.8778(5) 0.4833(2) 0.3686(4)
O12A O 0.2686(5) 0.5351(3) 0.6215(5)
O12C O 1.7314(5) 0.4649(3) 0.3785(5)
Cd3A Cd 0.0000 0.0000 0.0000
Cd3A_2 Cd 1.0000 0.0000 1.0000
Cd3A_3 Cd 1.0000 1.0000 0.0000
Cd3A_4 Cd 2.0000 1.0000 1.0000
loop_
_geom_bond_atom_site_label_1
_geom_bond_atom_site_label_2
_geom_bond_site_symmetry_1
_geom_bond_site_symmetry_2
Cd1 O1 1_555 1_555
Cd2 O2 1_555 1_555
O1 C1 1_555 1_555
O2 Cd1 1_555 1_555
C1 O2 1_555 1_555
C2 C1 1_555 1_555
C3 C4 1_555 1_555
C4 H1 1_555 1_555
C5 C2 1_555 1_555
H2 C5 1_555 1_555
C6 C2 1_555 1_555
H3 C6 1_555 1_555
C7 C3 1_555 1_555
H4 C7 1_555 1_555
O3 C11 1_555 1_555
N1 C3 1_555 1_555
C8 H5 1_555 1_555
C9 N1 1_555 1_555
O4 C11 1_555 1_555
O5 Cd2 1_555 1_555
O6 Cd2 1_555 1_555
C10 C11 1_555 1_555
C12 C15 1_555 1_555
C13 C10 1_555 1_555
H6 C13 1_555 1_555
C14 C8 1_555 1_555
H7 C14 1_555 1_555
C15 O5 1_555 1_555
N2 C16 1_555 1_555
C16 C23 1_555 1_555
C17 C20 1_555 1_555
C18 H8 1_555 1_555
C19 C13 1_555 1_555
H9 C19 1_555 1_555
C20 H10 1_555 1_555
C21 C12 1_555 1_555
H11 C21 1_555 1_555
C22 C21 1_555 1_555
H12 C22 1_555 1_555
C23 H13 1_555 1_555
C24 C9 1_555 1_555
H14 C24 1_555 1_555
C25 C16 1_555 1_555
H15 C25 1_555 1_555
C26 N2 1_555 1_555
C27 N2 1_555 1_555
C28 C20 1_555 1_555
H16 C28 1_555 1_555
C29 C24 1_555 1_555
H17 C29 1_555 1_555
C30 H18 1_555 1_555
C31 C35 1_555 1_555
C32 C12 1_555 1_555
H19 C32 1_555 1_555
C33 N1 1_555 1_555
C34 C17 1_555 1_555
H20 C34 1_555 1_555
C35 C23 1_555 1_555
H21 C35 1_555 1_555
C36 C25 1_555 1_555
H22 C36 1_555 1_555
C37 C10 1_555 1_555
H23 C37 1_555 1_555
C38 C27 1_555 1_555
H24 C38 1_555 1_555
C39 C14 1_555 1_555
C40 C17 1_555 1_555
O7 C41 1_555 1_555
C41 C31 1_555 1_555
O8 C40 1_555 1_555
O9 C40 1_555 1_555
C42 C39 1_555 1_555
O10 C41 1_555 1_555
O11 C42 1_555 1_555
O12 C42 1_555 1_555
O13 Cd2 1_555 1_555
Cd3 O4 1_555 1_555
Cd1B O1B 1_555 1_555
Cd2B O2B 1_555 1_555
O1B C1B 1_555 1_555
O2B Cd1B 1_555 1_555
C1B O2B 1_555 1_555
C2B C1B 1_555 1_555
C3B C4B 1_555 1_555
C4B H1B 1_555 1_555
C5B C2B 1_555 1_555
H2B C5B 1_555 1_555
C6B C2B 1_555 1_555
H3B C6B 1_555 1_555
C7B C3B 1_555 1_555
H4B C7B 1_555 1_555
O3B C11B 1_555 1_555
N1B C3B 1_555 1_555
C8B H5B 1_555 1_555
C9B N1B 1_555 1_555
O4B Cd3 1_555 1_555
O5B Cd2B 1_555 1_555
O6B Cd2B 1_555 1_555
C10B C11B 1_555 1_555
C11B O4B 1_555 1_555
C12B C15B 1_555 1_555
C13B C10B 1_555 1_555
H6B C13B 1_555 1_555
C14B C8B 1_555 1_555
H7B C14B 1_555 1_555
C15B O5B 1_555 1_555
N2B C16B 1_555 1_555
C16B C23B 1_555 1_555
C17B C20B 1_555 1_555
C18B H8B 1_555 1_555
C19B C13B 1_555 1_555
H9B C19B 1_555 1_555
C20B H10B 1_555 1_555
C21B C12B 1_555 1_555
H11B C21B 1_555 1_555
C22B C21B 1_555 1_555
H12B C22B 1_555 1_555
C23B H13B 1_555 1_555
C24B C9B 1_555 1_555
H14B C24B 1_555 1_555
C25B C16B 1_555 1_555
H15B C25B 1_555 1_555
C26B N2B 1_555 1_555
C27B N2B 1_555 1_555
C28B C20B 1_555 1_555
H16B C28B 1_555 1_555
C29B C24B 1_555 1_555
H17B C29B 1_555 1_555
C30B H18B 1_555 1_555
C31B C35B 1_555 1_555
C32B C12B 1_555 1_555
H19B C32B 1_555 1_555
C33B N1B 1_555 1_555
C34B C17B 1_555 1_555
H20B C34B 1_555 1_555
C35B C23B 1_555 1_555
H21B C35B 1_555 1_555
C36B C25B 1_555 1_555
H22B C36B 1_555 1_555
C37B C10B 1_555 1_555
H23B C37B 1_555 1_555
C38B C27B 1_555 1_555
H24B C38B 1_555 1_555
C39B C14B 1_555 1_555
C40B C17B 1_555 1_555
O7B C41B 1_555 1_555
C41B C31B 1_555 1_555
O8B C40B 1_555 1_555
O9B C40B 1_555 1_555
C42B C39B 1_555 1_555
O10B C41B 1_555 1_555
O11B C42B 1_555 1_555
O12B C42B 1_555 1_555
O13B Cd2B 1_555 1_555
Cd1_2 O3 1_555 1_555
Cd1A O8 1_555 1_555
Cd1A_2 O7 1_555 1_555
Cd1A_3 O11 1_555 1_555
Cd1B_2 O3B 1_555 1_555
Cd1C O11B 1_555 1_555
Cd1C_2 O7B 1_555 1_555
Cd1C_3 O8B 1_555 1_555
Cd2_2 O3 1_555 1_555
Cd2A O10 1_555 1_555
Cd2B_2 O3B 1_555 1_555
Cd2C O10B 1_555 1_555
O3_2 Cd1 1_555 1_555
O3B_2 Cd1B 1_555 1_555
O7A Cd1 1_555 1_555
O7C Cd1B 1_555 1_555
O8A Cd1 1_555 1_555
O8C Cd1B 1_555 1_555
O9A Cd3 1_555 1_555
O9C Cd3 1_555 1_555
O10A Cd2 1_555 1_555
O10C Cd2B 1_555 1_555
O11A Cd1 1_555 1_555
O11A_2 Cd3 1_555 1_555
O11C Cd3 1_555 1_555
O11C_2 Cd1B 1_555 1_555
O12A Cd1 1_555 1_555
O12C Cd1B 1_555 1_555
Cd3A O9 1_555 1_555
Cd3A_2 O11 1_555 1_555
Cd3A_3 O11B 1_555 1_555
Cd3A_4 O9B 1_555 1_555
Cd2 O3_2 1_555 1_555
C4 C5 1_555 1_555
C6 C7 1_555 1_555
C8 C9 1_555 1_555
O6 C15 1_555 1_555
C18 C26 1_555 1_555
C18 C34 1_555 1_555
C19 C33 1_555 1_555
C22 C27 1_555 1_555
C26 C28 1_555 1_555
C29 C39 1_555 1_555
C30 C33 1_555 1_555
C30 C37 1_555 1_555
C31 C36 1_555 1_555
C32 C38 1_555 1_555
O12 Cd1A_3 1_555 1_555
Cd2B O3B_2 1_555 1_555
C4B C5B 1_555 1_555
C6B C7B 1_555 1_555
C8B C9B 1_555 1_555
O6B C15B 1_555 1_555
C18B C26B 1_555 1_555
C18B C34B 1_555 1_555
C19B C33B 1_555 1_555
C22B C27B 1_555 1_555
C26B C28B 1_555 1_555
C29B C39B 1_555 1_555
C30B C33B 1_555 1_555
C30B C37B 1_555 1_555
C31B C36B 1_555 1_555
C32B C38B 1_555 1_555
O12B Cd1C 1_555 1_555
Cd1_2 O11A_2 1_555 1_555
Cd1B_2 O11C 1_555 1_555

#END
