
#######################################################################
#
#                 Cambridge Crystallographic Data Centre
#                                CCDC 
#
#######################################################################
#
# If this CIF has been generated from an entry in the Cambridge 
# Structural Database, then it will include bibliographic, chemical, 
# crystal, experimental, refinement or atomic coordinate data resulting 
# from the CCDC's data processing and validation procedures.
#
#######################################################################

data_AJOHUE
_symmetry_cell_setting           tetragonal
_symmetry_space_group_name_H-M   'I 41/a m d'
_symmetry_Int_Tables_number      141
_space_group_name_Hall           '-I 4bd 2'
loop_
_symmetry_equiv_pos_site_id
_symmetry_equiv_pos_as_xyz
1 x,y,z
2 -x,1/2-y,z
3 x,-y,-z
4 -x,1/2+y,-z
5 1/4-y,1/4-x,3/4-z
6 1/4+y,3/4+x,1/4-z
7 1/4+y,1/4-x,3/4+z
8 1/4-y,3/4+x,1/4+z
9 1/2+x,1/2+y,1/2+z
10 1/2-x,-y,1/2+z
11 1/2+x,1/2-y,1/2-z
12 1/2-x,y,1/2-z
13 3/4-y,3/4-x,1/4-z
14 3/4+y,1/4+x,3/4-z
15 3/4+y,3/4-x,1/4+z
16 3/4-y,1/4+x,3/4+z
17 -x,-y,-z
18 x,1/2+y,-z
19 -x,y,z
20 x,1/2-y,z
21 3/4+y,3/4+x,1/4+z
22 3/4-y,1/4-x,3/4+z
23 3/4-y,3/4+x,1/4-z
24 3/4+y,1/4-x,3/4-z
25 1/2-x,1/2-y,1/2-z
26 1/2+x,y,1/2-z
27 1/2-x,1/2+y,1/2+z
28 1/2+x,-y,1/2+z
29 1/4+y,1/4+x,3/4+z
30 1/4-y,3/4-x,1/4+z
31 1/4-y,1/4+x,3/4-z
32 1/4+y,3/4-x,1/4-z
_cell_length_a                   25.518(8)
_cell_length_b                   25.518(8)
_cell_length_c                   11.288(4)
_cell_angle_alpha                90
_cell_angle_beta                 90
_cell_angle_gamma                90
_cell_volume                     7350.39
loop_
_atom_site_label
_atom_site_type_symbol
_atom_site_fract_x
_atom_site_fract_y
_atom_site_fract_z
In1 In 0.5000 0.2500 0.6250
O1 O 0.43953(14) 0.2500 0.7779(4)
O2 O 0.41452(15) 0.2500 0.5927(4)
C1 C 0.4040(2) 0.2500 0.7011(7)
C2 C 0.2571(2) 0.2500 0.6899(6)
C3 C 0.3482(2) 0.2500 0.7401(6)
C4 C 0.3098(2) 0.2500 0.6562(6)
H1 H 0.3187 0.2500 0.5763
C5 C 0.2848(2) 0.2500 0.8967(6)
C6 C 0.3356(2) 0.2500 0.8598(6)
H2 H 0.3624 0.2500 0.9157
O3 O 0.2413(3) 0.2962(3) 1.0699(5)
S1 S 0.27138(13) 0.2671(3) 1.0473(3)
O1K O 0.06047(14) 0.2500 0.7221(4)
O2K O 0.08548(15) 0.2500 0.9073(4)
C1K C 0.0960(2) 0.2500 0.7989(7)
C2K C 0.2429(2) 0.2500 0.8101(6)
C3K C 0.1518(2) 0.2500 0.7599(6)
C4K C 0.1902(2) 0.2500 0.8438(6)
H1K H 0.1813 0.2500 0.9237
C5K C 0.2152(2) 0.2500 0.6033(6)
C6K C 0.1644(2) 0.2500 0.6402(6)
H2K H 0.1376 0.2500 0.5843
O3K O 0.2587(3) 0.2962(3) 0.4301(5)
S1K S 0.22862(13) 0.2671(3) 0.4527(3)
O3S O 0.2413(3) 0.2038(3) 1.0699(5)
S1S S 0.27138(13) 0.2329(3) 1.0473(3)
O3X O 0.2587(3) 0.2038(3) 0.4301(5)
S1X S 0.22862(13) 0.2329(3) 0.4527(3)
O1A O 0.56047(14) 0.2500 0.7779(4)
O2A O 0.58548(15) 0.2500 0.5927(4)
C1A C 0.5960(2) 0.2500 0.7011(7)
C2A C 0.7429(2) 0.2500 0.6899(6)
C3A C 0.6518(2) 0.2500 0.7401(6)
C4A C 0.6902(2) 0.2500 0.6562(6)
H1A H 0.6813 0.2500 0.5763
C5A C 0.7152(2) 0.2500 0.8967(6)
C6A C 0.6644(2) 0.2500 0.8598(6)
H2A H 0.6376 0.2500 0.9157
O3A O 0.7587(3) 0.2038(3) 1.0699(5)
S1A S 0.72862(13) 0.2329(3) 1.0473(3)
O1J O 0.93953(14) 0.2500 0.7221(4)
O2J O 0.91452(15) 0.2500 0.9073(4)
C1J C 0.9040(2) 0.2500 0.7989(7)
C2J C 0.7571(2) 0.2500 0.8101(6)
C3J C 0.8482(2) 0.2500 0.7599(6)
C4J C 0.8098(2) 0.2500 0.8438(6)
H1J H 0.8187 0.2500 0.9237
C5J C 0.7848(2) 0.2500 0.6033(6)
C6J C 0.8356(2) 0.2500 0.6402(6)
H2J H 0.8624 0.2500 0.5843
O3J O 0.7413(3) 0.2038(3) 0.4301(5)
S1J S 0.77138(13) 0.2329(3) 0.4527(3)
O3R O 0.7587(3) 0.2962(3) 1.0699(5)
S1R S 0.72862(13) 0.2671(3) 1.0473(3)
O3Y O 0.7413(3) 0.2962(3) 0.4301(5)
S1Y S 0.77138(13) 0.2671(3) 0.4527(3)
In1G In 0.0000 0.2500 0.8750
In1G_2 In 1.0000 0.2500 0.8750
O1E O 0.5000 0.18953(14) 0.4721(4)
O1L O 0.5000 0.31047(14) 0.4721(4)
O2E O 0.5000 0.16452(15) 0.6573(4)
O2L O 0.5000 0.33548(15) 0.6573(4)
O4 O 0.3212(3) 0.2741(4) 1.1035(7)
O4S O 0.3212(3) 0.2259(4) 1.1035(7)
O4K O 0.1788(3) 0.2741(4) 0.3965(7)
O4X O 0.1788(3) 0.2259(4) 0.3965(7)
O4A O 0.6788(3) 0.2259(4) 1.1035(7)
O4R O 0.6788(3) 0.2741(4) 1.1035(7)
O4J O 0.8212(3) 0.2259(4) 0.3965(7)
O4Y O 0.8212(3) 0.2741(4) 0.3965(7)
loop_
_geom_bond_atom_site_label_1
_geom_bond_atom_site_label_2
_geom_bond_site_symmetry_1
_geom_bond_site_symmetry_2
In1 O1 1_555 1_555
O1 C1 1_555 1_555
O2 In1 1_555 1_555
C1 O2 1_555 1_555
C2 C4 1_555 1_555
C3 C1 1_555 1_555
C4 C3 1_555 1_555
H1 C4 1_555 1_555
C5 C6 1_555 1_555
C6 C3 1_555 1_555
H2 C6 1_555 1_555
O3 S1 1_555 1_555
S1 C5 1_555 1_555
O4 O4S 1_555 1_555
O1K C1K 1_555 1_555
O2K C1K 1_555 1_555
C1K C3K 1_555 1_555
C2K C2 1_555 1_555
C3K C4K 1_555 1_555
C4K C2K 1_555 1_555
H1K C4K 1_555 1_555
C5K C2 1_555 1_555
C6K C3K 1_555 1_555
H2K C6K 1_555 1_555
O3K S1K 1_555 1_555
S1K C5K 1_555 1_555
O3S S1 1_555 1_555
S1S C5 1_555 1_555
O3X S1K 1_555 1_555
S1X C5K 1_555 1_555
O1A In1 1_555 1_555
O2A In1 1_555 1_555
C1A O1A 1_555 1_555
C2A C4A 1_555 1_555
C3A C1A 1_555 1_555
C4A C3A 1_555 1_555
H1A C4A 1_555 1_555
C5A C6A 1_555 1_555
C6A C3A 1_555 1_555
H2A C6A 1_555 1_555
O3A S1A 1_555 1_555
S1A C5A 1_555 1_555
O1J C1J 1_555 1_555
O2J C1J 1_555 1_555
C1J C3J 1_555 1_555
C2J C2A 1_555 1_555
C3J C4J 1_555 1_555
C4J C2J 1_555 1_555
H1J C4J 1_555 1_555
C5J C2A 1_555 1_555
C6J C3J 1_555 1_555
H2J C6J 1_555 1_555
O3J S1J 1_555 1_555
S1J C5J 1_555 1_555
O3R S1A 1_555 1_555
S1R C5A 1_555 1_555
O3Y S1J 1_555 1_555
S1Y C5J 1_555 1_555
In1G O1K 1_555 1_555
In1G_2 O1J 1_555 1_555
O1E In1 1_555 1_555
O1L In1 1_555 1_555
O2E In1 1_555 1_555
O2L In1 1_555 1_555
O4K O4X 1_555 1_555
O4A O4R 1_555 1_555
O4J O4Y 1_555 1_555
C5 C2K 1_555 1_555
O3 S1S 1_555 1_555
S1 S1S 1_555 1_555
O2K In1G 1_555 1_555
C5K C6K 1_555 1_555
O3K S1X 1_555 1_555
S1K S1X 1_555 1_555
O3S S1S 1_555 1_555
O3X S1X 1_555 1_555
O2A C1A 1_555 1_555
C5A C2J 1_555 1_555
O3A S1R 1_555 1_555
S1A S1R 1_555 1_555
O2J In1G_2 1_555 1_555
C5J C6J 1_555 1_555
O3J S1Y 1_555 1_555
S1J S1Y 1_555 1_555
O3R S1R 1_555 1_555
O3Y S1Y 1_555 1_555

#END
