
#######################################################################
#
#                 Cambridge Crystallographic Data Centre
#                                CCDC 
#
#######################################################################
#
# If this CIF has been generated from an entry in the Cambridge 
# Structural Database, then it will include bibliographic, chemical, 
# crystal, experimental, refinement or atomic coordinate data resulting 
# from the CCDC's data processing and validation procedures.
#
#######################################################################

data_ALEQIS
_symmetry_cell_setting           orthorhombic
_symmetry_space_group_name_H-M   'P b c a'
_symmetry_Int_Tables_number      61
_space_group_name_Hall           '-P 2ac 2ab'
loop_
_symmetry_equiv_pos_site_id
_symmetry_equiv_pos_as_xyz
1 x,y,z
2 1/2-x,-y,1/2+z
3 -x,1/2+y,1/2-z
4 1/2+x,1/2-y,-z
5 -x,-y,-z
6 1/2+x,y,1/2-z
7 x,1/2-y,1/2+z
8 1/2-x,1/2+y,z
_cell_length_a                   3.9754(4)
_cell_length_b                   11.7583(11)
_cell_length_c                   27.807(3)
_cell_angle_alpha                90
_cell_angle_beta                 90
_cell_angle_gamma                90
_cell_volume                     1299.81
loop_
_atom_site_label
_atom_site_type_symbol
_atom_site_fract_x
_atom_site_fract_y
_atom_site_fract_z
Ag1 Ag 0.0595(3) 0.38886(7) 0.02493(3)
N1 N 0.599(3) 0.5606(10) 0.1370(4)
C1 C 0.747(4) 0.5561(13) 0.1843(5)
H1 H 0.5823 0.5304 0.2071
H2 H 0.8243 0.6305 0.1933
H3 H 0.9339 0.5043 0.1841
C2 C 0.458(3) 0.4706(11) 0.1161(4)
O1 O 0.433(3) 0.3714(7) 0.1310(4)
N2 N 0.329(2) 0.5068(7) 0.0694(3)
C3 C 0.388(3) 0.6140(11) 0.0657(5)
O2 O 0.299(3) 0.6770(7) 0.0302(3)
C4 C 0.566(4) 0.6603(11) 0.1081(5)
H4 H 0.7844 0.6913 0.0995
H5 H 0.4347 0.7184 0.1242
Ag1D Ag -0.0595(3) 0.61114(7) -0.02493(3)
Ag1G Ag 0.4405(3) 0.88886(7) 0.02493(3)
O2D O -0.299(3) 0.3230(7) -0.0302(3)
O2G O 0.201(3) 0.1770(7) 0.0302(3)
O3 O 0.302(8) 0.2913(19) 0.2220(6)
H6 H 0.3615 0.3127 0.1899
H7 H 0.1214 0.3119 0.2329
loop_
_geom_bond_atom_site_label_1
_geom_bond_atom_site_label_2
_geom_bond_site_symmetry_1
_geom_bond_site_symmetry_2
Ag1 N2 1_555 1_555
N1 C1 1_555 1_555
C1 H1 1_555 1_555
H2 C1 1_555 1_555
H3 C1 1_555 1_555
C2 N1 1_555 1_555
O1 C2 1_555 1_555
N2 C2 1_555 1_555
C3 N2 1_555 1_555
O2 C3 1_555 1_555
C4 N1 1_555 1_555
H4 C4 1_555 1_555
H5 C4 1_555 1_555
O3 H6 1_555 1_555
H7 O3 1_555 1_555
Ag1D O2 1_555 1_555
Ag1G O2 1_555 1_555
O2D Ag1 1_555 1_555
O2G Ag1 1_555 1_555
C3 C4 1_555 1_555

#END
