
#######################################################################
#
#                 Cambridge Crystallographic Data Centre
#                                CCDC 
#
#######################################################################
#
# If this CIF has been generated from an entry in the Cambridge 
# Structural Database, then it will include bibliographic, chemical, 
# crystal, experimental, refinement or atomic coordinate data resulting 
# from the CCDC's data processing and validation procedures.
#
#######################################################################

data_ALIPEQ
_symmetry_cell_setting           hexagonal
_symmetry_space_group_name_H-M   'P 64 2 2'
_symmetry_Int_Tables_number      181
_space_group_name_Hall           "P 64 2' (0,0,2)"
loop_
_symmetry_equiv_pos_site_id
_symmetry_equiv_pos_as_xyz
1 x,y,z
2 -y,x-y,1/3+z
3 -x+y,-x,2/3+z
4 -x,-y,z
5 y,-x+y,1/3+z
6 x-y,x,2/3+z
7 y,x,1/3-z
8 x-y,-y,-z
9 -x,-x+y,2/3-z
10 -y,-x,1/3-z
11 -x+y,y,-z
12 x,x-y,2/3-z
_cell_length_a                   8.7930(10)
_cell_length_b                   8.7930(10)
_cell_length_c                   24.5300(10)
_cell_angle_alpha                90
_cell_angle_beta                 90
_cell_angle_gamma                120
_cell_volume                     1642.49
loop_
_atom_site_label
_atom_site_type_symbol
_atom_site_fract_x
_atom_site_fract_y
_atom_site_fract_z
Cd1 Cd 0.5000 0.5000 0.6667
Zr1 Zr 1.0000 0.5000 0.8333
O1 O 0.5638(11) 0.3060(10) 0.7236(4)
O2 O 0.9112(9) 0.6580(9) 0.7866(3)
O3 O 0.7405(10) 0.6602(9) 0.7195(3)
O4 O 0.7682(12) 0.3167(9) 0.7809(3)
C1 C 0.7033(11) 0.3827(11) 0.7505(3)
C2 C 0.7888(9) 0.5841(11) 0.7517(3)
O1C O 0.4362(11) 0.6940(10) 0.7236(4)
O2C O 0.0888(9) 0.3420(9) 0.7866(3)
O3C O 0.2595(10) 0.3398(9) 0.7195(3)
O4C O 0.2318(12) 0.6833(9) 0.7809(3)
C1C C 0.2967(11) 0.6173(11) 0.7505(3)
C2C C 0.2112(9) 0.4159(11) 0.7517(3)
O1F O 0.3060(10) 0.5638(11) 0.6097(4)
O2F O 0.6580(9) 0.9112(9) 0.5467(3)
O3F O 0.6602(9) 0.7405(10) 0.6138(3)
O4F O 0.3167(9) 0.7682(12) 0.5524(3)
C1F C 0.3827(11) 0.7033(11) 0.5828(3)
C2F C 0.5841(11) 0.7888(9) 0.5816(3)
O1I O 0.6940(10) 0.4362(11) 0.6097(4)
O2I O 0.3420(9) 0.0888(9) 0.5467(3)
O3I O 0.3398(9) 0.2595(10) 0.6138(3)
O4I O 0.6833(9) 0.2318(12) 0.5524(3)
C1I C 0.6173(11) 0.2967(11) 0.5828(3)
C2I C 0.4159(11) 0.2112(9) 0.5816(3)
O2C_2 O 1.0888(9) 0.3420(9) 0.7866(3)
O2H O 1.0888(9) 0.7468(13) 0.8801(3)
O2K O 0.9112(9) 0.2532(13) 0.8801(3)
O4C_2 O 1.2318(12) 0.6833(9) 0.7809(3)
O4H O 1.2318(12) 0.5485(15) 0.8858(3)
O4K O 0.7682(12) 0.4515(15) 0.8858(3)
Zr1_2 Zr 0.0000 0.5000 0.8333
Zr1B Zr 0.5000 1.0000 0.5000
Zr1B_2 Zr 0.5000 0.0000 0.5000
Na1 Na 1.0000 0.0000 0.8333
Na2 Na 1.0000 1.0000 0.6667
O5 O 0.5000 0.5000 0.8339(6)
O6 O 0.2063(18) 0.0186(16) 0.7560(4)
O7 O 1.0000 0.5000 0.6674(6)
loop_
_geom_bond_atom_site_label_1
_geom_bond_atom_site_label_2
_geom_bond_site_symmetry_1
_geom_bond_site_symmetry_2
Cd1 O1 1_555 1_555
Zr1 O2 1_555 1_555
O1 C1 1_555 1_555
O2 C2 1_555 1_555
O3 Cd1 1_555 1_555
O4 Zr1 1_555 1_555
C1 O4 1_555 1_555
C2 O3 1_555 1_555
O1C Cd1 1_555 1_555
O2C C2C 1_555 1_555
O3C Cd1 1_555 1_555
O4C C1C 1_555 1_555
C1C O1C 1_555 1_555
C2C O3C 1_555 1_555
O1F Cd1 1_555 1_555
O2F C2F 1_555 1_555
O3F Cd1 1_555 1_555
O4F C1F 1_555 1_555
C1F O1F 1_555 1_555
C2F O3F 1_555 1_555
O1I Cd1 1_555 1_555
O2I C2I 1_555 1_555
O3I Cd1 1_555 1_555
O4I C1I 1_555 1_555
C1I O1I 1_555 1_555
C2I O3I 1_555 1_555
O2C_2 Zr1 1_555 1_555
O2H Zr1 1_555 1_555
O2K Zr1 1_555 1_555
O4C_2 Zr1 1_555 1_555
O4H Zr1 1_555 1_555
O4K Zr1 1_555 1_555
Zr1_2 O2C 1_555 1_555
Zr1B O2F 1_555 1_555
Zr1B_2 O2I 1_555 1_555
C1 C2 1_555 1_555
O4C Zr1_2 1_555 1_555
C1C C2C 1_555 1_555
O4F Zr1B 1_555 1_555
C1F C2F 1_555 1_555
O4I Zr1B_2 1_555 1_555
C1I C2I 1_555 1_555

#END
