
#######################################################################
#
#                 Cambridge Crystallographic Data Centre
#                                CCDC 
#
#######################################################################
#
# If this CIF has been generated from an entry in the Cambridge 
# Structural Database, then it will include bibliographic, chemical, 
# crystal, experimental, refinement or atomic coordinate data resulting 
# from the CCDC's data processing and validation procedures.
#
#######################################################################

data_ALUKOI
_symmetry_cell_setting           monoclinic
_symmetry_space_group_name_H-M   'C 2/c'
_symmetry_Int_Tables_number      15
_space_group_name_Hall           '-C 2yn'
loop_
_symmetry_equiv_pos_site_id
_symmetry_equiv_pos_as_xyz
1 x,y,z
2 -x,y,1/2-z
3 1/2+x,1/2+y,z
4 1/2-x,1/2+y,1/2-z
5 -x,-y,-z
6 x,-y,1/2+z
7 1/2-x,1/2-y,-z
8 1/2+x,1/2-y,1/2+z
_cell_length_a                   27.4670(13)
_cell_length_b                   16.838(2)
_cell_length_c                   27.9632(11)
_cell_angle_alpha                90
_cell_angle_beta                 101.776(3)
_cell_angle_gamma                90
_cell_volume                     12660.5
loop_
_atom_site_label
_atom_site_type_symbol
_atom_site_fract_x
_atom_site_fract_y
_atom_site_fract_z
C1 C 0.13881(17) 0.7841(3) 0.10971(15)
C2 C 0.10120(17) 0.8066(2) 0.13885(15)
C3 C 0.11777(17) 0.7957(2) 0.18965(15)
H1 H 0.1509 0.7841 0.2028
C4 C 0.08277(16) 0.8027(2) 0.21991(15)
H2 H 0.0931 0.8007 0.2537
C5 C 0.03310(18) 0.8127(3) 0.19912(17)
C6 C 0.01572(18) 0.8153(3) 0.14747(16)
H3 H -0.0178 0.8228 0.1337
C7 C 0.05059(16) 0.8064(2) 0.11908(16)
H4 H 0.0400 0.7999 0.0855
C8 C 0.32747(16) 0.7486(2) 0.07698(14)
C9 C 0.36573(16) 0.7472(2) 0.12269(16)
C10 C 0.41512(18) 0.7481(2) 0.12057(15)
H5 H 0.4236 0.7493 0.0900
C11 C 0.45249(19) 0.7473(2) 0.16113(17)
H6 H 0.4856 0.7468 0.1583
C12 C 0.44033(19) 0.7474(2) 0.20493(16)
C13 C 0.39091(18) 0.7493(2) 0.21140(15)
H7 H 0.3837 0.7513 0.2424
C14 C 0.35190(16) 0.7480(2) 0.16837(15)
H8 H 0.3186 0.7477 0.1707
C15 C 0.23223(17) 0.8976(3) 0.01899(15)
C16 C 0.24126(15) 0.9820(2) 0.01253(15)
C17 C 0.21463(16) 1.0353(3) 0.03603(14)
H9 H 0.1938 1.0171 0.0561
C18 C 0.2201(2) 1.1153(3) 0.02860(17)
H10 H 0.2019 1.1516 0.0428
C19 C 0.25415(16) 1.1437(2) -0.00140(14)
C20 C 0.28006(16) 1.0909(3) -0.02100(16)
H11 H 0.3028 1.1092 -0.0389
C21 C 0.27483(14) 1.0102(3) -0.01605(14)
H12 H 0.2929 0.9749 -0.0311
C22 C 0.20118(18) 0.4965(2) 0.13368(16)
H13 H 0.1737 0.4789 0.1090
H14 H 0.2004 0.4698 0.1638
H15 H 0.2318 0.4845 0.1237
C23 C 0.23651(18) 0.6279(3) 0.19937(16)
H16 H 0.2549 0.5823 0.2138
H17 H 0.2165 0.6478 0.2211
H18 H 0.2593 0.6683 0.1937
C24 C 0.05312(15) 0.5942(2) 0.04707(16)
H19 H 0.0479 0.5380 0.0431
H20 H 0.0215 0.6207 0.0426
H21 H 0.0719 0.6050 0.0793
C25 C 0.08625(16) 0.5465(2) -0.04030(13)
H22 H 0.0899 0.5655 -0.0717
H23 H 0.0551 0.5190 -0.0435
H24 H 0.1130 0.5108 -0.0276
Sm1 Sm 0.201089(8) 0.732341(12) 0.046101(7)
N1 N -0.00551(16) 0.8145(2) 0.22520(14)
N2 N 0.47485(15) 0.7508(2) 0.24909(15)
N3 N 0.26442(13) 1.22020(19) -0.00498(12)
O1 O 0.18370(11) 0.77417(16) 0.12601(10)
O2 O 0.11994(11) 0.77652(18) 0.06314(11)
O3 O 0.33845(10) 0.74659(15) 0.03498(10)
O4 O 0.28347(11) 0.75252(14) 0.08607(10)
O5 O 0.25349(11) 0.85048(16) -0.00286(10)
O6 O 0.20188(10) 0.87746(16) 0.04619(9)
O7 O 0.22320(10) 0.62710(15) 0.10256(9)
O8 O 0.14044(10) 0.62754(17) 0.02639(10)
S1 S 0.19677(4) 0.59972(6) 0.14193(4)
S2 S 0.08762(4) 0.63067(6) 0.00144(4)
C1A C -0.13881(17) 0.7841(3) 0.39029(15)
C2A C -0.10120(17) 0.8066(2) 0.36115(15)
C3A C -0.11777(17) 0.7957(2) 0.31035(15)
H1A H -0.1509 0.7841 0.2972
C4A C -0.08277(16) 0.8027(2) 0.28009(15)
H2A H -0.0931 0.8007 0.2463
C5A C -0.03310(18) 0.8127(3) 0.30088(17)
C6A C -0.01572(18) 0.8153(3) 0.35253(16)
H3A H 0.0178 0.8228 0.3663
C7A C -0.05059(16) 0.8064(2) 0.38092(16)
H4A H -0.0400 0.7999 0.4145
C8A C 0.67253(16) 0.7486(2) 0.42302(14)
C9A C 0.63427(16) 0.7472(2) 0.37731(16)
C10A C 0.58488(18) 0.7481(2) 0.37943(15)
H5A H 0.5764 0.7493 0.4100
C11A C 0.54751(19) 0.7473(2) 0.33887(17)
H6A H 0.5144 0.7468 0.3417
C12A C 0.55967(19) 0.7474(2) 0.29507(16)
C13A C 0.60909(18) 0.7493(2) 0.28860(15)
H7A H 0.6163 0.7513 0.2576
C14A C 0.64810(16) 0.7480(2) 0.33163(15)
H8A H 0.6814 0.7477 0.3293
C15F C 0.26777(17) 1.6024(3) -0.01899(15)
C16F C 0.25874(15) 1.5180(2) -0.01253(15)
C17F C 0.28537(16) 1.4647(3) -0.03603(14)
H9F H 0.3062 1.4829 -0.0561
C18F C 0.2799(2) 1.3847(3) -0.02860(17)
H10F H 0.2981 1.3484 -0.0428
C19F C 0.24585(16) 1.3563(2) 0.00140(14)
C20F C 0.21994(16) 1.4091(3) 0.02100(16)
H11F H 0.1972 1.3908 0.0389
C21F C 0.22517(14) 1.4898(3) 0.01605(14)
H12F H 0.2071 1.5251 0.0311
C22A C -0.20118(18) 0.4965(2) 0.36632(16)
H13A H -0.1737 0.4789 0.3910
H14A H -0.2004 0.4698 0.3362
H15A H -0.2318 0.4845 0.3763
C23A C -0.23651(18) 0.6279(3) 0.30063(16)
H16A H -0.2549 0.5823 0.2862
H17A H -0.2165 0.6478 0.2789
H18A H -0.2593 0.6683 0.3063
C24A C -0.05312(15) 0.5942(2) 0.45293(16)
H19A H -0.0479 0.5380 0.4569
H20A H -0.0215 0.6207 0.4574
H21A H -0.0719 0.6050 0.4207
C25A C -0.08625(16) 0.5465(2) 0.54030(13)
H22A H -0.0899 0.5655 0.5717
H23A H -0.0551 0.5190 0.5435
H24A H -0.1130 0.5108 0.5276
Sm1A Sm -0.201089(8) 0.732341(12) 0.453899(7)
Sm1F Sm 0.298911(8) 0.767659(12) -0.046101(7)
Sm1G Sm 0.701089(8) 0.767659(12) 0.546101(7)
Sm1A_2 Sm 0.798911(8) 0.732341(12) 0.453899(7)
Sm1_2 Sm 0.201089(8) 1.732341(12) 0.046101(7)
Sm1F_2 Sm 0.298911(8) 1.767659(12) -0.046101(7)
N1A N 0.00551(16) 0.8145(2) 0.27480(14)
N2A N 0.52515(15) 0.7508(2) 0.25091(15)
N3F N 0.23558(13) 1.27980(19) 0.00498(12)
O1A O -0.18370(11) 0.77417(16) 0.37399(10)
O2A O -0.11994(11) 0.77652(18) 0.43686(11)
O3A O 0.66155(10) 0.74659(15) 0.46502(10)
O3F O 0.16155(10) 0.75341(15) -0.03498(10)
O3G O -0.16155(10) 0.75341(15) 0.53498(10)
O4A O 0.71653(11) 0.75252(14) 0.41393(10)
O4A_2 O -0.28347(11) 0.75252(14) 0.41393(10)
O5F O 0.24651(11) 1.64952(16) 0.00286(10)
O5F_2 O 0.24651(11) 0.64952(16) 0.00286(10)
O5G O -0.24651(11) 0.64952(16) 0.49714(10)
O6F O 0.29812(10) 1.62254(16) -0.04619(9)
O6A O -0.20188(10) 0.87746(16) 0.45381(9)
O7A O -0.22320(10) 0.62710(15) 0.39744(9)
O8A O -0.14044(10) 0.62754(17) 0.47361(10)
S1A S -0.19677(4) 0.59972(6) 0.35807(4)
S2A S -0.08762(4) 0.63067(6) 0.49856(4)
C26 C 0.30790(19) 0.4106(3) 0.22457(18)
H25 H 0.3235 0.4546 0.2436
H26 H 0.3052 0.4218 0.1905
H27 H 0.3275 0.3636 0.2331
C27 C 0.23251(19) 0.2958(3) 0.24782(17)
H28 H 0.2311 0.2681 0.2176
H29 H 0.2027 0.2855 0.2597
H30 H 0.2608 0.2778 0.2714
O9 O 0.23351(12) 0.42939(19) 0.28809(11)
S3 S 0.23756(5) 0.39315(7) 0.23874(4)
C28 C 0.60938(19) 0.0896(3) 0.66910(17)
H31 H 0.6161 0.0438 0.6510
H32 H 0.6402 0.1126 0.6857
H33 H 0.5911 0.1279 0.6470
C29 C 0.50055(18) 0.0657(3) 0.69069(19)
H34 H 0.4863 0.1032 0.7097
H35 H 0.4858 0.0145 0.6927
H36 H 0.4944 0.0828 0.6572
O10 O 0.57851(11) -0.02593(17) 0.72094(9)
S4 S 0.57129(5) 0.05902(6) 0.71551(4)
C30 C 0.38576(18) 0.5868(3) 0.37540(17)
H37 H 0.3509 0.5744 0.3680
H38 H 0.3902 0.6429 0.3719
H39 H 0.3997 0.5711 0.4084
C31 C 0.49321(18) 0.5600(3) 0.33637(18)
H40 H 0.5079 0.5220 0.3180
H41 H 0.5104 0.5588 0.3699
H42 H 0.4957 0.6122 0.3232
O11 O 0.38590(12) 0.56425(19) 0.28525(11)
S5 S 0.41818(4) 0.53162(6) 0.33198(4)
O12 O 0.3989(3) 0.1179(4) 0.1625(3)
H43 H 0.3822 0.1609 0.1591
H44 H 0.3941 0.0935 0.1878
O13 O 0.4361(3) 0.1391(5) 0.1144(3)
H45 H 0.4275 0.1599 0.0862
H46 H 0.4490 0.1744 0.1349
O14 O 0.1408(4) 0.7497(5) 0.4290(3)
H47 H 0.1500 0.7888 0.4137
H48 H 0.1103 0.7395 0.4173
O15 O 0.1761(3) 0.5683(4) 0.8958(3)
H49 H 0.1686 0.5500 0.9218
H50 H 0.1503 0.5680 0.8728
O16 O 0.4881(3) 0.3883(5) 0.4889(3)
H51 H 0.5157 0.3688 0.4851
H52 H 0.4921 0.4111 0.5166
O17 O 0.6364(3) 0.5531(4) 0.8591(3)
H53 H 0.6447 0.5115 0.8761
H54 H 0.6143 0.5784 0.8704
O18 O 0.2279(3) 0.3639(5) 0.8162(3)
H55 H 0.2193 0.3675 0.8437
H56 H 0.2094 0.3940 0.7956
O19 O 0.2439(4) 0.2441(7) 0.8624(4)
H57 H 0.2163 0.2212 0.8628
H58 H 0.2593 0.2529 0.8916
O20 O 0.0726(3) 0.0293(6) 0.4738(3)
H59 H 0.0712 -0.0212 0.4734
H60 H 0.0434 0.0483 0.4652
O21 O 0.4085(3) 0.8199(6) 0.4488(4)
H61 H 0.3871 0.8170 0.4220
H62 H 0.3942 0.8351 0.4715
O22 O 0.4530(4) 0.7198(7) 0.4500(4)
H63 H 0.4751 0.7203 0.4764
H64 H 0.4349 0.6787 0.4493
loop_
_geom_bond_atom_site_label_1
_geom_bond_atom_site_label_2
_geom_bond_site_symmetry_1
_geom_bond_site_symmetry_2
C1 C2 1_555 1_555
C2 C3 1_555 1_555
C3 H1 1_555 1_555
C4 C3 1_555 1_555
H2 C4 1_555 1_555
C5 C4 1_555 1_555
C6 C5 1_555 1_555
H3 C6 1_555 1_555
C7 C2 1_555 1_555
H4 C7 1_555 1_555
C8 C9 1_555 1_555
C9 C10 1_555 1_555
C10 H5 1_555 1_555
C11 C10 1_555 1_555
H6 C11 1_555 1_555
C12 C11 1_555 1_555
C13 C12 1_555 1_555
H7 C13 1_555 1_555
C14 C9 1_555 1_555
H8 C14 1_555 1_555
C15 C16 1_555 1_555
C16 C17 1_555 1_555
C17 H9 1_555 1_555
C18 C17 1_555 1_555
H10 C18 1_555 1_555
C19 C18 1_555 1_555
C20 C19 1_555 1_555
H11 C20 1_555 1_555
C21 C16 1_555 1_555
H12 C21 1_555 1_555
C22 H13 1_555 1_555
H14 C22 1_555 1_555
H15 C22 1_555 1_555
C23 H16 1_555 1_555
H17 C23 1_555 1_555
H18 C23 1_555 1_555
C24 H19 1_555 1_555
H20 C24 1_555 1_555
H21 C24 1_555 1_555
C25 H22 1_555 1_555
H23 C25 1_555 1_555
H24 C25 1_555 1_555
C26 H25 1_555 1_555
H26 C26 1_555 1_555
H27 C26 1_555 1_555
C27 H28 1_555 1_555
H29 C27 1_555 1_555
H30 C27 1_555 1_555
C28 H31 1_555 1_555
H32 C28 1_555 1_555
H33 C28 1_555 1_555
C29 H34 1_555 1_555
H35 C29 1_555 1_555
H36 C29 1_555 1_555
C30 H37 1_555 1_555
H38 C30 1_555 1_555
H39 C30 1_555 1_555
C31 H40 1_555 1_555
H41 C31 1_555 1_555
H42 C31 1_555 1_555
Sm1 O1 1_555 1_555
N1 C5 1_555 1_555
N2 C12 1_555 1_555
N3 C19 1_555 1_555
O1 C1 1_555 1_555
O2 C1 1_555 1_555
O3 C8 1_555 1_555
O4 C8 1_555 1_555
O5 C15 1_555 1_555
O6 C15 1_555 1_555
O7 Sm1 1_555 1_555
O8 Sm1 1_555 1_555
O9 S3 1_555 1_555
O10 S4 1_555 1_555
O11 S5 1_555 1_555
O12 H43 1_555 1_555
H44 O12 1_555 1_555
O13 H45 1_555 1_555
H46 O13 1_555 1_555
O14 H47 1_555 1_555
H48 O14 1_555 1_555
O15 H49 1_555 1_555
H50 O15 1_555 1_555
O16 H51 1_555 1_555
H52 O16 1_555 1_555
O17 H53 1_555 1_555
H54 O17 1_555 1_555
O18 H55 1_555 1_555
H56 O18 1_555 1_555
O19 H57 1_555 1_555
H58 O19 1_555 1_555
O20 H59 1_555 1_555
H60 O20 1_555 1_555
O21 H61 1_555 1_555
H62 O21 1_555 1_555
O22 H63 1_555 1_555
H64 O22 1_555 1_555
S1 C22 1_555 1_555
S2 C24 1_555 1_555
S3 C26 1_555 1_555
S4 C28 1_555 1_555
S5 C30 1_555 1_555
C1A C2A 1_555 1_555
C2A C3A 1_555 1_555
C3A H1A 1_555 1_555
C4A C3A 1_555 1_555
H2A C4A 1_555 1_555
C5A C4A 1_555 1_555
C6A C5A 1_555 1_555
H3A C6A 1_555 1_555
C7A C2A 1_555 1_555
H4A C7A 1_555 1_555
C8A C9A 1_555 1_555
C9A C10A 1_555 1_555
C10A H5A 1_555 1_555
C11A C10A 1_555 1_555
H6A C11A 1_555 1_555
C12A C11A 1_555 1_555
C13A C12A 1_555 1_555
H7A C13A 1_555 1_555
C14A C9A 1_555 1_555
H8A C14A 1_555 1_555
C15F C16F 1_555 1_555
C16F C17F 1_555 1_555
C17F H9F 1_555 1_555
C18F C17F 1_555 1_555
H10F C18F 1_555 1_555
C19F C18F 1_555 1_555
C20F C19F 1_555 1_555
H11F C20F 1_555 1_555
C21F C16F 1_555 1_555
H12F C21F 1_555 1_555
C22A H13A 1_555 1_555
H14A C22A 1_555 1_555
H15A C22A 1_555 1_555
C23A H16A 1_555 1_555
H17A C23A 1_555 1_555
H18A C23A 1_555 1_555
C24A H19A 1_555 1_555
H20A C24A 1_555 1_555
H21A C24A 1_555 1_555
C25A H22A 1_555 1_555
H23A C25A 1_555 1_555
H24A C25A 1_555 1_555
Sm1A O1A 1_555 1_555
Sm1F O3 1_555 1_555
Sm1G O3A 1_555 1_555
Sm1A_2 O4A 1_555 1_555
Sm1_2 O5F 1_555 1_555
Sm1F_2 O6F 1_555 1_555
N1A N1 1_555 1_555
N2A N2 1_555 1_555
N3F N3 1_555 1_555
O1A C1A 1_555 1_555
O2A C1A 1_555 1_555
O3A C8A 1_555 1_555
O3F Sm1 1_555 1_555
O3G Sm1A 1_555 1_555
O4A C8A 1_555 1_555
O4A_2 Sm1A 1_555 1_555
O5F C15F 1_555 1_555
O5F_2 Sm1 1_555 1_555
O5G Sm1A 1_555 1_555
O6F C15F 1_555 1_555
O6A Sm1A 1_555 1_555
O7A Sm1A 1_555 1_555
O8A Sm1A 1_555 1_555
S1A C22A 1_555 1_555
S2A C24A 1_555 1_555
C6 C7 1_555 1_555
C13 C14 1_555 1_555
C20 C21 1_555 1_555
C23 S1 1_555 1_555
C25 S2 1_555 1_555
C27 S3 1_555 1_555
C29 S4 1_555 1_555
C31 S5 1_555 1_555
Sm1 O2 1_555 1_555
Sm1 O4 1_555 1_555
Sm1 O6 1_555 1_555
O5 Sm1F 1_555 1_555
O7 S1 1_555 1_555
O8 S2 1_555 1_555
C5A N1A 1_555 1_555
C6A C7A 1_555 1_555
C12A N2A 1_555 1_555
C13A C14A 1_555 1_555
C19F N3F 1_555 1_555
C20F C21F 1_555 1_555
C23A S1A 1_555 1_555
C25A S2A 1_555 1_555
Sm1A O2A 1_555 1_555
O7A S1A 1_555 1_555
O8A S2A 1_555 1_555

#END
