
#######################################################################
#
#                 Cambridge Crystallographic Data Centre
#                                CCDC 
#
#######################################################################
#
# If this CIF has been generated from an entry in the Cambridge 
# Structural Database, then it will include bibliographic, chemical, 
# crystal, experimental, refinement or atomic coordinate data resulting 
# from the CCDC's data processing and validation procedures.
#
#######################################################################

data_ALURIJ
_symmetry_cell_setting           orthorhombic
_symmetry_space_group_name_H-M   'P 21 21 2'
_symmetry_Int_Tables_number      18
_space_group_name_Hall           'P 2 2ab'
loop_
_symmetry_equiv_pos_site_id
_symmetry_equiv_pos_as_xyz
1 x,y,z
2 -x,-y,z
3 1/2-x,1/2+y,-z
4 1/2+x,1/2-y,-z
_cell_length_a                   18.495(4)
_cell_length_b                   24.215(5)
_cell_length_c                   11.297(2)
_cell_angle_alpha                90
_cell_angle_beta                 90
_cell_angle_gamma                90
_cell_volume                     5059.43
loop_
_atom_site_label
_atom_site_type_symbol
_atom_site_fract_x
_atom_site_fract_y
_atom_site_fract_z
Ni1 Ni 0.5000 0.5000 0.46507(3)
Ni2 Ni 0.698972(12) 0.477910(10) 0.46707(2)
C1 C 0.61559(10) 0.39729(7) 0.46439(16)
C2 C 0.56642(10) 0.34650(7) 0.46789(17)
H1 H 0.5210 0.3550 0.4252
C3 C 0.54830(11) 0.33165(9) 0.59573(17)
H2 H 0.5914 0.3180 0.6351
H3 H 0.5113 0.3033 0.5968
H4 H 0.5307 0.3642 0.6367
C4 C 0.60854(11) 0.29824(9) 0.29145(17)
C5 C 0.65669(12) 0.25330(8) 0.24644(17)
C6 C 0.64456(13) 0.23233(9) 0.13251(17)
H5 H 0.6058 0.2457 0.0870
C7 C 0.68972(13) 0.19183(9) 0.08689(17)
C8 C 0.74619(12) 0.17185(9) 0.15580(17)
H6 H 0.7770 0.1446 0.1249
C9 C 0.75780(11) 0.19165(9) 0.27023(17)
C10 C 0.71370(11) 0.23399(8) 0.31372(17)
H7 H 0.7229 0.2493 0.3887
C11 C 0.67871(13) 0.16795(10) -0.0355(2)
C12 C 0.54209(14) 0.18524(12) -0.2523(2)
H8 H 0.5269 0.2234 -0.2444
H9 H 0.5169 0.1628 -0.1944
H10 H 0.5307 0.1721 -0.3313
C13 C 0.62428(13) 0.18106(11) -0.23142(18)
H11 H 0.6388 0.1419 -0.2404
C14 C 0.66595(13) 0.21554(11) -0.3226(2)
C15 C 0.81679(11) 0.16823(8) 0.34314(17)
C16 C 0.84976(13) 0.16836(9) 0.66588(18)
H12 H 0.8043 0.1525 0.6920
H13 H 0.8469 0.2083 0.6698
H14 H 0.8885 0.1555 0.7167
C17 C 0.86480(10) 0.15069(8) 0.53862(17)
H15 H 0.9109 0.1675 0.5127
C18 C 0.87220(10) 0.08770(8) 0.53369(16)
C19 C 0.73522(12) 0.51916(9) 0.83725(17)
H16 H 0.7567 0.5493 0.8762
C20 C 0.73184(11) 0.51742(9) 0.71517(17)
H17 H 0.7506 0.5476 0.6728
C21 C 0.67784(12) 0.43261(9) 0.71780(17)
H18 H 0.6588 0.4020 0.6772
C22 C 0.67790(13) 0.43129(9) 0.83801(16)
H19 H 0.6588 0.4006 0.8782
C23 C 0.70634(11) 0.47551(9) 0.90138(16)
C24 C 0.70457(10) 0.47590(8) 1.03238(16)
C25 C 0.71564(12) 0.42799(9) 1.09809(17)
H20 H 0.7249 0.3943 1.0596
C26 C 0.71295(12) 0.43035(9) 1.22047(17)
H21 H 0.7219 0.3979 1.2637
C27 C 0.68656(12) 0.52252(9) 1.21562(17)
H22 H 0.6756 0.5554 1.2561
C28 C 0.68974(11) 0.52425(9) 1.09401(16)
H23 H 0.6820 0.5576 1.0533
C29 C 0.85354(11) 0.44388(9) 0.4833(2)
H24 H 0.8327 0.4101 0.5059
C30 C 0.92832(12) 0.44732(10) 0.4770(2)
H25 H 0.9571 0.4163 0.4939
C31 C 0.95966(11) 0.49649(9) 0.44597(18)
C32 C 0.91509(12) 0.54028(10) 0.4182(2)
H26 H 0.9350 0.5743 0.3945
C33 C 0.84057(12) 0.53378(9) 0.4256(2)
H27 H 0.8107 0.5639 0.4068
C34 C 0.50867(11) 0.45335(8) 0.21802(16)
H28 H 0.5152 0.4202 0.2598
C35 C 0.50848(11) 0.45130(8) 0.09652(16)
H29 H 0.5140 0.4174 0.0571
C36 C 0.5000 0.5000 0.0320(2)
C37 C 0.5000 0.5000 -0.0984(2)
C38 C 0.46430(11) 0.45937(9) -0.16374(17)
H30 H 0.4396 0.4309 -0.1244
C39 C 0.46522(11) 0.46094(8) -0.28614(16)
H31 H 0.4402 0.4333 -0.3278
N1 N 0.60135(9) 0.30034(7) 0.41096(14)
H32 H 0.6181 0.2734 0.4539
N2 N 0.64068(12) 0.19848(9) -0.11039(15)
H33 H 0.6247 0.2304 -0.0864
N3 N 0.80721(9) 0.16995(6) 0.46115(14)
H34 H 0.7670 0.1825 0.4908
N4 N 0.70346(9) 0.47528(7) 0.65288(13)
N5 N 0.69816(8) 0.47685(7) 1.28009(13)
N6 N 0.80981(8) 0.48607(7) 0.45869(13)
N7 N 0.5000 0.5000 0.28035(18)
N8 N 0.5000 0.5000 -0.34850(18)
O1 O 0.59029(7) 0.44598(5) 0.46916(11)
O2 O 0.68306(7) 0.39100(5) 0.46238(11)
O3 O 0.57967(8) 0.33259(6) 0.22548(12)
O4 O 0.70197(12) 0.25580(9) -0.28785(16)
O5 O 0.65991(9) 0.20123(8) -0.42936(13)
O6 O 0.70525(12) 0.12305(8) -0.06073(15)
O7 O 0.81518(7) 0.05976(5) 0.52548(11)
O8 O 0.93579(7) 0.06884(5) 0.54200(11)
O9 O 0.87165(8) 0.14796(7) 0.29726(12)
Ni1_2 Ni 0.5000 0.5000 -0.53493(3)
Ni1B Ni 1.0000 0.0000 0.53493(3)
Ni1B_2 Ni 0.0000 1.0000 0.53493(3)
Ni2A Ni 0.301028(12) 0.522090(10) 0.46707(2)
Ni2_2 Ni 0.698972(12) 0.477910(10) 1.46707(2)
Ni2B Ni 0.801028(12) -0.022090(10) 0.53293(2)
Ni2A_2 Ni 1.301028(12) 0.522090(10) 0.46707(2)
Ni2C Ni 0.198972(12) 1.022090(10) 0.53293(2)
Ni2_3 Ni 0.698972(12) 0.477910(10) -0.53293(2)
C1A C 0.38441(10) 0.60271(7) 0.46439(16)
C2A C 0.43358(10) 0.65350(7) 0.46789(17)
H1A H 0.4790 0.6450 0.4252
C3A C 0.45170(11) 0.66835(9) 0.59573(17)
H2A H 0.4086 0.6820 0.6351
H3A H 0.4887 0.6967 0.5968
H4A H 0.4693 0.6358 0.6367
C4A C 0.39146(11) 0.70176(9) 0.29145(17)
C5A C 0.34331(12) 0.74670(8) 0.24644(17)
C6A C 0.35544(13) 0.76767(9) 0.13251(17)
H5A H 0.3942 0.7543 0.0870
C7A C 0.31028(13) 0.80817(9) 0.08689(17)
C8A C 0.25381(12) 0.82815(9) 0.15580(17)
H6A H 0.2230 0.8554 0.1249
C9A C 0.24220(11) 0.80835(9) 0.27023(17)
C10A C 0.28630(11) 0.76601(8) 0.31372(17)
H7A H 0.2771 0.7507 0.3887
C11A C 0.32129(13) 0.83205(10) -0.0355(2)
C12A C 0.45791(14) 0.81476(12) -0.2523(2)
H8A H 0.4731 0.7766 -0.2444
H9A H 0.4831 0.8372 -0.1944
H10A H 0.4693 0.8279 -0.3313
C13A C 0.37572(13) 0.81894(11) -0.23142(18)
H11A H 0.3612 0.8581 -0.2404
C14A C 0.33405(13) 0.78446(11) -0.3226(2)
C15A C 0.18321(11) 0.83177(8) 0.34314(17)
C16A C 0.15024(13) 0.83164(9) 0.66588(18)
H12A H 0.1957 0.8475 0.6920
H13A H 0.1531 0.7917 0.6698
H14A H 0.1115 0.8445 0.7167
C17A C 0.13520(10) 0.84931(8) 0.53862(17)
H15A H 0.0891 0.8325 0.5127
C18A C 0.12780(10) 0.91230(8) 0.53369(16)
C19_2 C 0.73522(12) 0.51916(9) -0.16275(17)
H16_2 H 0.7567 0.5493 -0.1238
C20_2 C 0.73184(11) 0.51742(9) -0.28483(17)
H17_2 H 0.7506 0.5476 -0.3272
C21_2 C 0.67784(12) 0.43261(9) -0.28220(17)
H18_2 H 0.6588 0.4020 -0.3228
C22_2 C 0.67790(13) 0.43129(9) -0.16199(16)
H19_2 H 0.6588 0.4006 -0.1218
C23_2 C 0.70634(11) 0.47551(9) -0.09862(16)
C24_2 C 0.70457(10) 0.47590(8) 0.03238(16)
C25_2 C 0.71564(12) 0.42799(9) 0.09809(17)
H20_2 H 0.7249 0.3943 0.0596
C26_2 C 0.71295(12) 0.43035(9) 0.22047(17)
H21_2 H 0.7219 0.3979 0.2637
C27_2 C 0.68656(12) 0.52252(9) 0.21562(17)
H22_2 H 0.6756 0.5554 0.2561
C28_2 C 0.68974(11) 0.52425(9) 0.09401(16)
H23_2 H 0.6820 0.5576 0.0533
C29A C 1.14646(11) 0.55612(9) 0.4833(2)
H24A H 1.1673 0.5899 0.5059
C30A C 1.07168(12) 0.55268(10) 0.4770(2)
H25A H 1.0429 0.5837 0.4939
C31A C 1.04034(11) 0.50351(9) 0.44597(18)
C32A C 1.08491(12) 0.45972(10) 0.4182(2)
H26A H 1.0650 0.4257 0.3945
C33A C 1.15943(12) 0.46622(9) 0.4256(2)
H27A H 1.1893 0.4361 0.4068
C34A C 0.49133(11) 0.54665(8) 0.21802(16)
H28A H 0.4848 0.5798 0.2598
C35A C 0.49152(11) 0.54870(8) 0.09652(16)
H29A H 0.4860 0.5826 0.0571
C38A C 0.53570(11) 0.54063(9) -0.16374(17)
H30A H 0.5604 0.5691 -0.1244
C39A C 0.53478(11) 0.53906(8) -0.28614(16)
H31A H 0.5598 0.5667 -0.3278
N1A N 0.39865(9) 0.69966(7) 0.41096(14)
H32A H 0.3819 0.7266 0.4539
N2A N 0.35932(12) 0.80152(9) -0.11039(15)
H33A H 0.3753 0.7696 -0.0864
N3A N 0.19279(9) 0.83005(6) 0.46115(14)
H34A H 0.2330 0.8175 0.4908
N4_2 N 0.70346(9) 0.47528(7) -0.34712(13)
N4A N 0.29654(9) 0.52472(7) 0.65288(13)
N5_2 N 0.69816(8) 0.47685(7) 0.28009(13)
N5A N 0.30184(8) 0.52315(7) 0.28009(13)
N6A N 1.19019(8) 0.51393(7) 0.45869(13)
N6A_2 N 0.19019(8) 0.51393(7) 0.45869(13)
N8_2 N 0.5000 0.5000 0.65150(18)
O1A O 0.40971(7) 0.55402(5) 0.46916(11)
O2A O 0.31694(7) 0.60900(5) 0.46238(11)
O3A O 0.42033(8) 0.66741(6) 0.22548(12)
O4A O 0.29803(12) 0.74420(9) -0.28785(16)
O5A O 0.34009(9) 0.79877(8) -0.42936(13)
O6A O 0.29475(12) 0.87695(8) -0.06073(15)
O7A O 0.18482(7) 0.94024(5) 0.52548(11)
O7B O 0.68482(7) 0.55976(5) 0.47452(11)
O7C O 0.31518(7) 0.44024(5) 0.47452(11)
O8A O 0.06421(7) 0.93116(5) 0.54200(11)
O8B O 0.56421(7) 0.56884(5) 0.45800(11)
O8C O 0.43579(7) 0.43116(5) 0.45800(11)
O9A O 0.12835(8) 0.85204(7) 0.29726(12)
O10 O 0.78349(9) 0.31184(7) 0.55379(16)
H35 H 0.7579 0.2942 0.6036
H36 H 0.7566 0.3339 0.5149
O11 O 0.58205(14) 0.32492(8) -0.03652(17)
H37 H 0.5816 0.3271 0.0386
H38 H 0.5368 0.3246 -0.0495
O12 O 1.04536(13) 0.34315(10) 0.5582(2)
H39 H 1.0806 0.3255 0.5328
C40 C 1.0650(3) 0.3707(2) 0.6653(3)
H40 H 1.0712 0.4103 0.6510
H41 H 1.1105 0.3558 0.6960
C41 C 1.0039(4) 0.3609(4) 0.7540(5)
H42 H 1.0167 0.3773 0.8295
H43 H 0.9965 0.3215 0.7640
H44 H 0.9598 0.3777 0.7248
O13 O 0.43502(15) 0.32460(10) -0.0795(2)
H45 H 0.4167 0.2937 -0.0600
H46 H 0.4239 0.3211 -0.1518
O14 O 0.92213(17) 0.27958(13) 0.4823(4)
H47 H 0.9313 0.3043 0.5344
H48 H 0.8818 0.2642 0.4981
O15 O 0.3805(4) 0.2328(5) -0.0203(7)
H49 H 0.3441 0.2265 0.0242
H50 H 0.3776 0.2129 -0.0822
loop_
_geom_bond_atom_site_label_1
_geom_bond_atom_site_label_2
_geom_bond_site_symmetry_1
_geom_bond_site_symmetry_2
Ni1 N7 1_555 1_555
Ni2 N4 1_555 1_555
C1 C2 1_555 1_555
C2 H1 1_555 1_555
C3 C2 1_555 1_555
H2 C3 1_555 1_555
H3 C3 1_555 1_555
H4 C3 1_555 1_555
C4 C5 1_555 1_555
C5 C6 1_555 1_555
C6 H5 1_555 1_555
C7 C6 1_555 1_555
C8 C7 1_555 1_555
H6 C8 1_555 1_555
C9 C8 1_555 1_555
C10 C5 1_555 1_555
H7 C10 1_555 1_555
C11 C7 1_555 1_555
C12 H8 1_555 1_555
H9 C12 1_555 1_555
H10 C12 1_555 1_555
C13 C12 1_555 1_555
H11 C13 1_555 1_555
C14 C13 1_555 1_555
C15 C9 1_555 1_555
C16 H12 1_555 1_555
H13 C16 1_555 1_555
H14 C16 1_555 1_555
C17 C16 1_555 1_555
H15 C17 1_555 1_555
C18 C17 1_555 1_555
C19 H16 1_555 1_555
C20 C19 1_555 1_555
H17 C20 1_555 1_555
C21 H18 1_555 1_555
C22 C21 1_555 1_555
H19 C22 1_555 1_555
C23 C19 1_555 1_555
C24 C23 1_555 1_555
C25 C24 1_555 1_555
H20 C25 1_555 1_555
C26 C25 1_555 1_555
H21 C26 1_555 1_555
C27 H22 1_555 1_555
C28 C24 1_555 1_555
H23 C28 1_555 1_555
C29 H24 1_555 1_555
C30 C29 1_555 1_555
H25 C30 1_555 1_555
C31 C30 1_555 1_555
C32 C31 1_555 1_555
H26 C32 1_555 1_555
C33 C32 1_555 1_555
H27 C33 1_555 1_555
C34 H28 1_555 1_555
C35 C34 1_555 1_555
H29 C35 1_555 1_555
C36 C35 1_555 1_555
C37 C36 1_555 1_555
C38 C37 1_555 1_555
H30 C38 1_555 1_555
C39 C38 1_555 1_555
H31 C39 1_555 1_555
N1 C2 1_555 1_555
H32 N1 1_555 1_555
N2 C11 1_555 1_555
H33 N2 1_555 1_555
N3 C15 1_555 1_555
H34 N3 1_555 1_555
N4 C20 1_555 1_555
N5 C26 1_555 1_555
N6 Ni2 1_555 1_555
N7 C34 1_555 1_555
N8 C39 1_555 1_555
O1 Ni1 1_555 1_555
O2 Ni2 1_555 1_555
O3 C4 1_555 1_555
O4 C14 1_555 1_555
O5 C14 1_555 1_555
O6 C11 1_555 1_555
O7 C18 1_555 1_555
O8 C18 1_555 1_555
O9 C15 1_555 1_555
O10 H35 1_555 1_555
H36 O10 1_555 1_555
O11 H37 1_555 1_555
H38 O11 1_555 1_555
O12 H39 1_555 1_555
C40 O12 1_555 1_555
H40 C40 1_555 1_555
H41 C40 1_555 1_555
C41 C40 1_555 1_555
H42 C41 1_555 1_555
H43 C41 1_555 1_555
H44 C41 1_555 1_555
O13 H45 1_555 1_555
H46 O13 1_555 1_555
O14 H47 1_555 1_555
H48 O14 1_555 1_555
O15 H49 1_555 1_555
H50 O15 1_555 1_555
Ni1_2 N8 1_555 1_555
Ni1B O8 1_555 1_555
Ni1B_2 O8A 1_555 1_555
Ni2A N4A 1_555 1_555
Ni2_2 N5 1_555 1_555
Ni2B O7 1_555 1_555
Ni2A_2 N6A 1_555 1_555
Ni2C O7A 1_555 1_555
Ni2_3 N4_2 1_555 1_555
C1A C2A 1_555 1_555
C2A H1A 1_555 1_555
C3A C2A 1_555 1_555
H2A C3A 1_555 1_555
H3A C3A 1_555 1_555
H4A C3A 1_555 1_555
C4A C5A 1_555 1_555
C5A C6A 1_555 1_555
C6A H5A 1_555 1_555
C7A C6A 1_555 1_555
C8A C7A 1_555 1_555
H6A C8A 1_555 1_555
C9A C8A 1_555 1_555
C10A C5A 1_555 1_555
H7A C10A 1_555 1_555
C11A C7A 1_555 1_555
C12A H8A 1_555 1_555
H9A C12A 1_555 1_555
H10A C12A 1_555 1_555
C13A C12A 1_555 1_555
H11A C13A 1_555 1_555
C14A C13A 1_555 1_555
C15A C9A 1_555 1_555
C16A H12A 1_555 1_555
H13A C16A 1_555 1_555
H14A C16A 1_555 1_555
C17A C16A 1_555 1_555
H15A C17A 1_555 1_555
C18A C17A 1_555 1_555
C19_2 H16_2 1_555 1_555
C20_2 C19_2 1_555 1_555
H17_2 C20_2 1_555 1_555
C21_2 H18_2 1_555 1_555
C22_2 C21_2 1_555 1_555
H19_2 C22_2 1_555 1_555
C23_2 C19_2 1_555 1_555
C24_2 C23_2 1_555 1_555
C25_2 C24_2 1_555 1_555
H20_2 C25_2 1_555 1_555
C26_2 C25_2 1_555 1_555
H21_2 C26_2 1_555 1_555
C27_2 H22_2 1_555 1_555
C28_2 C24_2 1_555 1_555
H23_2 C28_2 1_555 1_555
C29A H24A 1_555 1_555
C30A C29A 1_555 1_555
H25A C30A 1_555 1_555
C31A C31 1_555 1_555
C32A C31A 1_555 1_555
H26A C32A 1_555 1_555
C33A C32A 1_555 1_555
H27A C33A 1_555 1_555
C34A N7 1_555 1_555
H28A C34A 1_555 1_555
C35A C36 1_555 1_555
H29A C35A 1_555 1_555
C38A C37 1_555 1_555
H30A C38A 1_555 1_555
C39A N8 1_555 1_555
H31A C39A 1_555 1_555
N1A C2A 1_555 1_555
H32A N1A 1_555 1_555
N2A C11A 1_555 1_555
H33A N2A 1_555 1_555
N3A C15A 1_555 1_555
H34A N3A 1_555 1_555
N4_2 C20_2 1_555 1_555
N5_2 Ni2 1_555 1_555
N5A Ni2A 1_555 1_555
N6A C29A 1_555 1_555
N6A_2 Ni2A 1_555 1_555
N8_2 Ni1 1_555 1_555
O1A Ni1 1_555 1_555
O2A Ni2A 1_555 1_555
O3A C4A 1_555 1_555
O4A C14A 1_555 1_555
O5A C14A 1_555 1_555
O6A C11A 1_555 1_555
O7A C18A 1_555 1_555
O7B Ni2 1_555 1_555
O7C Ni2A 1_555 1_555
O8A C18A 1_555 1_555
O8B Ni1 1_555 1_555
O8C Ni1 1_555 1_555
O9A C15A 1_555 1_555
Ni2 O1 1_555 1_555
C1 O1 1_555 1_555
C1 O2 1_555 1_555
C4 N1 1_555 1_555
C9 C10 1_555 1_555
C13 N2 1_555 1_555
C17 N3 1_555 1_555
C21 N4 1_555 1_555
C22 C23 1_555 1_555
C27 C28 1_555 1_555
C27 N5 1_555 1_555
C29 N6 1_555 1_555
C33 N6 1_555 1_555
Ni2A O1A 1_555 1_555
C1A O1A 1_555 1_555
C1A O2A 1_555 1_555
C4A N1A 1_555 1_555
C9A C10A 1_555 1_555
C13A N2A 1_555 1_555
C17A N3A 1_555 1_555
C21_2 N4_2 1_555 1_555
C22_2 C23_2 1_555 1_555
C26_2 N5_2 1_555 1_555
C27_2 C28_2 1_555 1_555
C27_2 N5_2 1_555 1_555
C30A C31A 1_555 1_555
C33A N6A 1_555 1_555
C34A C35A 1_555 1_555
C38A C39A 1_555 1_555

#END
