
#######################################################################
#
#                 Cambridge Crystallographic Data Centre
#                                CCDC 
#
#######################################################################
#
# If this CIF has been generated from an entry in the Cambridge 
# Structural Database, then it will include bibliographic, chemical, 
# crystal, experimental, refinement or atomic coordinate data resulting 
# from the CCDC's data processing and validation procedures.
#
#######################################################################

data_ALUREF
_symmetry_cell_setting           orthorhombic
_symmetry_space_group_name_H-M   'P 21 21 2'
_symmetry_Int_Tables_number      18
_space_group_name_Hall           'P 2 2ab'
loop_
_symmetry_equiv_pos_site_id
_symmetry_equiv_pos_as_xyz
1 x,y,z
2 -x,-y,z
3 1/2-x,1/2+y,-z
4 1/2+x,1/2-y,-z
_cell_length_a                   18.663(4)
_cell_length_b                   24.329(5)
_cell_length_c                   11.395(2)
_cell_angle_alpha                90
_cell_angle_beta                 90
_cell_angle_gamma                90
_cell_volume                     5173.92
loop_
_atom_site_label
_atom_site_type_symbol
_atom_site_fract_x
_atom_site_fract_y
_atom_site_fract_z
Co1 Co 0.5000 0.5000 0.53936(9)
Co2 Co 0.30007(4) 0.51926(4) 0.53456(6)
C1 C 0.3825(3) 0.6023(3) 0.5364(5)
C2 C 0.4301(3) 0.6526(3) 0.5337(6)
H1 H 0.4751 0.6445 0.5763
C3 C 0.4482(3) 0.6678(3) 0.4057(5)
H2 H 0.4053 0.6808 0.3665
H3 H 0.4664 0.6356 0.3652
H4 H 0.4842 0.6965 0.4049
C4 C 0.3872(3) 0.7022(3) 0.7074(5)
C5 C 0.3400(3) 0.7476(3) 0.7515(5)
C6 C 0.3516(4) 0.7691(3) 0.8621(5)
H5 H 0.3910 0.7570 0.9068
C7 C 0.3062(4) 0.8079(3) 0.9068(6)
C8 C 0.2497(4) 0.8278(3) 0.8396(5)
H6 H 0.2191 0.8549 0.8702
C9 C 0.2383(4) 0.8072(3) 0.7255(5)
C10 C 0.2830(3) 0.7667(3) 0.6831(5)
H7 H 0.2752 0.7520 0.6079
C11 C 0.3175(4) 0.8330(3) 1.0276(6)
C12 C 0.4486(5) 0.8129(5) 1.2432(8)
H8 H 0.4645 0.7751 1.2358
H9 H 0.4603 0.8266 1.3208
H10 H 0.4723 0.8353 1.1845
C13 C 0.3679(4) 0.8156(4) 1.2249(6)
H11 H 0.3527 0.8543 1.2359
C14 C 0.3280(4) 0.7804(4) 1.3156(6)
C15 C 0.1794(3) 0.8309(3) 0.6539(5)
C16 C 0.1470(4) 0.8297(4) 0.3331(6)
H12 H 0.1933 0.8434 0.3076
H13 H 0.1099 0.8441 0.2820
H14 H 0.1468 0.7899 0.3297
C17 C 0.1329(3) 0.8484(3) 0.4591(5)
H15 H 0.0869 0.8322 0.4852
C18 C 0.1261(3) 0.9099(2) 0.4637(5)
C19 C 0.2633(4) 0.4792(3) 0.1636(5)
H16 H 0.2412 0.4496 0.1252
C20 C 0.2663(3) 0.4808(4) 0.2846(5)
H17 H 0.2458 0.4515 0.3265
C21 C 0.3242(4) 0.5627(3) 0.2807(5)
H18 H 0.3462 0.5918 0.3211
C22 C 0.3229(4) 0.5654(3) 0.1598(5)
H19 H 0.3416 0.5959 0.1196
C23 C 0.2929(3) 0.5215(3) 0.0997(5)
C24 C 0.2930(3) 0.5216(3) -0.0299(5)
C25 C 0.2791(4) 0.5677(4) -0.0942(5)
H20 H 0.2680 0.6009 -0.0560
C26 C 0.2813(4) 0.5658(3) -0.2176(5)
H21 H 0.2693 0.5976 -0.2601
C27 C 0.3138(4) 0.4766(3) -0.2115(5)
H22 H 0.3274 0.4444 -0.2513
C28 C 0.3101(4) 0.4741(3) -0.0921(5)
H23 H 0.3190 0.4409 -0.0525
C29 C 0.1464(4) 0.5533(4) 0.5178(9)
H24 H 0.1678 0.5870 0.4978
C30 C 0.0727(4) 0.5509(4) 0.5218(11)
H25 H 0.0453 0.5825 0.5064
C31 C 0.0396(3) 0.5024(3) 0.5485(6)
C32 C 0.0831(3) 0.4587(4) 0.5722(9)
H26 H 0.0628 0.4247 0.5928
C33 C 0.1573(4) 0.4642(4) 0.5662(8)
H27 H 0.1860 0.4332 0.5813
C34 C 0.4902(3) 0.5468(3) 0.7882(5)
H28 H 0.4830 0.5797 0.7467
C35 C 0.4902(3) 0.5477(3) 0.9083(5)
H29 H 0.4836 0.5813 0.9476
C36 C 0.5000 0.5000 0.9729(7)
C37 C 0.5000 0.5000 1.1030(6)
C38 C 0.5352(3) 0.5412(3) 1.1674(5)
H30 H 0.5593 0.5698 1.1285
C39 C 0.5339(3) 0.5393(3) 1.2878(5)
H31 H 0.5581 0.5669 1.3295
N1 N 0.3944(3) 0.6993(2) 0.5900(4)
H32 H 0.3774 0.7258 0.5467
N2 N 0.3494(4) 0.7994(3) 1.1047(5)
H33 H 0.3598 0.7661 1.0823
N3 N 0.1890(2) 0.8282(2) 0.5353(4)
H34 H 0.2282 0.8146 0.5061
N4 N 0.2964(3) 0.5215(2) 0.3456(4)
N5 N 0.2997(2) 0.5208(2) -0.2764(4)
N6 N 0.1889(2) 0.5110(2) 0.5403(4)
N7 N 0.5000 0.5000 0.7283(5)
N8 N 0.5000 0.5000 1.3492(5)
O1 O 0.40925(19) 0.55445(17) 0.5349(3)
O2 O 0.31475(19) 0.60730(18) 0.5372(4)
O3 O 0.4146(3) 0.6675(2) 0.7740(4)
O4 O 0.2931(3) 0.7395(3) 1.2809(4)
O5 O 0.3353(3) 0.7952(3) 1.4219(4)
O6 O 0.2983(4) 0.8785(3) 1.0514(5)
O7 O 0.18287(19) 0.93738(17) 0.4732(3)
O8 O 0.06432(19) 0.93024(17) 0.4536(4)
O9 O 0.1263(2) 0.8520(2) 0.6967(4)
Co1_2 Co 0.5000 0.5000 1.53936(9)
Co1B Co 0.0000 1.0000 0.46064(9)
Co1B_2 Co 1.0000 0.0000 0.46064(9)
Co2A Co 0.69993(4) 0.48074(4) 0.53456(6)
Co2_2 Co 0.30007(4) 0.51926(4) -0.46544(6)
Co2B Co 0.19993(4) 1.01926(4) 0.46544(6)
Co2A_2 Co -0.30007(4) 0.48074(4) 0.53456(6)
Co2C Co 0.80007(4) -0.01926(4) 0.46544(6)
Co2_3 Co 0.30007(4) 0.51926(4) 1.53456(6)
C1A C 0.6175(3) 0.3977(3) 0.5364(5)
C2A C 0.5699(3) 0.3474(3) 0.5337(6)
H1A H 0.5249 0.3555 0.5763
C3A C 0.5518(3) 0.3322(3) 0.4057(5)
H2A H 0.5947 0.3192 0.3665
H3A H 0.5336 0.3644 0.3652
H4A H 0.5158 0.3035 0.4049
C4A C 0.6128(3) 0.2978(3) 0.7074(5)
C5A C 0.6600(3) 0.2524(3) 0.7515(5)
C6A C 0.6484(4) 0.2309(3) 0.8621(5)
H5A H 0.6090 0.2430 0.9068
C7A C 0.6938(4) 0.1921(3) 0.9068(6)
C8A C 0.7503(4) 0.1722(3) 0.8396(5)
H6A H 0.7809 0.1451 0.8702
C9A C 0.7617(4) 0.1928(3) 0.7255(5)
C10A C 0.7170(3) 0.2333(3) 0.6831(5)
H7A H 0.7248 0.2480 0.6079
C11A C 0.6825(4) 0.1670(3) 1.0276(6)
C12A C 0.5514(5) 0.1871(5) 1.2432(8)
H8A H 0.5355 0.2249 1.2358
H9A H 0.5397 0.1734 1.3208
H10A H 0.5277 0.1647 1.1845
C13A C 0.6321(4) 0.1844(4) 1.2249(6)
H11A H 0.6473 0.1457 1.2359
C14A C 0.6720(4) 0.2196(4) 1.3156(6)
C15A C 0.8206(3) 0.1691(3) 0.6539(5)
C16A C 0.8530(4) 0.1703(4) 0.3331(6)
H12A H 0.8067 0.1566 0.3076
H13A H 0.8901 0.1559 0.2820
H14A H 0.8532 0.2101 0.3297
C17A C 0.8671(3) 0.1516(3) 0.4591(5)
H15A H 0.9131 0.1678 0.4852
C18A C 0.8739(3) 0.0901(2) 0.4637(5)
C19_2 C 0.2633(4) 0.4792(3) 1.1636(5)
H16_2 H 0.2412 0.4496 1.1252
C20_2 C 0.2663(3) 0.4808(4) 1.2846(5)
H17_2 H 0.2458 0.4515 1.3265
C21_2 C 0.3242(4) 0.5627(3) 1.2807(5)
H18_2 H 0.3462 0.5918 1.3211
C22_2 C 0.3229(4) 0.5654(3) 1.1598(5)
H19_2 H 0.3416 0.5959 1.1196
C23_2 C 0.2929(3) 0.5215(3) 1.0997(5)
C24_2 C 0.2930(3) 0.5216(3) 0.9701(5)
C25_2 C 0.2791(4) 0.5677(4) 0.9058(5)
H20_2 H 0.2680 0.6009 0.9440
C26_2 C 0.2813(4) 0.5658(3) 0.7824(5)
H21_2 H 0.2693 0.5976 0.7399
C27_2 C 0.3138(4) 0.4766(3) 0.7885(5)
H22_2 H 0.3274 0.4444 0.7487
C28_2 C 0.3101(4) 0.4741(3) 0.9079(5)
H23_2 H 0.3190 0.4409 0.9475
C29A C -0.1464(4) 0.4467(4) 0.5178(9)
H24A H -0.1678 0.4130 0.4978
C30A C -0.0727(4) 0.4491(4) 0.5218(11)
H25A H -0.0453 0.4175 0.5064
C31A C -0.0396(3) 0.4976(3) 0.5485(6)
C32A C -0.0831(3) 0.5413(4) 0.5722(9)
H26A H -0.0628 0.5753 0.5928
C33A C -0.1573(4) 0.5358(4) 0.5662(8)
H27A H -0.1860 0.5668 0.5813
C34A C 0.5098(3) 0.4532(3) 0.7882(5)
H28A H 0.5170 0.4203 0.7467
C35A C 0.5098(3) 0.4523(3) 0.9083(5)
H29A H 0.5164 0.4187 0.9476
C38A C 0.4648(3) 0.4588(3) 1.1674(5)
H30A H 0.4407 0.4302 1.1285
C39A C 0.4661(3) 0.4607(3) 1.2878(5)
H31A H 0.4419 0.4331 1.3295
N1A N 0.6056(3) 0.3007(2) 0.5900(4)
H32A H 0.6226 0.2742 0.5467
N2A N 0.6506(4) 0.2006(3) 1.1047(5)
H33A H 0.6402 0.2339 1.0823
N3A N 0.8110(2) 0.1718(2) 0.5353(4)
H34A H 0.7718 0.1854 0.5061
N4_2 N 0.2964(3) 0.5215(2) 1.3456(4)
N4A N 0.7036(3) 0.4785(2) 0.3456(4)
N5_2 N 0.2997(2) 0.5208(2) 0.7236(4)
N5A N 0.7003(2) 0.4792(2) 0.7236(4)
N6A N -0.1889(2) 0.4890(2) 0.5403(4)
N6A_2 N 0.8111(2) 0.4890(2) 0.5403(4)
N8_2 N 0.5000 0.5000 0.3492(5)
O1A O 0.59075(19) 0.44555(17) 0.5349(3)
O2A O 0.68525(19) 0.39270(18) 0.5372(4)
O3A O 0.5854(3) 0.3325(2) 0.7740(4)
O4A O 0.7069(3) 0.2605(3) 1.2809(4)
O5A O 0.6647(3) 0.2048(3) 1.4219(4)
O6A O 0.7017(4) 0.1215(3) 1.0514(5)
O7A O 0.81713(19) 0.06262(17) 0.4732(3)
O7B O 0.31713(19) 0.43738(17) 0.5268(3)
O7C O 0.68287(19) 0.56262(17) 0.5268(3)
O8A O 0.93568(19) 0.06976(17) 0.4536(4)
O8B O 0.43568(19) 0.43024(17) 0.5464(4)
O8C O 0.56432(19) 0.56976(17) 0.5464(4)
O9A O 0.8737(2) 0.1480(2) 0.6967(4)
O10 O 0.4131(3) 0.6732(3) 0.0322(5)
H35 H 0.4160 0.6679 -0.0418
H36 H 0.3687 0.6767 0.0471
O11 O 0.2154(3) 0.6804(3) 0.4298(5)
H37 H 0.2451 0.6586 0.4617
H38 H 0.2377 0.7081 0.4022
O12 O 0.4554(4) 0.8343(3) 0.5509(7)
H39 H 0.4167 0.8159 0.5512
H40 H 0.4946 0.8225 0.5225
O13 O 0.0883(4) 0.7068(4) 0.5470(8)
H41 H 0.1251 0.6916 0.5164
H42 H 0.0748 0.6894 0.6081
O14 O 0.0581(5) 0.8204(4) 0.9059(7)
H43 H 0.0142 0.8217 0.9260
H44 H 0.0626 0.8063 0.8379
O15 O 0.2423(7) 0.6862(4) 0.0895(7)
H45 H 0.2594 0.7116 0.1327
H46 H 0.2061 0.6977 0.0514
O16 O 0.1226(6) 0.7210(5) 0.9665(10)
H47 H 0.1243 0.7561 0.9664
H48 H 0.0822 0.7105 0.9931
O17 O 0.1325(5) 0.6552(4) 0.7621(9)
H49 H 0.1514 0.6556 0.6942
H50 H 0.1188 0.6875 0.7801
O18 O 0.4031(6) 0.9635(5) 0.0655(12)
H51 H 0.3722 0.9379 0.0608
H52 H 0.4227 0.9628 0.1331
O19 O 0.1459(7) 0.6145(6) 0.2297(11)
H53 H 0.1652 0.6327 0.2850
H54 H 0.1614 0.6218 0.1639
O20 O 0.0499(6) 0.5697(5) 0.8743(11)
H55 H 0.0457 0.5456 0.9282
H56 H 0.0933 0.5707 0.8506
O21 O 0.4224(7) -0.0003(8) 0.8203(11)
H57 H 0.4277 0.0123 0.8897
H58 H 0.4230 0.0262 0.7713
O22 O 0.4329(11) 0.8962(9) 0.7475(12)
H59 H 0.4610 0.8851 0.8011
H60 H 0.4391 0.8771 0.6857
O23 O 0.0259(10) 0.6423(9) 0.0748(15)
H61 H 0.0323 0.6211 0.0163
H62 H 0.0607 0.6343 0.1197
loop_
_geom_bond_atom_site_label_1
_geom_bond_atom_site_label_2
_geom_bond_site_symmetry_1
_geom_bond_site_symmetry_2
Co1 N7 1_555 1_555
Co2 N4 1_555 1_555
C1 C2 1_555 1_555
C2 H1 1_555 1_555
C3 C2 1_555 1_555
H2 C3 1_555 1_555
H3 C3 1_555 1_555
H4 C3 1_555 1_555
C4 C5 1_555 1_555
C5 C6 1_555 1_555
C6 H5 1_555 1_555
C7 C6 1_555 1_555
C8 C7 1_555 1_555
H6 C8 1_555 1_555
C9 C8 1_555 1_555
C10 C5 1_555 1_555
H7 C10 1_555 1_555
C11 C7 1_555 1_555
C12 H8 1_555 1_555
H9 C12 1_555 1_555
H10 C12 1_555 1_555
C13 C12 1_555 1_555
H11 C13 1_555 1_555
C14 C13 1_555 1_555
C15 C9 1_555 1_555
C16 H12 1_555 1_555
H13 C16 1_555 1_555
H14 C16 1_555 1_555
C17 C16 1_555 1_555
H15 C17 1_555 1_555
C18 C17 1_555 1_555
C19 H16 1_555 1_555
C20 C19 1_555 1_555
H17 C20 1_555 1_555
C21 H18 1_555 1_555
C22 C21 1_555 1_555
H19 C22 1_555 1_555
C23 C19 1_555 1_555
C24 C23 1_555 1_555
C25 C24 1_555 1_555
H20 C25 1_555 1_555
C26 C25 1_555 1_555
H21 C26 1_555 1_555
C27 H22 1_555 1_555
C28 C24 1_555 1_555
H23 C28 1_555 1_555
C29 H24 1_555 1_555
C30 C29 1_555 1_555
H25 C30 1_555 1_555
C31 C30 1_555 1_555
C32 C31 1_555 1_555
H26 C32 1_555 1_555
C33 C32 1_555 1_555
H27 C33 1_555 1_555
C34 H28 1_555 1_555
C35 C34 1_555 1_555
H29 C35 1_555 1_555
C36 C35 1_555 1_555
C37 C36 1_555 1_555
C38 C37 1_555 1_555
H30 C38 1_555 1_555
C39 C38 1_555 1_555
H31 C39 1_555 1_555
N1 C2 1_555 1_555
H32 N1 1_555 1_555
N2 C11 1_555 1_555
H33 N2 1_555 1_555
N3 C15 1_555 1_555
H34 N3 1_555 1_555
N4 C20 1_555 1_555
N5 C26 1_555 1_555
N6 Co2 1_555 1_555
N7 C34 1_555 1_555
N8 C39 1_555 1_555
O1 Co1 1_555 1_555
O2 Co2 1_555 1_555
O3 C4 1_555 1_555
O4 C14 1_555 1_555
O5 C14 1_555 1_555
O6 C11 1_555 1_555
O7 C18 1_555 1_555
O8 C18 1_555 1_555
O9 C15 1_555 1_555
O10 H35 1_555 1_555
H36 O10 1_555 1_555
O11 H37 1_555 1_555
H38 O11 1_555 1_555
O12 H39 1_555 1_555
H40 O12 1_555 1_555
O13 H41 1_555 1_555
H42 O13 1_555 1_555
O14 H43 1_555 1_555
H44 O14 1_555 1_555
O15 H45 1_555 1_555
H46 O15 1_555 1_555
O16 H47 1_555 1_555
H48 O16 1_555 1_555
O17 H49 1_555 1_555
H50 O17 1_555 1_555
O18 H51 1_555 1_555
H52 O18 1_555 1_555
O19 H53 1_555 1_555
H54 O19 1_555 1_555
O20 H55 1_555 1_555
H56 O20 1_555 1_555
O21 H57 1_555 1_555
H58 O21 1_555 1_555
O22 H59 1_555 1_555
H60 O22 1_555 1_555
O23 H61 1_555 1_555
H62 O23 1_555 1_555
Co1_2 N8 1_555 1_555
Co1B O8 1_555 1_555
Co1B_2 O8A 1_555 1_555
Co2A N4A 1_555 1_555
Co2_2 N5 1_555 1_555
Co2B O7 1_555 1_555
Co2A_2 N6A 1_555 1_555
Co2C O7A 1_555 1_555
Co2_3 N4_2 1_555 1_555
C1A C2A 1_555 1_555
C2A H1A 1_555 1_555
C3A C2A 1_555 1_555
H2A C3A 1_555 1_555
H3A C3A 1_555 1_555
H4A C3A 1_555 1_555
C4A C5A 1_555 1_555
C5A C6A 1_555 1_555
C6A H5A 1_555 1_555
C7A C6A 1_555 1_555
C8A C7A 1_555 1_555
H6A C8A 1_555 1_555
C9A C8A 1_555 1_555
C10A C5A 1_555 1_555
H7A C10A 1_555 1_555
C11A C7A 1_555 1_555
C12A H8A 1_555 1_555
H9A C12A 1_555 1_555
H10A C12A 1_555 1_555
C13A C12A 1_555 1_555
H11A C13A 1_555 1_555
C14A C13A 1_555 1_555
C15A C9A 1_555 1_555
C16A H12A 1_555 1_555
H13A C16A 1_555 1_555
H14A C16A 1_555 1_555
C17A C16A 1_555 1_555
H15A C17A 1_555 1_555
C18A C17A 1_555 1_555
C19_2 H16_2 1_555 1_555
C20_2 C19_2 1_555 1_555
H17_2 C20_2 1_555 1_555
C21_2 H18_2 1_555 1_555
C22_2 C21_2 1_555 1_555
H19_2 C22_2 1_555 1_555
C23_2 C19_2 1_555 1_555
C24_2 C23_2 1_555 1_555
C25_2 C24_2 1_555 1_555
H20_2 C25_2 1_555 1_555
C26_2 C25_2 1_555 1_555
H21_2 C26_2 1_555 1_555
C27_2 H22_2 1_555 1_555
C28_2 C24_2 1_555 1_555
H23_2 C28_2 1_555 1_555
C29A H24A 1_555 1_555
C30A C29A 1_555 1_555
H25A C30A 1_555 1_555
C31A C31 1_555 1_555
C32A C31A 1_555 1_555
H26A C32A 1_555 1_555
C33A C32A 1_555 1_555
H27A C33A 1_555 1_555
C34A N7 1_555 1_555
H28A C34A 1_555 1_555
C35A C36 1_555 1_555
H29A C35A 1_555 1_555
C38A C37 1_555 1_555
H30A C38A 1_555 1_555
C39A N8 1_555 1_555
H31A C39A 1_555 1_555
N1A C2A 1_555 1_555
H32A N1A 1_555 1_555
N2A C11A 1_555 1_555
H33A N2A 1_555 1_555
N3A C15A 1_555 1_555
H34A N3A 1_555 1_555
N4_2 C20_2 1_555 1_555
N5_2 Co2 1_555 1_555
N5A Co2A 1_555 1_555
N6A C29A 1_555 1_555
N6A_2 Co2A 1_555 1_555
N8_2 Co1 1_555 1_555
O1A Co1 1_555 1_555
O2A Co2A 1_555 1_555
O3A C4A 1_555 1_555
O4A C14A 1_555 1_555
O5A C14A 1_555 1_555
O6A C11A 1_555 1_555
O7A C18A 1_555 1_555
O7B Co2 1_555 1_555
O7C Co2A 1_555 1_555
O8A C18A 1_555 1_555
O8B Co1 1_555 1_555
O8C Co1 1_555 1_555
O9A C15A 1_555 1_555
Co2 O1 1_555 1_555
C1 O1 1_555 1_555
C1 O2 1_555 1_555
C4 N1 1_555 1_555
C9 C10 1_555 1_555
C13 N2 1_555 1_555
C17 N3 1_555 1_555
C21 N4 1_555 1_555
C22 C23 1_555 1_555
C27 C28 1_555 1_555
C27 N5 1_555 1_555
C29 N6 1_555 1_555
C33 N6 1_555 1_555
Co2A O1A 1_555 1_555
C1A O1A 1_555 1_555
C1A O2A 1_555 1_555
C4A N1A 1_555 1_555
C9A C10A 1_555 1_555
C13A N2A 1_555 1_555
C17A N3A 1_555 1_555
C21_2 N4_2 1_555 1_555
C22_2 C23_2 1_555 1_555
C26_2 N5_2 1_555 1_555
C27_2 C28_2 1_555 1_555
C27_2 N5_2 1_555 1_555
C30A C31A 1_555 1_555
C33A N6A 1_555 1_555
C34A C35A 1_555 1_555
C38A C39A 1_555 1_555

#END
