
#######################################################################
#
#                 Cambridge Crystallographic Data Centre
#                                CCDC 
#
#######################################################################
#
# If this CIF has been generated from an entry in the Cambridge 
# Structural Database, then it will include bibliographic, chemical, 
# crystal, experimental, refinement or atomic coordinate data resulting 
# from the CCDC's data processing and validation procedures.
#
#######################################################################

data_AMAFIE
_symmetry_cell_setting           monoclinic
_symmetry_space_group_name_H-M   'P 21/c'
_symmetry_Int_Tables_number      14
_space_group_name_Hall           '-P 2ybc'
loop_
_symmetry_equiv_pos_site_id
_symmetry_equiv_pos_as_xyz
1 x,y,z
2 -x,1/2+y,1/2-z
3 -x,-y,-z
4 x,1/2-y,1/2+z
_cell_length_a                   7.9594(15)
_cell_length_b                   9.1801(17)
_cell_length_c                   15.796(3)
_cell_angle_alpha                90
_cell_angle_beta                 104.492(2)
_cell_angle_gamma                90
_cell_volume                     1117.46
loop_
_atom_site_label
_atom_site_type_symbol
_atom_site_fract_x
_atom_site_fract_y
_atom_site_fract_z
Cd1 Cd 0.42612(3) 0.50563(3) 0.376301(17)
N1 N 0.3070(4) 0.3279(4) 0.2639(2)
N2 N 0.3722(4) 0.1314(4) 0.1794(2)
N3 N 0.2385(6) 1.0730(4) 0.4056(3)
N4 N 0.1791(5) 1.0901(4) 0.5469(3)
O1 O 0.4911(3) 0.6757(4) 0.4885(2)
O2 O 0.3615(4) 0.6694(3) 0.59741(19)
O3 O -0.1486(4) 0.0226(3) 0.10895(18)
O4 O -0.2032(3) 0.1727(3) 0.20975(19)
C1 C 0.3895(5) 0.7300(4) 0.5315(3)
C2 C 0.3089(5) 0.8757(4) 0.5054(3)
C3 C 0.3066(6) 0.9409(5) 0.4270(3)
C4 C 0.1803(6) 1.1408(5) 0.4678(3)
C5 C 0.2416(5) 0.9553(5) 0.5644(3)
C6 C -0.1028(5) 0.1191(4) 0.1683(2)
C7 C 0.0826(5) 0.1687(4) 0.1893(3)
C8 C 0.2040(5) 0.0925(4) 0.1580(3)
H1 H 0.1680 0.0111 0.1208
C9 C 0.4149(5) 0.2480(4) 0.2310(2)
H2 H 0.5334 0.2765 0.2455
C10 C 0.1406(5) 0.2859(4) 0.2431(3)
H3 H 0.338(7) 0.888(6) 0.375(3)
H4 H 0.133(7) 1.236(6) 0.449(3)
H5 H 0.246(6) 0.915(5) 0.622(3)
H6 H 0.063(6) 0.334(5) 0.268(3)
Cd1A Cd 0.57388(3) 0.00563(3) 0.123699(17)
Cd1B Cd 0.57388(3) 0.49437(3) 0.623699(17)
Cd1A_2 Cd -0.42612(3) 0.00563(3) 0.123699(17)
N2A N 0.6278(4) 0.6314(4) 0.3206(2)
O2B O 0.6385(4) 0.3306(3) 0.40259(19)
O3A O 0.1486(4) 0.5226(3) 0.39105(18)
O4A O 0.2032(3) 0.6727(3) 0.29025(19)
loop_
_geom_bond_atom_site_label_1
_geom_bond_atom_site_label_2
_geom_bond_site_symmetry_1
_geom_bond_site_symmetry_2
Cd1 N1 1_555 1_555
N1 C9 1_555 1_555
N2 C8 1_555 1_555
N3 C3 1_555 1_555
N4 C4 1_555 1_555
O1 Cd1 1_555 1_555
O2 C1 1_555 1_555
O3 C6 1_555 1_555
O4 C6 1_555 1_555
C1 O1 1_555 1_555
C2 C1 1_555 1_555
C3 C2 1_555 1_555
C4 N3 1_555 1_555
C5 N4 1_555 1_555
C6 C7 1_555 1_555
C7 C8 1_555 1_555
C8 H1 1_555 1_555
C9 N2 1_555 1_555
H2 C9 1_555 1_555
C10 N1 1_555 1_555
H3 C3 1_555 1_555
H4 C4 1_555 1_555
H5 C5 1_555 1_555
H6 C10 1_555 1_555
Cd1A N2 1_555 1_555
Cd1B O2 1_555 1_555
Cd1A_2 O3 1_555 1_555
N2A Cd1 1_555 1_555
O2B Cd1 1_555 1_555
O3A Cd1 1_555 1_555
O4A Cd1 1_555 1_555
O4 Cd1A_2 1_555 1_555
C2 C5 1_555 1_555
C7 C10 1_555 1_555

#END
