
#######################################################################
#
#                 Cambridge Crystallographic Data Centre
#                                CCDC 
#
#######################################################################
#
# If this CIF has been generated from an entry in the Cambridge 
# Structural Database, then it will include bibliographic, chemical, 
# crystal, experimental, refinement or atomic coordinate data resulting 
# from the CCDC's data processing and validation procedures.
#
#######################################################################

data_AMAGAX
_symmetry_cell_setting           rhombohedral
_symmetry_space_group_name_H-M   'R -3'
_symmetry_Int_Tables_number      148
_space_group_name_Hall           '-R 3'
loop_
_symmetry_equiv_pos_site_id
_symmetry_equiv_pos_as_xyz
1 x,y,z
2 -y,x-y,z
3 -x+y,-x,z
4 2/3+x,1/3+y,1/3+z
5 2/3-y,1/3+x-y,1/3+z
6 2/3-x+y,1/3-x,1/3+z
7 1/3+x,2/3+y,2/3+z
8 1/3-y,2/3+x-y,2/3+z
9 1/3-x+y,2/3-x,2/3+z
10 -x,-y,-z
11 y,-x+y,-z
12 x-y,x,-z
13 1/3-x,2/3-y,2/3-z
14 1/3+y,2/3-x+y,2/3-z
15 1/3+x-y,2/3+x,2/3-z
16 2/3-x,1/3-y,1/3-z
17 2/3+y,1/3-x+y,1/3-z
18 2/3+x-y,1/3+x,1/3-z
_cell_length_a                   43.571(6)
_cell_length_b                   43.571(6)
_cell_length_c                   7.7180(15)
_cell_angle_alpha                90
_cell_angle_beta                 90
_cell_angle_gamma                120
_cell_volume                     12689.1
loop_
_atom_site_label
_atom_site_type_symbol
_atom_site_fract_x
_atom_site_fract_y
_atom_site_fract_z
Cu1 Cu 0.08030(3) 0.16642(2) 0.16715(9)
Cu2 Cu -0.00463(3) 0.24727(2) -0.50297(9)
O1 O 0.00673(13) 0.23891(13) -0.2715(5)
O2 O 0.03203(15) 0.20799(17) -0.3664(6)
O3 O -0.01794(15) 0.25589(15) -0.7298(6)
O4 O -0.0366(2) 0.2927(2) -0.6361(7)
O5 O 0.05949(15) 0.15296(18) 0.3973(6)
O6 O 0.00381(18) 0.12837(19) 0.3001(7)
O7 O 0.10138(14) 0.18014(17) -0.0626(6)
O8 O 0.15715(16) 0.20727(18) 0.0383(7)
N1 N 0.06055(15) 0.19877(18) 0.1307(7)
N2 N 0.04467(17) 0.24066(17) 0.2293(8)
N3 N -0.06512(18) 0.30255(17) -1.1325(7)
N4 N -0.0548(2) 0.25693(18) -1.2290(8)
N5 N -0.03387(19) 0.0997(2) 0.7974(8)
N6 N 0.0235(2) 0.1150(2) 0.8964(8)
N7 N 0.19587(15) 0.23466(18) -0.4587(7)
N8 N 0.13790(19) 0.2183(2) -0.5601(8)
C1 C 0.02451(18) 0.22256(19) -0.2543(8)
C2 C 0.03654(16) 0.22228(19) -0.0694(9)
C3 C 0.05004(18) 0.2010(2) -0.0306(9)
H1 H 0.0522 0.1873 -0.1203
C4 C 0.05660(18) 0.2186(2) 0.2531(9)
H2 H 0.0631 0.2165 0.3680
C5 C 0.03522(18) 0.2430(2) 0.0641(8)
H3 H 0.0275 0.2594 0.0390
C6 C -0.0318(2) 0.2759(2) -0.7477(9)
C7 C -0.0435(2) 0.2765(2) -0.9308(10)
C8 C -0.0546(2) 0.3002(2) -0.9712(10)
H4 H -0.0549 0.3153 -0.8831
C9 C -0.0646(2) 0.2809(2) -1.2515(9)
H5 H -0.0719 0.2829 -1.3649
C10 C -0.0447(2) 0.2546(2) -1.0652(9)
H6 H -0.0381 0.2373 -1.0412
C11 C 0.0260(2) 0.1356(2) 0.4135(10)
C12 C 0.0139(2) 0.1236(2) 0.5970(10)
C13 C 0.0351(2) 0.1247(2) 0.7309(9)
H7 H 0.0594 0.1326 0.7068
C14 C -0.0107(2) 0.1030(2) 0.9183(10)
H8 H -0.0197 0.0959 1.0324
C15 C -0.0218(2) 0.1099(3) 0.6346(10)
H9 H -0.0378 0.1077 0.5452
C16 C 0.1350(2) 0.1986(2) -0.0781(9)
C17 C 0.1475(2) 0.2109(2) -0.2608(9)
C18 C 0.18280(17) 0.2246(2) -0.2975(9)
H10 H 0.1985 0.2271 -0.2062
C19 C 0.1720(2) 0.2303(2) -0.5824(9)
H11 H 0.1808 0.2366 -0.6973
C20 C 0.1259(2) 0.2090(2) -0.3959(9)
H12 H 0.1016 0.2008 -0.3728
Cu1K Cu -0.08612(4) 0.08030(3) 0.83285(9)
Cu2J Cu 0.24727(2) 0.25190(4) -0.49703(9)
Cu2E Cu -0.08143(4) 0.33796(3) -1.16964(9)
N3G N 0.03078(17) 0.29900(25) -0.4658(7)
N5J N 0.0997(2) 0.13357(28) 0.2026(8)
N7K N -0.03879(23) 0.19587(15) -0.5413(7)
C21 C 0.1227(5) 0.3032(6) -0.126(3)
C22 C 0.1166(5) 0.3273(6) -0.070(3)
H13 H 0.1101 0.3400 -0.1479
C23 C 0.1197(6) 0.3353(6) 0.119(3)
H14 H 0.1159 0.3538 0.1585
C24 C 0.1268(6) 0.3192(6) 0.224(3)
H15 H 0.1281 0.3249 0.3431
C25 C 0.1334(6) 0.2915(7) 0.169(3)
H16 H 0.1388 0.2788 0.2518
C26 C 0.1317(5) 0.2830(5) -0.008(3)
H17 H 0.1363 0.2651 -0.0481
C27 C 0.1186(6) 0.2887(8) -0.304(3)
H18 H 0.1122 0.3022 -0.3837
H19 H 0.0999 0.2637 -0.3051
H20 H 0.1410 0.2906 -0.3415
loop_
_geom_bond_atom_site_label_1
_geom_bond_atom_site_label_2
_geom_bond_site_symmetry_1
_geom_bond_site_symmetry_2
Cu1 O5 1_555 1_555
Cu2 O1 1_555 1_555
O1 C1 1_555 1_555
O2 C1 1_555 1_555
O3 Cu2 1_555 1_555
O4 C6 1_555 1_555
O5 C11 1_555 1_555
O6 C11 1_555 1_555
O7 Cu1 1_555 1_555
O8 C16 1_555 1_555
N1 Cu1 1_555 1_555
N2 C4 1_555 1_555
N3 C8 1_555 1_555
N4 C9 1_555 1_555
N5 C14 1_555 1_555
N6 C13 1_555 1_555
N7 C18 1_555 1_555
N8 C19 1_555 1_555
C1 C2 1_555 1_555
C2 C3 1_555 1_555
C3 N1 1_555 1_555
H1 C3 1_555 1_555
C4 N1 1_555 1_555
H2 C4 1_555 1_555
C5 N2 1_555 1_555
H3 C5 1_555 1_555
C6 O3 1_555 1_555
C7 C6 1_555 1_555
C8 C7 1_555 1_555
H4 C8 1_555 1_555
C9 N3 1_555 1_555
H5 C9 1_555 1_555
C10 N4 1_555 1_555
H6 C10 1_555 1_555
C11 C12 1_555 1_555
C12 C13 1_555 1_555
C13 H7 1_555 1_555
C14 N6 1_555 1_555
H8 C14 1_555 1_555
C15 N5 1_555 1_555
H9 C15 1_555 1_555
C16 O7 1_555 1_555
C17 C16 1_555 1_555
C18 C17 1_555 1_555
H10 C18 1_555 1_555
C19 N7 1_555 1_555
H11 C19 1_555 1_555
C20 N8 1_555 1_555
H12 C20 1_555 1_555
C21 C22 1_555 1_555
C22 H13 1_555 1_555
C23 C22 1_555 1_555
H14 C23 1_555 1_555
C24 C23 1_555 1_555
H15 C24 1_555 1_555
C25 C24 1_555 1_555
H16 C25 1_555 1_555
C26 C21 1_555 1_555
H17 C26 1_555 1_555
C27 C21 1_555 1_555
H18 C27 1_555 1_555
H19 C27 1_555 1_555
H20 C27 1_555 1_555
Cu1K N5 1_555 1_555
Cu2J N7 1_555 1_555
Cu2E N3 1_555 1_555
N3G Cu2 1_555 1_555
N5J Cu1 1_555 1_555
N7K Cu2 1_555 1_555
C2 C5 1_555 1_555
C7 C10 1_555 1_555
C12 C15 1_555 1_555
C17 C20 1_555 1_555
C25 C26 1_555 1_555

#END
