
#######################################################################
#
#                 Cambridge Crystallographic Data Centre
#                                CCDC 
#
#######################################################################
#
# If this CIF has been generated from an entry in the Cambridge 
# Structural Database, then it will include bibliographic, chemical, 
# crystal, experimental, refinement or atomic coordinate data resulting 
# from the CCDC's data processing and validation procedures.
#
#######################################################################

data_AMILOY
_symmetry_cell_setting           monoclinic
_symmetry_space_group_name_H-M   'P 21/n'
_symmetry_Int_Tables_number      14
_space_group_name_Hall           '-P 2yn'
loop_
_symmetry_equiv_pos_site_id
_symmetry_equiv_pos_as_xyz
1 x,y,z
2 1/2-x,1/2+y,1/2-z
3 -x,-y,-z
4 1/2+x,1/2-y,1/2+z
_cell_length_a                   12.3274(5)
_cell_length_b                   30.5413(19)
_cell_length_c                   24.7472(15)
_cell_angle_alpha                90
_cell_angle_beta                 98.232(1)
_cell_angle_gamma                90
_cell_volume                     9221.19
loop_
_atom_site_label
_atom_site_type_symbol
_atom_site_fract_x
_atom_site_fract_y
_atom_site_fract_z
Zn1 Zn 0.57587(7) 0.26574(3) 0.20133(3)
Zn2 Zn 0.37240(7) 0.27439(3) 0.24839(4)
Zn3 Zn 0.78292(9) 0.14734(3) 0.06212(4)
Zn4 Zn 0.30715(9) -0.13037(3) 0.08137(4)
N1 N 0.7089(5) 0.2594(2) 0.1597(3)
N2 N 0.7934(5) 0.2096(2) 0.0995(3)
N3 N 0.9078(7) 0.2593(3) 0.1608(4)
N4 N 0.7887(7) 0.2888(2) 0.0822(4)
C1 C 0.7040(7) 0.2153(3) 0.1332(3)
H1 H 0.7099 0.1923 0.1617
H2 H 0.6323 0.2118 0.1098
C2 C 0.8186(7) 0.2641(4) 0.1947(4)
H3 H 0.8237 0.2932 0.2125
H4 H 0.8265 0.2415 0.2236
C3 C 0.7011(8) 0.2935(3) 0.1151(4)
H5 H 0.6296 0.2906 0.0914
H6 H 0.7046 0.3230 0.1316
C4 C 0.8994(8) 0.2158(4) 0.1354(4)
H7 H 0.9073 0.1932 0.1643
H8 H 0.9601 0.2120 0.1135
C5 C 0.7828(8) 0.2453(3) 0.0575(4)
H9 H 0.8421 0.2423 0.0347
H10 H 0.7119 0.2422 0.0334
C6 C 0.8914(9) 0.2929(4) 0.1173(5)
H11 H 0.8956 0.3223 0.1343
H12 H 0.9517 0.2906 0.0949
N5 N 0.2393(5) 0.2765(2) 0.2904(3)
N6 N 0.1673(6) 0.3151(2) 0.3637(3)
N7 N 0.1474(8) 0.2361(3) 0.3545(4)
N8 N 0.0415(7) 0.2844(5) 0.2895(4)
C7 C 0.2561(6) 0.3134(3) 0.3297(3)
H13 H 0.3273 0.3098 0.3534
H14 H 0.2582 0.3413 0.3095
C8 C 0.2337(8) 0.2352(3) 0.3205(4)
H15 H 0.2205 0.2107 0.2943
H16 H 0.3049 0.2300 0.3437
C9 C 0.1302(8) 0.2830(5) 0.2557(4)
H17 H 0.1311 0.3108 0.2351
H18 H 0.1166 0.2588 0.2290
C10 C 0.1678(8) 0.2721(3) 0.3948(4)
H19 H 0.2395 0.2679 0.4179
H20 H 0.1099 0.2725 0.4188
C11 C 0.0611(8) 0.3204(4) 0.3277(4)
H21 H 0.0010 0.3217 0.3503
H22 H 0.0613 0.3482 0.3073
C12 C 0.0435(10) 0.2428(5) 0.3203(6)
H23 H -0.0159 0.2431 0.3433
H24 H 0.0295 0.2182 0.2943
O1 O 0.4865(5) 0.2616(2) 0.3163(2)
O2 O 0.6430(5) 0.2676(2) 0.2801(2)
C13 C 0.5895(7) 0.2622(3) 0.3198(3)
C14 C 0.6556(7) 0.2558(3) 0.3752(3)
C15 C 0.6038(6) 0.2486(3) 0.4206(3)
H25 H 0.5260 0.2480 0.4165
C16 C 0.6633(6) 0.2424(3) 0.4716(3)
C17 C 0.6145(7) 0.2352(4) 0.5188(4)
H26 H 0.5369 0.2336 0.5156
C18 C 0.6749(7) 0.2303(4) 0.5688(4)
H27 H 0.6393 0.2260 0.6000
C19 C 0.7900(7) 0.2317(3) 0.5745(3)
C20 C 0.8438(7) 0.2383(3) 0.5310(3)
H28 H 0.9216 0.2395 0.5356
C21 C 0.7800(6) 0.2438(3) 0.4771(3)
C22 C 0.8307(7) 0.2521(3) 0.4311(3)
H29 H 0.9084 0.2530 0.4346
C23 C 0.7703(7) 0.2589(3) 0.3813(3)
H30 H 0.8057 0.2657 0.3507
C24 C 0.8566(7) 0.2272(3) 0.6307(3)
O3 O 0.9586(5) 0.2350(2) 0.6351(2)
O4 O 0.8070(5) 0.2160(2) 0.6689(2)
O5 O 0.3714(5) 0.2098(2) 0.2320(3)
O6 O 0.5408(5) 0.20075(19) 0.2111(3)
C25 C 0.4487(7) 0.1864(3) 0.2189(3)
C26 C 0.4289(8) 0.1383(3) 0.2128(4)
C27 C 0.3294(10) 0.1207(4) 0.2251(6)
H31 H 0.2795 0.1393 0.2400
C28 C 0.3034(11) 0.0782(4) 0.2160(7)
H32 H 0.2360 0.0673 0.2249
C29 C 0.3755(12) 0.0497(3) 0.1933(5)
C30 C 0.3489(14) 0.0061(4) 0.1805(6)
H33 H 0.2818 -0.0055 0.1890
C31 C 0.4175(15) -0.0203(4) 0.1561(6)
C32 C 0.5124(15) -0.0034(5) 0.1443(6)
H34 H 0.5589 -0.0219 0.1269
C33 C 0.5466(14) 0.0397(4) 0.1561(6)
H35 H 0.6159 0.0497 0.1486
C34 C 0.4750(10) 0.0680(3) 0.1796(5)
C35 C 0.5005(9) 0.1117(3) 0.1914(4)
H36 H 0.5689 0.1230 0.1844
C36 C 0.3788(14) -0.0659(4) 0.1389(7)
O7 O 0.4406(14) -0.0874(4) 0.1129(6)
O8 O 0.2949(11) -0.0806(4) 0.1536(6)
O9 O 0.4257(5) 0.3370(2) 0.2542(3)
O10 O 0.5629(6) 0.3323(2) 0.2045(3)
C37 C 0.5073(8) 0.3518(3) 0.2350(4)
C38 C 0.5413(9) 0.3983(3) 0.2515(4)
C39 C 0.4884(9) 0.4211(3) 0.2878(4)
H37 H 0.4277 0.4082 0.3016
C40 C 0.5231(11) 0.4630(3) 0.3047(5)
C41 C 0.4783(12) 0.4869(4) 0.3453(5)
H38 H 0.4204 0.4744 0.3617
C42 C 0.5167(13) 0.5274(4) 0.3613(6)
H39 H 0.4834 0.5430 0.3878
C43 C 0.6030(14) 0.5461(4) 0.3398(6)
C44 C 0.6537(12) 0.5248(4) 0.3024(6)
H40 H 0.7144 0.5376 0.2887
C45 C 0.6139(12) 0.4823(4) 0.2840(6)
C46 C 0.6656(14) 0.4581(5) 0.2466(7)
H41 H 0.7265 0.4704 0.2325
C47 C 0.6300(13) 0.4172(4) 0.2300(6)
H42 H 0.6651 0.4016 0.2042
C48 C 0.6573(12) 0.5906(4) 0.3606(6)
O11 O 0.7211(8) 0.6088(3) 0.3368(4)
O12 O 0.6225(9) 0.6031(3) 0.4040(5)
O13 O 0.8550(6) 0.1330(2) -0.0735(3)
O14 O 0.8753(6) 0.1660(2) 0.0074(3)
C49 C 0.9118(7) 0.1473(3) -0.0317(4)
C50 C 1.0332(8) 0.1433(3) -0.0302(5)
C51 C 1.1026(10) 0.1482(3) 0.0170(6)
H43 H 1.0744 0.1535 0.0501
C52 C 1.2227(10) 0.1454(3) 0.0169(4)
C53 C 1.2913(9) 0.1516(4) 0.0636(5)
H44 H 1.2636 0.1565 0.0970
C54 C 1.4020(9) 0.1508(4) 0.0620(5)
H45 H 1.4515 0.1540 0.0949
C55 C 1.4443(8) 0.1451(3) 0.0107(5)
C56 C 1.3757(9) 0.1393(3) -0.0347(5)
H46 H 1.4038 0.1357 -0.0682
C57 C 1.2538(10) 0.1384(3) -0.0345(4)
C58 C 1.1834(10) 0.1333(4) -0.0826(5)
H47 H 1.2110 0.1290 -0.1162
C59 C 1.0749(10) 0.1344(4) -0.0811(5)
H48 H 1.0251 0.1293 -0.1135
C60 C 1.5636(7) 0.1483(3) 0.0111(4)
O15 O 1.6232(5) 0.1412(2) 0.0563(3)
O16 O 1.6016(5) 0.1592(2) -0.0312(3)
O17 O 0.2753(11) -0.0791(3) 0.0130(5)
C61 C 0.2279(18) -0.0466(5) 0.0260(9)
H49 H 0.1819 -0.0483 0.0536
N9 N 0.2410(14) -0.0091(4) 0.0014(7)
C62 C 0.3216(18) 0.0060(6) -0.0268(10)
H50 H 0.3063 0.0365 -0.0377
H51 H 0.3233 -0.0120 -0.0594
H52 H 0.3927 0.0043 -0.0034
C63 C 0.1600(18) 0.0224(6) 0.0111(9)
H53 H 0.1743 0.0502 -0.0063
H54 H 0.1629 0.0269 0.0505
H55 H 0.0871 0.0116 -0.0042
Zn1C Zn 1.07587(7) 0.23426(3) 0.70133(3)
Zn2C Zn 0.87240(7) 0.22561(3) 0.74839(4)
Zn3A Zn 0.71708(9) 0.64734(3) 0.43788(4)
Zn3_2 Zn 1.78292(9) 0.14734(3) 0.06212(4)
Zn4A Zn 0.19285(9) 0.36963(3) 0.41863(4)
Zn4B Zn 0.69285(9) 0.13037(3) -0.08137(4)
Zn4B_2 Zn 1.69285(9) 0.13037(3) -0.08137(4)
N6A N 0.3327(6) -0.1849(2) 0.1363(3)
O3C O 0.4586(5) 0.2650(2) 0.1351(2)
O4C O 0.3070(5) 0.2840(2) 0.1689(2)
O12A O 0.8775(9) 0.1031(3) 0.0960(5)
O13B O 0.1450(6) -0.1330(2) 0.0735(3)
O15_2 O 0.6232(5) 0.1412(2) 0.0563(3)
O16B O 0.3984(5) -0.1592(2) 0.0312(3)
O18 O 0.0618(10) 0.2065(4) 0.4793(5)
C64 C 0.1220(15) 0.1766(5) 0.4751(7)
H56 H 0.1820 0.1802 0.4553
N10 N 0.1049(15) 0.1375(5) 0.4985(7)
C65 C 0.0174(17) 0.1289(7) 0.5339(9)
H57 H 0.0197 0.0980 0.5448
H58 H -0.0547 0.1356 0.5134
H59 H 0.0302 0.1474 0.5666
C66 C 0.196(2) 0.1051(7) 0.5031(10)
H60 H 0.1732 0.0779 0.5190
H61 H 0.2603 0.1171 0.5265
H62 H 0.2155 0.0991 0.4667
O19 O 0.8131(14) 0.3955(4) 0.1370(7)
C67 C 0.8475(17) 0.4337(6) 0.1410(8)
H63 H 0.8267 0.4542 0.1125
N11 N 0.9143(15) 0.4457(4) 0.1861(6)
C68 C 0.9506(18) 0.4908(5) 0.1927(8)
H64 H 0.9994 0.4940 0.2274
H65 H 0.8869 0.5100 0.1927
H66 H 0.9900 0.4989 0.1625
C69 C 0.946(2) 0.4133(6) 0.2274(8)
H67 H 0.9946 0.4266 0.2577
H68 H 0.9841 0.3893 0.2119
H69 H 0.8803 0.4019 0.2408
O20 O -0.2119(14) 0.0536(5) 0.3559(7)
C70 C -0.2280(15) 0.0848(7) 0.3221(10)
H70 H -0.2643 0.0786 0.2864
N12 N -0.1982(11) 0.1236(6) 0.3335(7)
C71 C -0.2175(16) 0.1579(6) 0.2941(8)
H71 H -0.1951 0.1860 0.3114
H72 H -0.2957 0.1590 0.2795
H73 H -0.1750 0.1524 0.2642
C72 C -0.143(2) 0.1377(8) 0.3854(9)
H74 H -0.1314 0.1695 0.3849
H75 H -0.0713 0.1230 0.3930
H76 H -0.1869 0.1303 0.4140
O21 O 0.0570(17) 0.1515(6) 0.2521(8)
C73 C 0.046(2) 0.1125(8) 0.2623(12)
H77 H -0.0002 0.0965 0.2351
N13 N 0.0881(16) 0.0893(8) 0.3061(10)
C74 C 0.067(3) 0.0437(8) 0.3118(13)
H78 H 0.1040 0.0334 0.3472
H79 H 0.0943 0.0274 0.2825
H80 H -0.0122 0.0390 0.3098
C75 C 0.159(3) 0.1102(11) 0.3500(12)
H81 H 0.1812 0.0888 0.3790
H82 H 0.1196 0.1344 0.3646
H83 H 0.2240 0.1216 0.3362
O22 O 0.285(3) -0.0069(14) 0.3742(18)
C76 C 0.330(3) -0.0434(17) 0.391(2)
H84 H 0.3783 -0.0444 0.4242
N14 N 0.311(3) -0.0800(19) 0.361(2)
C77 C 0.372(4) -0.1149(18) 0.390(2)
H85 H 0.3552 -0.1425 0.3701
H86 H 0.3527 -0.1173 0.4267
H87 H 0.4508 -0.1088 0.3921
C78 C 0.240(4) -0.0816(19) 0.310(2)
H88 H 0.2355 -0.1117 0.2960
H89 H 0.2685 -0.0625 0.2834
H90 H 0.1661 -0.0717 0.3148
O23 O 0.3723(13) 0.1892(7) 0.4363(7)
O24 O 0.466(4) 0.1371(17) 0.424(2)
O25 O -0.071(3) 0.0109(12) 0.5216(16)
loop_
_geom_bond_atom_site_label_1
_geom_bond_atom_site_label_2
_geom_bond_site_symmetry_1
_geom_bond_site_symmetry_2
Zn1 N1 1_555 1_555
Zn2 N5 1_555 1_555
Zn3 N2 1_555 1_555
Zn4 O7 1_555 1_555
N1 C1 1_555 1_555
N2 C1 1_555 1_555
N3 C2 1_555 1_555
N4 C3 1_555 1_555
C1 H1 1_555 1_555
H2 C1 1_555 1_555
C2 N1 1_555 1_555
H3 C2 1_555 1_555
H4 C2 1_555 1_555
C3 N1 1_555 1_555
H5 C3 1_555 1_555
H6 C3 1_555 1_555
C4 N2 1_555 1_555
H7 C4 1_555 1_555
H8 C4 1_555 1_555
C5 N2 1_555 1_555
H9 C5 1_555 1_555
H10 C5 1_555 1_555
C6 N3 1_555 1_555
H11 C6 1_555 1_555
H12 C6 1_555 1_555
N5 C7 1_555 1_555
N6 C7 1_555 1_555
N7 C8 1_555 1_555
N8 C9 1_555 1_555
C7 H13 1_555 1_555
H14 C7 1_555 1_555
C8 N5 1_555 1_555
H15 C8 1_555 1_555
H16 C8 1_555 1_555
C9 N5 1_555 1_555
H17 C9 1_555 1_555
H18 C9 1_555 1_555
C10 N6 1_555 1_555
H19 C10 1_555 1_555
H20 C10 1_555 1_555
C11 N6 1_555 1_555
H21 C11 1_555 1_555
H22 C11 1_555 1_555
C12 N7 1_555 1_555
H23 C12 1_555 1_555
H24 C12 1_555 1_555
O1 Zn2 1_555 1_555
O2 Zn1 1_555 1_555
C13 O1 1_555 1_555
C14 C13 1_555 1_555
C15 C14 1_555 1_555
H25 C15 1_555 1_555
C16 C15 1_555 1_555
C17 C16 1_555 1_555
H26 C17 1_555 1_555
C18 C17 1_555 1_555
H27 C18 1_555 1_555
C19 C18 1_555 1_555
C20 C19 1_555 1_555
H28 C20 1_555 1_555
C21 C16 1_555 1_555
C22 C21 1_555 1_555
H29 C22 1_555 1_555
C23 C14 1_555 1_555
H30 C23 1_555 1_555
C24 C19 1_555 1_555
O3 C24 1_555 1_555
O4 C24 1_555 1_555
O5 Zn2 1_555 1_555
O6 Zn1 1_555 1_555
C25 O5 1_555 1_555
C26 C25 1_555 1_555
C27 C26 1_555 1_555
H31 C27 1_555 1_555
C28 C27 1_555 1_555
H32 C28 1_555 1_555
C29 C28 1_555 1_555
C30 C29 1_555 1_555
H33 C30 1_555 1_555
C31 C30 1_555 1_555
C32 C31 1_555 1_555
H34 C32 1_555 1_555
C33 C32 1_555 1_555
H35 C33 1_555 1_555
C34 C29 1_555 1_555
C35 C26 1_555 1_555
H36 C35 1_555 1_555
C36 C31 1_555 1_555
O7 C36 1_555 1_555
O8 Zn4 1_555 1_555
O9 Zn2 1_555 1_555
O10 Zn1 1_555 1_555
C37 O9 1_555 1_555
C38 C37 1_555 1_555
C39 C38 1_555 1_555
H37 C39 1_555 1_555
C40 C39 1_555 1_555
C41 C40 1_555 1_555
H38 C41 1_555 1_555
C42 C41 1_555 1_555
H39 C42 1_555 1_555
C43 C42 1_555 1_555
C44 C43 1_555 1_555
H40 C44 1_555 1_555
C45 C40 1_555 1_555
C46 C45 1_555 1_555
H41 C46 1_555 1_555
C47 C38 1_555 1_555
H42 C47 1_555 1_555
C48 C43 1_555 1_555
O11 C48 1_555 1_555
O12 C48 1_555 1_555
O13 C49 1_555 1_555
O14 Zn3 1_555 1_555
C49 O14 1_555 1_555
C50 C49 1_555 1_555
C51 C50 1_555 1_555
H43 C51 1_555 1_555
C52 C51 1_555 1_555
C53 C52 1_555 1_555
H44 C53 1_555 1_555
C54 C53 1_555 1_555
H45 C54 1_555 1_555
C55 C54 1_555 1_555
C56 C55 1_555 1_555
H46 C56 1_555 1_555
C57 C52 1_555 1_555
C58 C57 1_555 1_555
H47 C58 1_555 1_555
C59 C50 1_555 1_555
H48 C59 1_555 1_555
C60 C55 1_555 1_555
O15 C60 1_555 1_555
O16 C60 1_555 1_555
O17 Zn4 1_555 1_555
C61 O17 1_555 1_555
H49 C61 1_555 1_555
N9 C61 1_555 1_555
C62 N9 1_555 1_555
H50 C62 1_555 1_555
H51 C62 1_555 1_555
H52 C62 1_555 1_555
C63 N9 1_555 1_555
H53 C63 1_555 1_555
H54 C63 1_555 1_555
H55 C63 1_555 1_555
O18 C64 1_555 1_555
C64 H56 1_555 1_555
N10 C64 1_555 1_555
C65 N10 1_555 1_555
H57 C65 1_555 1_555
H58 C65 1_555 1_555
H59 C65 1_555 1_555
C66 N10 1_555 1_555
H60 C66 1_555 1_555
H61 C66 1_555 1_555
H62 C66 1_555 1_555
O19 C67 1_555 1_555
C67 H63 1_555 1_555
N11 C67 1_555 1_555
C68 N11 1_555 1_555
H64 C68 1_555 1_555
H65 C68 1_555 1_555
H66 C68 1_555 1_555
C69 N11 1_555 1_555
H67 C69 1_555 1_555
H68 C69 1_555 1_555
H69 C69 1_555 1_555
O20 C70 1_555 1_555
C70 H70 1_555 1_555
N12 C70 1_555 1_555
C71 N12 1_555 1_555
H71 C71 1_555 1_555
H72 C71 1_555 1_555
H73 C71 1_555 1_555
C72 N12 1_555 1_555
H74 C72 1_555 1_555
H75 C72 1_555 1_555
H76 C72 1_555 1_555
O21 C73 1_555 1_555
C73 H77 1_555 1_555
N13 C73 1_555 1_555
C74 N13 1_555 1_555
H78 C74 1_555 1_555
H79 C74 1_555 1_555
H80 C74 1_555 1_555
C75 N13 1_555 1_555
H81 C75 1_555 1_555
H82 C75 1_555 1_555
H83 C75 1_555 1_555
O22 C76 1_555 1_555
C76 H84 1_555 1_555
N14 C76 1_555 1_555
C77 N14 1_555 1_555
H85 C77 1_555 1_555
H86 C77 1_555 1_555
H87 C77 1_555 1_555
C78 N14 1_555 1_555
H88 C78 1_555 1_555
H89 C78 1_555 1_555
H90 C78 1_555 1_555
Zn1C O3 1_555 1_555
Zn2C O4 1_555 1_555
Zn3A O12 1_555 1_555
Zn3_2 O15 1_555 1_555
Zn4A N6 1_555 1_555
Zn4B O13 1_555 1_555
Zn4B_2 O16 1_555 1_555
N6A Zn4 1_555 1_555
O3C Zn1 1_555 1_555
O4C Zn2 1_555 1_555
O12A Zn3 1_555 1_555
O13B Zn4 1_555 1_555
O15_2 Zn3 1_555 1_555
O16B Zn4 1_555 1_555
N3 C4 1_555 1_555
N4 C5 1_555 1_555
N4 C6 1_555 1_555
N7 C10 1_555 1_555
N8 C11 1_555 1_555
N8 C12 1_555 1_555
O2 C13 1_555 1_555
C20 C21 1_555 1_555
C22 C23 1_555 1_555
O6 C25 1_555 1_555
C33 C34 1_555 1_555
C34 C35 1_555 1_555
C36 O8 1_555 1_555
O10 C37 1_555 1_555
C44 C45 1_555 1_555
C46 C47 1_555 1_555
C56 C57 1_555 1_555
C58 C59 1_555 1_555

#END
