
#######################################################################
#
#                 Cambridge Crystallographic Data Centre
#                                CCDC 
#
#######################################################################
#
# If this CIF has been generated from an entry in the Cambridge 
# Structural Database, then it will include bibliographic, chemical, 
# crystal, experimental, refinement or atomic coordinate data resulting 
# from the CCDC's data processing and validation procedures.
#
#######################################################################

data_AMIMAL
_symmetry_cell_setting           monoclinic
_symmetry_space_group_name_H-M   'P 21/n'
_symmetry_Int_Tables_number      14
_space_group_name_Hall           '-P 2yn'
loop_
_symmetry_equiv_pos_site_id
_symmetry_equiv_pos_as_xyz
1 x,y,z
2 1/2-x,1/2+y,1/2-z
3 -x,-y,-z
4 1/2+x,1/2-y,1/2+z
_cell_length_a                   12.2527(2)
_cell_length_b                   31.2515(5)
_cell_length_c                   24.7184(4)
_cell_angle_alpha                90
_cell_angle_beta                 97.023(1)
_cell_angle_gamma                90
_cell_volume                     9394.04
loop_
_atom_site_label
_atom_site_type_symbol
_atom_site_fract_x
_atom_site_fract_y
_atom_site_fract_z
Zn1 Zn 0.410385(14) 0.740928(6) 0.793470(7)
Zn2 Zn 0.612101(14) 0.729109(6) 0.746230(7)
Zn3 Zn 0.298600(15) 0.361170(6) 0.566150(8)
Zn4 Zn 0.703040(15) 1.123840(6) 0.918960(8)
O1 O 0.73843(14) 1.07715(5) 0.98726(7)
C1 C 0.7951(2) 1.04516(8) 0.98162(11)
H1 H 0.8537 1.0479 0.9600
N1 N 0.7803(3) 1.00769(7) 1.00333(10)
C2 C 0.6952(4) 1.00081(14) 1.0370(2)
H2 H 0.6962 0.9708 1.0487
H3 H 0.6238 1.0074 1.0163
H4 H 0.7072 1.0195 1.0690
C3 C 0.8515(4) 0.97136(12) 0.99468(19)
H5 H 0.8272 0.9462 1.0136
H6 H 0.9275 0.9783 1.0091
H7 H 0.8473 0.9653 0.9556
N2 N 0.26836(11) 0.75343(4) 0.82882(5)
N3 N 0.18274(11) 0.80260(4) 0.88902(6)
N4 N 0.14769(13) 0.72531(5) 0.89230(7)
N5 N 0.07033(12) 0.76705(5) 0.81313(7)
C4 C 0.28182(12) 0.79350(5) 0.86165(6)
H8 H 0.3467 0.7907 0.8895
H9 H 0.2951 0.8178 0.8375
C5 C 0.16921(13) 0.75852(6) 0.78707(7)
H10 H 0.1816 0.7824 0.7623
H11 H 0.1584 0.7321 0.7650
C6 C 0.24615(14) 0.71732(5) 0.86596(7)
H12 H 0.2366 0.6905 0.8447
H13 H 0.3101 0.7137 0.8942
C7 C 0.08616(13) 0.80613(6) 0.84544(7)
H14 H 0.0189 0.8121 0.8626
H15 H 0.0980 0.8304 0.8211
C8 C 0.16310(15) 0.76484(5) 0.92408(7)
H16 H 0.2266 0.7614 0.9526
H17 H 0.0970 0.7702 0.9424
C9 C 0.05375(15) 0.73121(6) 0.84962(9)
H18 H 0.0425 0.7046 0.8279
H19 H -0.0136 0.7364 0.8671
N6 N 0.74873(11) 0.72047(4) 0.70623(5)
N7 N 0.82428(10) 0.67836(4) 0.63538(6)
N8 N 0.85064(12) 0.75615(5) 0.63988(6)
N9 N 0.94768(11) 0.71057(5) 0.71024(6)
C10 C 0.73222(12) 0.68292(5) 0.66890(6)
H20 H 0.7266 0.6566 0.6907
H21 H 0.6624 0.6864 0.6446
C11 C 0.75942(14) 0.75970(5) 0.67215(7)
H22 H 0.6903 0.7640 0.6475
H23 H 0.7708 0.7850 0.6963
C12 C 0.85535(13) 0.71433(6) 0.74225(7)
H24 H 0.8680 0.7389 0.7675
H25 H 0.8509 0.6881 0.7644
C13 C 0.83235(14) 0.71910(5) 0.60403(7)
H26 H 0.8937 0.7167 0.5816
H27 H 0.7636 0.7233 0.5791
C14 C 0.92864(13) 0.67377(5) 0.67346(7)
H28 H 0.9249 0.6474 0.6953
H29 H 0.9913 0.6709 0.6519
C15 C 0.95273(14) 0.74961(6) 0.67706(8)
H30 H 0.9655 0.7747 0.7015
H31 H 1.0155 0.7474 0.6555
O2 O 0.50796(10) 0.74378(4) 0.67597(5)
O3 O 0.35083(10) 0.73779(4) 0.71368(5)
C16 C 0.40450(14) 0.74231(5) 0.67341(7)
C17 C 0.33687(14) 0.74601(6) 0.61880(7)
C18 C 0.38265(14) 0.76053(6) 0.57422(7)
H32 H 0.4583 0.7681 0.5779
C19 C 0.31798(14) 0.76433(6) 0.52245(7)
C20 C 0.36280(15) 0.77948(7) 0.47579(7)
H33 H 0.4374 0.7884 0.4789
C21 C 0.29892(15) 0.78137(7) 0.42625(7)
H34 H 0.3301 0.7911 0.3951
C22 C 0.18659(14) 0.76887(6) 0.42099(7)
C23 C 0.14091(14) 0.75530(6) 0.46583(7)
H35 H 0.0654 0.7476 0.4623
C24 C 0.20507(14) 0.75258(6) 0.51772(7)
C25 C 0.16016(14) 0.73752(7) 0.56419(7)
H36 H 0.0849 0.7295 0.5612
C26 C 0.22409(14) 0.73434(7) 0.61356(7)
H37 H 0.1927 0.7243 0.6445
C27 C 0.11986(14) 0.76978(5) 0.36550(7)
O4 O 0.01960(10) 0.75934(4) 0.36235(5)
O5 O 0.16993(11) 0.78043(5) 0.32619(5)
O6 O 0.62621(11) 0.79278(4) 0.76145(6)
O7 O 0.45516(11) 0.80361(4) 0.78192(5)
C28 C 0.55004(14) 0.81612(5) 0.77496(7)
C29 C 0.57753(14) 0.86255(5) 0.78490(7)
C30 C 0.68495(16) 0.87762(6) 0.77905(9)
H38 H 0.7370 0.8588 0.7662
C31 C 0.71380(16) 0.91894(6) 0.79185(9)
H39 H 0.7859 0.9286 0.7879
C32 C 0.63723(15) 0.94770(6) 0.81107(8)
C33 C 0.66534(16) 0.99034(6) 0.82606(9)
H40 H 0.7369 1.0007 0.8222
C34 C 0.59070(17) 1.01692(6) 0.84609(8)
C35 C 0.48326(17) 1.00216(6) 0.85133(9)
H41 H 0.4316 1.0208 0.8647
C36 C 0.45349(16) 0.96094(6) 0.83713(9)
H42 H 0.3815 0.9512 0.8411
C37 C 0.52931(14) 0.93280(5) 0.81658(7)
C38 C 0.50129(14) 0.88982(5) 0.80263(7)
H43 H 0.4291 0.8798 0.8056
C39 C 0.62519(19) 1.06083(6) 0.86594(8)
O8 O 0.56001(15) 1.08381(5) 0.88829(7)
O9 O 0.72230(13) 1.07329(5) 0.86244(7)
O10 O 0.54670(11) 0.67017(4) 0.74177(5)
O11 O 0.40847(11) 0.67506(4) 0.79315(5)
C40 C 0.46670(14) 0.65482(5) 0.76294(7)
C41 C 0.43791(14) 0.60902(5) 0.74934(7)
C42 C 0.49730(14) 0.58689(5) 0.71463(7)
H44 H 0.5594 0.6000 0.7020
C43 C 0.46694(14) 0.54487(5) 0.69760(7)
C44 C 0.52383(16) 0.52234(6) 0.65967(8)
H45 H 0.5860 0.5350 0.6465
C45 C 0.48927(17) 0.48237(6) 0.64197(8)
H46 H 0.5271 0.4678 0.6162
C46 C 0.39804(16) 0.46267(6) 0.66170(8)
C47 C 0.34430(16) 0.48324(6) 0.69977(8)
H47 H 0.2854 0.4693 0.7142
C48 C 0.37544(15) 0.52508(6) 0.71790(8)
C49 C 0.31707(17) 0.54824(6) 0.75483(9)
H48 H 0.2567 0.5352 0.7691
C50 C 0.34707(17) 0.58906(6) 0.76985(9)
H49 H 0.3069 0.6042 0.7942
C51 C 0.35456(16) 0.42029(6) 0.63898(8)
O12 O 0.28150(12) 0.40091(5) 0.65956(7)
O13 O 0.39500(12) 0.40679(5) 0.59671(6)
O14 O 0.36575(10) 0.36652(4) 0.42726(5)
O15 O 0.38833(10) 0.33907(4) 0.51133(5)
C52 C 0.42454(13) 0.35436(5) 0.46963(7)
C53 C 0.54608(13) 0.35805(6) 0.46972(7)
C54 C 0.61467(13) 0.35317(6) 0.51746(7)
H50 H 0.5843 0.3474 0.5503
C55 C 0.73038(13) 0.35658(6) 0.51853(7)
C56 C 0.80288(14) 0.35106(7) 0.56727(7)
H51 H 0.7740 0.3465 0.6007
C57 C 0.91433(14) 0.35223(7) 0.56638(7)
H52 H 0.9625 0.3488 0.5992
C58 C 0.95804(13) 0.35861(6) 0.51642(7)
C59 C 0.88969(13) 0.36555(6) 0.46879(7)
H53 H 0.9201 0.3707 0.4359
C60 C 0.77401(14) 0.36501(6) 0.46873(7)
C61 C 0.70094(14) 0.37064(7) 0.42009(7)
H54 H 0.7297 0.3768 0.3870
C62 C 0.58965(14) 0.36732(7) 0.42028(7)
H55 H 0.5416 0.3712 0.3875
C63 C 1.07952(13) 0.35641(5) 0.51520(7)
O16 O 1.13905(9) 0.36324(4) 0.55984(5)
O17 O 1.11478(10) 0.34622(4) 0.47135(5)
Zn1C Zn -0.089615(14) 0.759072(6) 0.293470(7)
Zn2C Zn 0.112101(14) 0.770891(6) 0.246230(7)
Zn3A Zn 0.201400(15) 0.861170(6) 0.933850(8)
Zn3_2 Zn 1.298600(15) 0.361170(6) 0.566150(8)
Zn4A Zn 0.796960(15) 0.623840(6) 0.581040(8)
Zn4C Zn 0.203040(15) 0.376160(6) 0.418960(8)
Zn4C_2 Zn 1.203040(15) 0.376160(6) 0.418960(8)
N3A N 0.31726(11) 0.30260(4) 0.61098(6)
N7A N 0.67572(10) 1.17836(4) 0.86462(6)
O4C O 0.51960(10) 0.74066(4) 0.86235(5)
O5C O 0.66993(11) 0.71957(5) 0.82619(5)
O14C O 0.86575(10) 1.13348(4) 0.92726(5)
O16_2 O 0.13905(9) 0.36324(4) 0.55984(5)
O17C O 0.61478(10) 1.15378(4) 0.97135(5)
C64 C 0.2669(3) 0.46192(10) 0.85593(13)
H56 H 0.3325 0.4466 0.8522
C65 C 0.1735(3) 0.45479(10) 0.82028(13)
H57 H 0.1749 0.4345 0.7917
C66 C 0.0779(3) 0.47674(11) 0.82558(13)
H58 H 0.0141 0.4718 0.8005
C67 C 0.0744(3) 0.50574(10) 0.86695(15)
H59 H 0.0083 0.5206 0.8709
C68 C 0.1686(3) 0.51321(11) 0.90316(16)
H60 H 0.1669 0.5332 0.9320
C69 C 0.2646(3) 0.49151(11) 0.89718(15)
H61 H 0.3292 0.4970 0.9215
C70 C 0.6107(3) 0.51848(11) 0.89870(14)
H62 H 0.5646 0.5354 0.9183
C71 C 0.5803(3) 0.50933(11) 0.84536(14)
H63 H 0.5119 0.5195 0.8278
C72 C 0.6470(3) 0.48557(12) 0.81672(16)
H64 H 0.6254 0.4800 0.7792
C73 C 0.7436(3) 0.46990(13) 0.84115(18)
H65 H 0.7891 0.4532 0.8208
C74 C 0.7758(3) 0.47793(14) 0.89471(19)
H66 H 0.8431 0.4666 0.9120
C75 C 0.7096(4) 0.50294(15) 0.92439(15)
H67 H 0.7320 0.5092 0.9617
C76 C 0.4956(3) 0.57845(11) 1.01734(14)
H68 H 0.4961 0.5597 1.0476
C77 C 0.5903(3) 0.59848(11) 1.00825(15)
H69 H 0.6559 0.5936 1.0322
C78 C 0.5914(4) 0.62570(11) 0.96457(19)
H70 H 0.6569 0.6403 0.9585
C79 C 0.4935(5) 0.63149(14) 0.9290(2)
H71 H 0.4927 0.6493 0.8978
C80 C 0.4001(4) 0.61133(15) 0.9397(2)
H72 H 0.3335 0.6157 0.9164
C81 C 0.4011(4) 0.58470(13) 0.98413(17)
H73 H 0.3355 0.5708 0.9914
C82 C 0.9571(4) 0.58847(10) 0.77837(13)
H74 H 0.9905 0.5786 0.7480
C83 C 1.0189(4) 0.61007(11) 0.81958(16)
H75 H 1.0945 0.6156 0.8176
C84 C 0.9696(5) 0.62381(11) 0.86434(15)
H76 H 1.0114 0.6388 0.8933
C85 C 0.8619(4) 0.61574(13) 0.86644(17)
H77 H 0.8282 0.6249 0.8971
C86 C 0.8007(4) 0.59441(13) 0.8246(2)
H78 H 0.7249 0.5890 0.8264
C87 C 0.8489(4) 0.58100(11) 0.78056(14)
H79 H 0.8065 0.5664 0.7515
C88 C 0.1457(4) 0.86644(11) 0.71641(15)
H80 H 0.1972 0.8711 0.7478
C89 C 0.0419(4) 0.88041(12) 0.71576(16)
H81 H 0.0208 0.8952 0.7464
C90 C -0.0344(5) 0.87337(14) 0.6706(2)
H82 H -0.1082 0.8828 0.6702
C91 C -0.0017(5) 0.85229(14) 0.6258(2)
H83 H -0.0533 0.8473 0.5946
C92 C 0.1021(5) 0.83904(12) 0.62661(18)
H84 H 0.1239 0.8251 0.5955
C93 C 0.1787(5) 0.84537(12) 0.67203(18)
H85 H 0.2521 0.8354 0.6726
C94 C -0.0947(4) 0.35300(12) 0.88100(19)
H86 H -0.1226 0.3402 0.8473
C95 C -0.1504(4) 0.34774(14) 0.9234(2)
H87 H -0.2166 0.3316 0.9198
C96 C -0.1106(5) 0.36608(17) 0.9732(2)
H88 H -0.1489 0.3628 1.0041
C97 C -0.0125(5) 0.38958(17) 0.9767(2)
H89 H 0.0168 0.4027 1.0100
C98 C 0.0407(4) 0.39329(16) 0.9307(2)
H90 H 0.1079 0.4087 0.9323
C99 C -0.0033(4) 0.37494(14) 0.8835(2)
H91 H 0.0326 0.3780 0.8517
loop_
_geom_bond_atom_site_label_1
_geom_bond_atom_site_label_2
_geom_bond_site_symmetry_1
_geom_bond_site_symmetry_2
Zn1 N2 1_555 1_555
Zn2 N6 1_555 1_555
Zn3 O13 1_555 1_555
Zn4 O1 1_555 1_555
O1 C1 1_555 1_555
C1 H1 1_555 1_555
N1 C1 1_555 1_555
C2 N1 1_555 1_555
H2 C2 1_555 1_555
H3 C2 1_555 1_555
H4 C2 1_555 1_555
C3 N1 1_555 1_555
H5 C3 1_555 1_555
H6 C3 1_555 1_555
H7 C3 1_555 1_555
N2 C4 1_555 1_555
N3 C4 1_555 1_555
N4 C6 1_555 1_555
N5 C5 1_555 1_555
C4 H8 1_555 1_555
H9 C4 1_555 1_555
C5 N2 1_555 1_555
H10 C5 1_555 1_555
H11 C5 1_555 1_555
C6 N2 1_555 1_555
H12 C6 1_555 1_555
H13 C6 1_555 1_555
C7 N3 1_555 1_555
H14 C7 1_555 1_555
H15 C7 1_555 1_555
C8 N3 1_555 1_555
H16 C8 1_555 1_555
H17 C8 1_555 1_555
C9 N4 1_555 1_555
H18 C9 1_555 1_555
H19 C9 1_555 1_555
N6 C10 1_555 1_555
N7 C10 1_555 1_555
N8 C11 1_555 1_555
N9 C12 1_555 1_555
C10 H20 1_555 1_555
H21 C10 1_555 1_555
C11 N6 1_555 1_555
H22 C11 1_555 1_555
H23 C11 1_555 1_555
C12 N6 1_555 1_555
H24 C12 1_555 1_555
H25 C12 1_555 1_555
C13 N7 1_555 1_555
H26 C13 1_555 1_555
H27 C13 1_555 1_555
C14 N7 1_555 1_555
H28 C14 1_555 1_555
H29 C14 1_555 1_555
C15 N8 1_555 1_555
H30 C15 1_555 1_555
H31 C15 1_555 1_555
O2 Zn2 1_555 1_555
O3 Zn1 1_555 1_555
C16 O2 1_555 1_555
C17 C16 1_555 1_555
C18 C17 1_555 1_555
H32 C18 1_555 1_555
C19 C18 1_555 1_555
C20 C19 1_555 1_555
H33 C20 1_555 1_555
C21 C20 1_555 1_555
H34 C21 1_555 1_555
C22 C21 1_555 1_555
C23 C22 1_555 1_555
H35 C23 1_555 1_555
C24 C19 1_555 1_555
C25 C24 1_555 1_555
H36 C25 1_555 1_555
C26 C17 1_555 1_555
H37 C26 1_555 1_555
C27 C22 1_555 1_555
O4 C27 1_555 1_555
O5 C27 1_555 1_555
O6 Zn2 1_555 1_555
O7 Zn1 1_555 1_555
C28 O6 1_555 1_555
C29 C28 1_555 1_555
C30 C29 1_555 1_555
H38 C30 1_555 1_555
C31 C30 1_555 1_555
H39 C31 1_555 1_555
C32 C31 1_555 1_555
C33 C32 1_555 1_555
H40 C33 1_555 1_555
C34 C33 1_555 1_555
C35 C34 1_555 1_555
H41 C35 1_555 1_555
C36 C35 1_555 1_555
H42 C36 1_555 1_555
C37 C32 1_555 1_555
C38 C29 1_555 1_555
H43 C38 1_555 1_555
C39 C34 1_555 1_555
O8 Zn4 1_555 1_555
O9 Zn4 1_555 1_555
O10 Zn2 1_555 1_555
O11 Zn1 1_555 1_555
C40 O10 1_555 1_555
C41 C40 1_555 1_555
C42 C41 1_555 1_555
H44 C42 1_555 1_555
C43 C42 1_555 1_555
C44 C43 1_555 1_555
H45 C44 1_555 1_555
C45 C44 1_555 1_555
H46 C45 1_555 1_555
C46 C45 1_555 1_555
C47 C46 1_555 1_555
H47 C47 1_555 1_555
C48 C43 1_555 1_555
C49 C48 1_555 1_555
H48 C49 1_555 1_555
C50 C41 1_555 1_555
H49 C50 1_555 1_555
C51 C46 1_555 1_555
O12 C51 1_555 1_555
O13 C51 1_555 1_555
O14 C52 1_555 1_555
O15 Zn3 1_555 1_555
C52 O15 1_555 1_555
C53 C52 1_555 1_555
C54 C53 1_555 1_555
H50 C54 1_555 1_555
C55 C54 1_555 1_555
C56 C55 1_555 1_555
H51 C56 1_555 1_555
C57 C56 1_555 1_555
H52 C57 1_555 1_555
C58 C57 1_555 1_555
C59 C58 1_555 1_555
H53 C59 1_555 1_555
C60 C55 1_555 1_555
C61 C60 1_555 1_555
H54 C61 1_555 1_555
C62 C53 1_555 1_555
H55 C62 1_555 1_555
C63 C58 1_555 1_555
O16 C63 1_555 1_555
O17 C63 1_555 1_555
C64 H56 1_555 1_555
C65 C64 1_555 1_555
H57 C65 1_555 1_555
C66 C65 1_555 1_555
H58 C66 1_555 1_555
C67 C66 1_555 1_555
H59 C67 1_555 1_555
C68 C67 1_555 1_555
H60 C68 1_555 1_555
C69 C64 1_555 1_555
H61 C69 1_555 1_555
C70 H62 1_555 1_555
C71 C70 1_555 1_555
H63 C71 1_555 1_555
C72 C71 1_555 1_555
H64 C72 1_555 1_555
C73 C72 1_555 1_555
H65 C73 1_555 1_555
C74 C73 1_555 1_555
H66 C74 1_555 1_555
C75 C70 1_555 1_555
H67 C75 1_555 1_555
C76 H68 1_555 1_555
C77 C76 1_555 1_555
H69 C77 1_555 1_555
C78 C77 1_555 1_555
H70 C78 1_555 1_555
C79 C78 1_555 1_555
H71 C79 1_555 1_555
C80 C79 1_555 1_555
H72 C80 1_555 1_555
C81 C76 1_555 1_555
H73 C81 1_555 1_555
C82 H74 1_555 1_555
C83 C82 1_555 1_555
H75 C83 1_555 1_555
C84 C83 1_555 1_555
H76 C84 1_555 1_555
C85 C84 1_555 1_555
H77 C85 1_555 1_555
C86 C85 1_555 1_555
H78 C86 1_555 1_555
C87 C82 1_555 1_555
H79 C87 1_555 1_555
C88 H80 1_555 1_555
C89 C88 1_555 1_555
H81 C89 1_555 1_555
C90 C89 1_555 1_555
H82 C90 1_555 1_555
C91 C90 1_555 1_555
H83 C91 1_555 1_555
C92 C91 1_555 1_555
H84 C92 1_555 1_555
C93 C88 1_555 1_555
H85 C93 1_555 1_555
C94 H86 1_555 1_555
C95 C94 1_555 1_555
H87 C95 1_555 1_555
C96 C95 1_555 1_555
H88 C96 1_555 1_555
C97 C96 1_555 1_555
H89 C97 1_555 1_555
C98 C97 1_555 1_555
H90 C98 1_555 1_555
C99 C94 1_555 1_555
H91 C99 1_555 1_555
Zn1C O4 1_555 1_555
Zn2C O5 1_555 1_555
Zn3A N3 1_555 1_555
Zn3_2 O16 1_555 1_555
Zn4A N7 1_555 1_555
Zn4C O14 1_555 1_555
Zn4C_2 O17 1_555 1_555
N3A Zn3 1_555 1_555
N7A Zn4 1_555 1_555
O4C Zn1 1_555 1_555
O5C Zn2 1_555 1_555
O14C Zn4 1_555 1_555
O16_2 Zn3 1_555 1_555
O17C Zn4 1_555 1_555
N4 C8 1_555 1_555
N5 C7 1_555 1_555
N5 C9 1_555 1_555
N8 C13 1_555 1_555
N9 C14 1_555 1_555
N9 C15 1_555 1_555
O3 C16 1_555 1_555
C23 C24 1_555 1_555
C25 C26 1_555 1_555
O7 C28 1_555 1_555
C36 C37 1_555 1_555
C37 C38 1_555 1_555
C39 O8 1_555 1_555
C39 O9 1_555 1_555
O11 C40 1_555 1_555
C47 C48 1_555 1_555
C49 C50 1_555 1_555
C59 C60 1_555 1_555
C61 C62 1_555 1_555
C68 C69 1_555 1_555
C74 C75 1_555 1_555
C80 C81 1_555 1_555
C86 C87 1_555 1_555
C92 C93 1_555 1_555
C98 C99 1_555 1_555

#END
