
#######################################################################
#
#                 Cambridge Crystallographic Data Centre
#                                CCDC 
#
#######################################################################
#
# If this CIF has been generated from an entry in the Cambridge 
# Structural Database, then it will include bibliographic, chemical, 
# crystal, experimental, refinement or atomic coordinate data resulting 
# from the CCDC's data processing and validation procedures.
#
#######################################################################

data_AMOFAK
_symmetry_cell_setting           orthorhombic
_symmetry_space_group_name_H-M   'P 21 21 21'
_symmetry_Int_Tables_number      19
_space_group_name_Hall           'P 2ac 2ab'
loop_
_symmetry_equiv_pos_site_id
_symmetry_equiv_pos_as_xyz
1 x,y,z
2 1/2-x,-y,1/2+z
3 -x,1/2+y,1/2-z
4 1/2+x,1/2-y,-z
_cell_length_a                   16.5736(7)
_cell_length_b                   21.7897(8)
_cell_length_c                   35.1320(14)
_cell_angle_alpha                90
_cell_angle_beta                 90
_cell_angle_gamma                90
_cell_volume                     12687.4
loop_
_atom_site_label
_atom_site_type_symbol
_atom_site_fract_x
_atom_site_fract_y
_atom_site_fract_z
Eu1 Eu 0.75717(3) 0.425676(18) 0.114025(10)
Eu2 Eu 0.82439(3) 0.605204(18) 0.120748(11)
S1 S 0.60948(19) 0.36622(13) 0.17705(8)
S2 S 0.62867(19) 0.34006(12) 0.05524(7)
S3 S 0.97706(19) 0.64925(13) 0.05612(7)
S4 S 0.94552(16) 0.69247(10) 0.18175(7)
O1 O 0.7500(5) 0.4644(2) 0.17717(14)
O2 O 0.7581(4) 0.5675(2) 0.17526(15)
O3 O 0.6855(4) 0.6237(2) 0.10556(15)
O4 O 0.6998(4) 0.5214(2) 0.10467(16)
O5 O 0.6679(4) 0.4326(2) 0.55811(15)
O6 O 0.6808(4) 0.5351(2) 0.55956(15)
O7 O -0.1186(4) 0.5082(3) 0.13156(16)
O8 O -0.1026(4) 0.4078(2) 0.13008(16)
O9 O 0.7993(4) 0.3305(3) 0.08236(18)
O10 O 0.7705(4) 0.3223(3) 0.14370(18)
O11 O 0.8194(5) -0.2935(3) 0.08674(16)
O12 O 0.7876(4) -0.2958(3) 0.14814(17)
O13 O 0.6285(5) 0.3930(3) 0.13788(18)
O14 O 0.6612(4) 0.4053(2) 0.06155(17)
O15 O 0.9563(5) 0.6334(3) 0.09710(18)
O16 O 0.9157(4) 0.6281(3) 0.17358(15)
C1 C 0.7503(7) 0.5174(4) 0.1922(2)
C2 C 0.7419(6) 0.5192(4) 0.2345(2)
C3 C 0.7293(8) 0.4677(5) 0.2555(3)
H1 H 0.7254 0.4293 0.2429
C4 C 0.7219(8) 0.4693(5) 0.2954(3)
H2 H 0.7140 0.4325 0.3095
C5 C 0.7265(7) 0.5254(4) 0.3136(2)
C6 C 0.7401(7) 0.5792(4) 0.2931(2)
H3 H 0.7440 0.6177 0.3056
C7 C 0.7480(7) 0.5748(4) 0.2534(2)
H4 H 0.7578 0.6110 0.2391
C8 C 0.7183(6) 0.5289(4) 0.3564(2)
H5 H 0.7317 0.5669 0.3681
C9 C 0.6559(6) 0.5709(4) 0.1054(2)
C10 C 0.5651(6) 0.5615(4) 0.1072(2)
C11 C 0.5138(7) 0.6129(4) 0.1109(3)
H6 H 0.5360 0.6531 0.1099
C12 C 0.4315(6) 0.6055(5) 0.1160(3)
H7 H 0.3981 0.6398 0.1214
C13 C 0.3983(6) 0.5470(4) 0.1132(3)
C14 C 0.4485(7) 0.4952(5) 0.1084(3)
H8 H 0.4265 0.4549 0.1086
C15 C 0.5316(6) 0.5044(5) 0.1033(3)
H9 H 0.5651 0.4705 0.0970
C16 C 0.3120(6) 0.5410(5) 0.1187(3)
H10 H 0.2819 0.5780 0.1202
C17 C 0.6744(6) 0.4841(4) 0.5418(2)
C18 C 0.6745(6) 0.4879(4) 0.5000(2)
C19 C 0.6520(6) 0.4341(4) 0.4783(2)
H11 H 0.6332 0.3981 0.4908
C20 C 0.6584(6) 0.4363(4) 0.4389(2)
H12 H 0.6435 0.4014 0.4244
C21 C 0.6860(6) 0.4883(4) 0.4205(2)
C22 C 0.7085(7) 0.5400(4) 0.4417(3)
H13 H 0.7273 0.5758 0.4291
C23 C 0.7031(6) 0.5386(4) 0.4811(2)
H14 H 0.7196 0.5735 0.4953
C24 C 0.6947(6) 0.4849(4) 0.3785(3)
H15 H 0.6817 0.4469 0.3668
C25 C -0.0736(6) 0.4623(4) 0.1321(2)
C26 C 0.0158(6) 0.4682(4) 0.1341(2)
C27 C 0.0646(5) 0.4170(4) 0.1281(3)
H16 H 0.0415 0.3773 0.1256
C28 C 0.1470(6) 0.4250(5) 0.1259(3)
H17 H 0.1802 0.3899 0.1223
C29 C 0.1840(6) 0.4826(4) 0.1288(3)
C30 C 0.1347(6) 0.5333(5) 0.1363(3)
H18 H 0.1586 0.5724 0.1400
C31 C 0.0501(6) 0.5271(4) 0.1383(3)
H19 H 0.0168 0.5620 0.1425
C32 C 0.2705(6) 0.4888(4) 0.1220(3)
H20 H 0.3004 0.4518 0.1196
C33 C 0.7943(6) 0.3000(4) 0.1126(3)
C34 C 0.8153(6) 0.2316(4) 0.1109(3)
C35 C 0.8067(9) 0.1963(4) 0.1429(3)
H21 H 0.7937 0.2149 0.1665
C36 C 0.8174(10) 0.1322(4) 0.1406(3)
H22 H 0.8082 0.1074 0.1625
C37 C 0.8413(7) 0.1051(4) 0.1064(3)
C38 C 0.8502(8) 0.1423(4) 0.0745(3)
H23 H 0.8652 0.1240 0.0510
C39 C 0.8380(9) 0.2052(4) 0.0761(3)
H24 H 0.8448 0.2299 0.0540
C40 C 0.8518(7) 0.0370(4) 0.1016(3)
H25 H 0.8785 0.0213 0.0797
C41 C 0.8047(5) -0.2651(4) 0.1180(3)
C42 C 0.8133(5) -0.1961(3) 0.1196(3)
C43 C 0.8359(7) -0.1645(4) 0.0881(3)
H26 H 0.8471 -0.1851 0.0648
C44 C 0.8421(6) -0.0997(4) 0.0907(3)
H27 H 0.8590 -0.0767 0.0692
C45 C 0.8241(6) -0.0694(4) 0.1242(3)
C46 C 0.8015(6) -0.1034(4) 0.1551(3)
H28 H 0.7900 -0.0828 0.1783
C47 C 0.7947(6) -0.1679(4) 0.1540(3)
H29 H 0.7781 -0.1909 0.1756
C48 C 0.8238(7) -0.0011(4) 0.1278(3)
H30 H 0.8021 0.0161 0.1504
C49 C 0.5408(7) 0.4157(5) 0.1965(3)
H31 H 0.5532 0.4577 0.1885
H32 H 0.5435 0.4131 0.2244
H33 H 0.4865 0.4046 0.1880
C50 C 0.5424(7) 0.3079(5) 0.1677(3)
H34 H 0.5701 0.2749 0.1540
H35 H 0.4981 0.3237 0.1520
H36 H 0.5208 0.2920 0.1917
C51 C 0.5266(7) 0.3538(5) 0.0399(4)
H37 H 0.5040 0.3160 0.0293
H38 H 0.5263 0.3859 0.0203
H39 H 0.4940 0.3671 0.0616
C52 C 0.6703(8) 0.3115(4) 0.0127(3)
H40 H 0.6502 0.2699 0.0082
H41 H 0.7293 0.3106 0.0149
H42 H 0.6547 0.3381 -0.0085
C53 C 1.0557(7) 0.5993(5) 0.0456(3)
H43 H 1.0367 0.5569 0.0477
H44 H 1.1001 0.6060 0.0635
H45 H 1.0747 0.6070 0.0196
C54 C 1.0318(7) 0.7197(5) 0.0577(3)
H46 H 0.9954 0.7538 0.0520
H47 H 1.0754 0.7186 0.0389
H48 H 1.0548 0.7252 0.0832
C55 C 1.0467(7) 0.6845(5) 0.1983(3)
H49 H 1.0677 0.7247 0.2058
H50 H 1.0804 0.6676 0.1778
H51 H 1.0478 0.6567 0.2202
C56 C 0.9010(7) 0.7129(5) 0.2263(3)
H52 H 0.9179 0.7545 0.2333
H53 H 0.9186 0.6839 0.2459
H54 H 0.8421 0.7115 0.2240
Eu1A Eu 0.74283(3) 0.574324(18) 0.614025(10)
Eu1_2 Eu -0.24283(3) 0.425676(18) 0.114025(10)
Eu2A Eu 0.67561(3) 0.394796(18) 0.620748(11)
Eu2_2 Eu -0.17561(3) 0.605204(18) 0.120748(11)
Eu2_3 Eu 0.82439(3) -0.394796(18) 0.120748(11)
O5A O 0.8321(4) 0.5674(2) 0.05811(15)
O6A O 0.8192(4) 0.4649(2) 0.05956(15)
O7_2 O 0.8814(4) 0.5082(3) 0.13156(16)
O8_2 O 0.8974(4) 0.4078(2) 0.13008(16)
O11_2 O 0.8194(5) 0.7065(3) 0.08674(16)
O12_2 O 0.7876(4) 0.7042(3) 0.14814(17)
S5 S 0.9338(2) 0.34788(13) 0.22403(8)
O17 O 0.9829(5) 0.3379(4) 0.2598(2)
C57 C 0.9648(8) 0.2917(5) 0.1917(3)
H55 H 1.0238 0.2924 0.1896
H56 H 0.9408 0.3000 0.1667
H57 H 0.9473 0.2513 0.2007
C58 C 0.8395(8) 0.3158(6) 0.2316(4)
H58 H 0.8160 0.3329 0.2549
H59 H 0.8448 0.2712 0.2343
H60 H 0.8044 0.3252 0.2099
S6 S 0.8887(2) 0.38906(17) 0.35259(10)
O18 O 0.8229(6) 0.3462(4) 0.3413(3)
C59 C 0.8809(10) 0.3909(9) 0.4015(4)
H61 H 0.8293 0.4094 0.4087
H62 H 0.9252 0.4154 0.4120
H63 H 0.8839 0.3490 0.4115
C60 C 0.9774(8) 0.3443(5) 0.3531(4)
H64 H 0.9976 0.3395 0.3270
H65 H 0.9655 0.3038 0.3638
H66 H 1.0185 0.3646 0.3687
S7 S 1.2439(3) 0.55529(18) 0.23820(12)
O19 O 1.2512(8) 0.5184(4) 0.2755(3)
C61 C 1.3386(10) 0.5667(7) 0.2216(4)
H67 H 1.3593 0.5283 0.2107
H68 H 1.3737 0.5798 0.2425
H69 H 1.3377 0.5985 0.2019
C62 C 1.2291(11) 0.6328(6) 0.2539(4)
H70 H 1.1776 0.6359 0.2675
H71 H 1.2285 0.6603 0.2318
H72 H 1.2732 0.6446 0.2710
S8 S 0.9707(3) 0.54311(18) 0.27907(10)
O20 O 1.0219(6) 0.6029(4) 0.2801(2)
C63 C 0.9721(10) 0.5188(6) 0.2325(4)
H73 H 0.9463 0.5498 0.2163
H74 H 0.9426 0.4800 0.2303
H75 H 1.0280 0.5129 0.2243
C64 C 1.0351(10) 0.4869(6) 0.2973(4)
H76 H 1.0214 0.4789 0.3240
H77 H 1.0911 0.5012 0.2957
H78 H 1.0290 0.4490 0.2826
S9 S 0.6317(2) 0.84679(15) 0.06610(8)
O21 O 0.6575(5) 0.8338(4) 0.0258(2)
C65 C 0.5926(8) 0.7763(5) 0.0834(3)
H79 H 0.6368 0.7469 0.0867
H80 H 0.5536 0.7598 0.0651
H81 H 0.5658 0.7832 0.1079
C66 C 0.5359(8) 0.8873(6) 0.0635(4)
H82 H 0.5446 0.9283 0.0528
H83 H 0.5130 0.8910 0.0891
H84 H 0.4986 0.8644 0.0472
S10 S 0.3842(3) 0.74394(18) 0.17446(10)
O22 O 0.3116(8) 0.6957(4) 0.1686(3)
C67 C 0.3595(13) 0.7927(8) 0.2120(4)
H85 H 0.3571 0.7692 0.2358
H86 H 0.3068 0.8116 0.2072
H87 H 0.4006 0.8249 0.2143
C68 C 0.3691(8) 0.7976(6) 0.1371(3)
H88 H 0.3748 0.7768 0.1125
H89 H 0.4092 0.8305 0.1391
H90 H 0.3148 0.8151 0.1392
S11 S 0.5917(3) 0.34952(19) -0.10209(12)
O23 O 0.6791(6) 0.3455(4) -0.0917(3)
C69 C 0.5897(15) 0.3306(10) -0.1533(5)
H91 H 0.6056 0.2877 -0.1569
H92 H 0.6275 0.3574 -0.1669
H93 H 0.5351 0.3368 -0.1632
C70 C 0.5649(11) 0.4250(8) -0.1084(5)
H94 H 0.5502 0.4430 -0.0837
H95 H 0.5188 0.4274 -0.1257
H96 H 0.6105 0.4477 -0.1192
S12 S 0.6178(3) 0.7079(2) 0.23415(17)
O24 O 0.5549(7) 0.7412(6) 0.2564(3)
C71 C 0.6159(11) 0.7476(10) 0.1896(4)
H97 H 0.6240 0.7916 0.1940
H98 H 0.5636 0.7410 0.1773
H99 H 0.6590 0.7319 0.1732
C72 C 0.5737(14) 0.6391(8) 0.2134(6)
H100 H 0.5476 0.6149 0.2334
H101 H 0.6161 0.6146 0.2013
H102 H 0.5335 0.6509 0.1943
S13 S 0.7718(2) 0.82876(16) 0.27120(10)
O25 O 0.8037(7) 0.7889(5) 0.3026(3)
C73 C 0.8337(8) 0.8934(6) 0.2680(4)
H103 H 0.8776 0.8853 0.2500
H104 H 0.8565 0.9026 0.2931
H105 H 0.8019 0.9285 0.2592
C74 C 0.6852(10) 0.8683(7) 0.2909(5)
H106 H 0.6584 0.8418 0.3095
H107 H 0.6474 0.8784 0.2704
H108 H 0.7030 0.9062 0.3034
S14 S 0.9688(3) 0.3191(2) 0.01857(14)
O26 O 1.0253(10) 0.2997(6) -0.0101(4)
C75 C 1.0081(10) 0.2958(6) 0.0569(4)
H109 H 1.0130 0.2510 0.0562
H110 H 0.9739 0.3078 0.0784
H111 H 1.0617 0.3142 0.0598
C76 C 0.9855(9) 0.3974(7) 0.0285(4)
H112 H 0.9476 0.4225 0.0138
H113 H 1.0409 0.4084 0.0216
H114 H 0.9773 0.4049 0.0558
S15 S 1.3060(3) 0.28969(15) 0.10287(12)
O27 O 1.3651(7) 0.3392(4) 0.1081(3)
C77 C 1.3335(14) 0.2511(7) 0.0613(4)
H115 H 1.3033 0.2679 0.0397
H116 H 1.3213 0.2073 0.0640
H117 H 1.3915 0.2563 0.0568
C78 C 1.3274(11) 0.2304(5) 0.1362(4)
H118 H 1.3027 0.2405 0.1608
H119 H 1.3860 0.2265 0.1394
H120 H 1.3054 0.1915 0.1269
S16 S 0.5113(3) 0.5461(2) 0.00555(12)
O28 O 0.4886(7) 0.5208(6) -0.0325(3)
C79 C 0.5115(13) 0.6244(8) -0.0006(5)
H121 H 0.4558 0.6395 -0.0012
H122 H 0.5382 0.6346 -0.0247
H123 H 0.5405 0.6439 0.0205
C80 C 0.6213(8) 0.5362(8) 0.0073(4)
H124 H 0.6341 0.4934 0.0133
H125 H 0.6440 0.5631 0.0269
H126 H 0.6446 0.5468 -0.0175
S17 S 0.8396(2) 0.75612(14) -0.01374(8)
O29 O 0.8958(5) 0.7196(4) -0.0375(2)
C81 C 0.7857(10) 0.8033(7) -0.0450(4)
H127 H 0.8235 0.8291 -0.0593
H128 H 0.7487 0.8293 -0.0305
H129 H 0.7549 0.7778 -0.0628
C82 C 0.7530(9) 0.7064(5) -0.0009(3)
H130 H 0.7670 0.6817 0.0214
H131 H 0.7402 0.6793 -0.0223
H132 H 0.7060 0.7321 0.0050
loop_
_geom_bond_atom_site_label_1
_geom_bond_atom_site_label_2
_geom_bond_site_symmetry_1
_geom_bond_site_symmetry_2
Eu1 O1 1_555 1_555
Eu2 O2 1_555 1_555
S1 O13 1_555 1_555
S2 O14 1_555 1_555
S3 O15 1_555 1_555
S4 O16 1_555 1_555
S5 O17 1_555 1_555
S6 O18 1_555 1_555
S7 O19 1_555 1_555
S8 O20 1_555 1_555
S9 O21 1_555 1_555
S10 O22 1_555 1_555
S11 O23 1_555 1_555
S12 O24 1_555 1_555
S13 O25 1_555 1_555
S14 O26 1_555 1_555
S15 O27 1_555 1_555
S16 O28 1_555 1_555
S17 O29 1_555 1_555
O1 C1 1_555 1_555
O2 C1 1_555 1_555
O3 Eu2 1_555 1_555
O4 Eu1 1_555 1_555
O5 C17 1_555 1_555
O6 C17 1_555 1_555
O7 C25 1_555 1_555
O8 C25 1_555 1_555
O9 Eu1 1_555 1_555
O10 Eu1 1_555 1_555
O11 C41 1_555 1_555
O12 C41 1_555 1_555
O13 Eu1 1_555 1_555
O14 Eu1 1_555 1_555
O15 Eu2 1_555 1_555
O16 Eu2 1_555 1_555
C1 C2 1_555 1_555
C2 C3 1_555 1_555
C3 H1 1_555 1_555
C4 C3 1_555 1_555
H2 C4 1_555 1_555
C5 C4 1_555 1_555
C6 C5 1_555 1_555
H3 C6 1_555 1_555
C7 C2 1_555 1_555
H4 C7 1_555 1_555
C8 C5 1_555 1_555
H5 C8 1_555 1_555
C9 O3 1_555 1_555
C10 C9 1_555 1_555
C11 C10 1_555 1_555
H6 C11 1_555 1_555
C12 C11 1_555 1_555
H7 C12 1_555 1_555
C13 C12 1_555 1_555
C14 C13 1_555 1_555
H8 C14 1_555 1_555
C15 C10 1_555 1_555
H9 C15 1_555 1_555
C16 C13 1_555 1_555
H10 C16 1_555 1_555
C17 C18 1_555 1_555
C18 C19 1_555 1_555
C19 H11 1_555 1_555
C20 C19 1_555 1_555
H12 C20 1_555 1_555
C21 C20 1_555 1_555
C22 C21 1_555 1_555
H13 C22 1_555 1_555
C23 C18 1_555 1_555
H14 C23 1_555 1_555
C24 C8 1_555 1_555
H15 C24 1_555 1_555
C25 C26 1_555 1_555
C26 C27 1_555 1_555
C27 H16 1_555 1_555
C28 C27 1_555 1_555
H17 C28 1_555 1_555
C29 C28 1_555 1_555
C30 C29 1_555 1_555
H18 C30 1_555 1_555
C31 C26 1_555 1_555
H19 C31 1_555 1_555
C32 C16 1_555 1_555
H20 C32 1_555 1_555
C33 O9 1_555 1_555
C34 C33 1_555 1_555
C35 C34 1_555 1_555
H21 C35 1_555 1_555
C36 C35 1_555 1_555
H22 C36 1_555 1_555
C37 C36 1_555 1_555
C38 C37 1_555 1_555
H23 C38 1_555 1_555
C39 C34 1_555 1_555
H24 C39 1_555 1_555
C40 C37 1_555 1_555
H25 C40 1_555 1_555
C41 C42 1_555 1_555
C42 C43 1_555 1_555
C43 H26 1_555 1_555
C44 C43 1_555 1_555
H27 C44 1_555 1_555
C45 C44 1_555 1_555
C46 C45 1_555 1_555
H28 C46 1_555 1_555
C47 C42 1_555 1_555
H29 C47 1_555 1_555
C48 C40 1_555 1_555
H30 C48 1_555 1_555
C49 S1 1_555 1_555
H31 C49 1_555 1_555
H32 C49 1_555 1_555
H33 C49 1_555 1_555
C50 S1 1_555 1_555
H34 C50 1_555 1_555
H35 C50 1_555 1_555
H36 C50 1_555 1_555
C51 S2 1_555 1_555
H37 C51 1_555 1_555
H38 C51 1_555 1_555
H39 C51 1_555 1_555
C52 S2 1_555 1_555
H40 C52 1_555 1_555
H41 C52 1_555 1_555
H42 C52 1_555 1_555
C53 S3 1_555 1_555
H43 C53 1_555 1_555
H44 C53 1_555 1_555
H45 C53 1_555 1_555
C54 S3 1_555 1_555
H46 C54 1_555 1_555
H47 C54 1_555 1_555
H48 C54 1_555 1_555
C55 S4 1_555 1_555
H49 C55 1_555 1_555
H50 C55 1_555 1_555
H51 C55 1_555 1_555
C56 S4 1_555 1_555
H52 C56 1_555 1_555
H53 C56 1_555 1_555
H54 C56 1_555 1_555
C57 S5 1_555 1_555
H55 C57 1_555 1_555
H56 C57 1_555 1_555
H57 C57 1_555 1_555
C58 S5 1_555 1_555
H58 C58 1_555 1_555
H59 C58 1_555 1_555
H60 C58 1_555 1_555
C59 S6 1_555 1_555
H61 C59 1_555 1_555
H62 C59 1_555 1_555
H63 C59 1_555 1_555
C60 S6 1_555 1_555
H64 C60 1_555 1_555
H65 C60 1_555 1_555
H66 C60 1_555 1_555
C61 S7 1_555 1_555
H67 C61 1_555 1_555
H68 C61 1_555 1_555
H69 C61 1_555 1_555
C62 S7 1_555 1_555
H70 C62 1_555 1_555
H71 C62 1_555 1_555
H72 C62 1_555 1_555
C63 S8 1_555 1_555
H73 C63 1_555 1_555
H74 C63 1_555 1_555
H75 C63 1_555 1_555
C64 S8 1_555 1_555
H76 C64 1_555 1_555
H77 C64 1_555 1_555
H78 C64 1_555 1_555
C65 S9 1_555 1_555
H79 C65 1_555 1_555
H80 C65 1_555 1_555
H81 C65 1_555 1_555
C66 S9 1_555 1_555
H82 C66 1_555 1_555
H83 C66 1_555 1_555
H84 C66 1_555 1_555
C67 S10 1_555 1_555
H85 C67 1_555 1_555
H86 C67 1_555 1_555
H87 C67 1_555 1_555
C68 S10 1_555 1_555
H88 C68 1_555 1_555
H89 C68 1_555 1_555
H90 C68 1_555 1_555
C69 S11 1_555 1_555
H91 C69 1_555 1_555
H92 C69 1_555 1_555
H93 C69 1_555 1_555
C70 S11 1_555 1_555
H94 C70 1_555 1_555
H95 C70 1_555 1_555
H96 C70 1_555 1_555
C71 S12 1_555 1_555
H97 C71 1_555 1_555
H98 C71 1_555 1_555
H99 C71 1_555 1_555
C72 S12 1_555 1_555
H100 C72 1_555 1_555
H101 C72 1_555 1_555
H102 C72 1_555 1_555
C73 S13 1_555 1_555
H103 C73 1_555 1_555
H104 C73 1_555 1_555
H105 C73 1_555 1_555
C74 S13 1_555 1_555
H106 C74 1_555 1_555
H107 C74 1_555 1_555
H108 C74 1_555 1_555
C75 S14 1_555 1_555
H109 C75 1_555 1_555
H110 C75 1_555 1_555
H111 C75 1_555 1_555
C76 S14 1_555 1_555
H112 C76 1_555 1_555
H113 C76 1_555 1_555
H114 C76 1_555 1_555
C77 S15 1_555 1_555
H115 C77 1_555 1_555
H116 C77 1_555 1_555
H117 C77 1_555 1_555
C78 S15 1_555 1_555
H118 C78 1_555 1_555
H119 C78 1_555 1_555
H120 C78 1_555 1_555
C79 S16 1_555 1_555
H121 C79 1_555 1_555
H122 C79 1_555 1_555
H123 C79 1_555 1_555
C80 S16 1_555 1_555
H124 C80 1_555 1_555
H125 C80 1_555 1_555
H126 C80 1_555 1_555
C81 S17 1_555 1_555
H127 C81 1_555 1_555
H128 C81 1_555 1_555
H129 C81 1_555 1_555
C82 S17 1_555 1_555
H130 C82 1_555 1_555
H131 C82 1_555 1_555
H132 C82 1_555 1_555
Eu1A O6 1_555 1_555
Eu1_2 O7 1_555 1_555
Eu2A O5 1_555 1_555
Eu2_2 O7 1_555 1_555
Eu2_3 O11 1_555 1_555
O5A Eu2 1_555 1_555
O6A Eu1 1_555 1_555
O7_2 Eu1 1_555 1_555
O8_2 Eu1 1_555 1_555
O11_2 Eu2 1_555 1_555
O12_2 Eu2 1_555 1_555
Eu2 O4 1_555 1_555
Eu2 O7_2 1_555 1_555
O4 C9 1_555 1_555
O8 Eu1_2 1_555 1_555
O10 C33 1_555 1_555
O12 Eu2_3 1_555 1_555
C6 C7 1_555 1_555
C14 C15 1_555 1_555
C21 C24 1_555 1_555
C22 C23 1_555 1_555
C29 C32 1_555 1_555
C30 C31 1_555 1_555
C38 C39 1_555 1_555
C45 C48 1_555 1_555
C46 C47 1_555 1_555

#END
