
#######################################################################
#
#                 Cambridge Crystallographic Data Centre
#                                CCDC 
#
#######################################################################
#
# If this CIF has been generated from an entry in the Cambridge 
# Structural Database, then it will include bibliographic, chemical, 
# crystal, experimental, refinement or atomic coordinate data resulting 
# from the CCDC's data processing and validation procedures.
#
#######################################################################

data_AMUCOB
_symmetry_cell_setting           rhombohedral
_symmetry_space_group_name_H-M   'R -3'
_symmetry_Int_Tables_number      148
_space_group_name_Hall           '-R 3'
loop_
_symmetry_equiv_pos_site_id
_symmetry_equiv_pos_as_xyz
1 x,y,z
2 -y,x-y,z
3 -x+y,-x,z
4 2/3+x,1/3+y,1/3+z
5 2/3-y,1/3+x-y,1/3+z
6 2/3-x+y,1/3-x,1/3+z
7 1/3+x,2/3+y,2/3+z
8 1/3-y,2/3+x-y,2/3+z
9 1/3-x+y,2/3-x,2/3+z
10 -x,-y,-z
11 y,-x+y,-z
12 x-y,x,-z
13 1/3-x,2/3-y,2/3-z
14 1/3+y,2/3-x+y,2/3-z
15 1/3+x-y,2/3+x,2/3-z
16 2/3-x,1/3-y,1/3-z
17 2/3+y,1/3-x+y,1/3-z
18 2/3+x-y,1/3+x,1/3-z
_cell_length_a                   20.659(8)
_cell_length_b                   20.659(8)
_cell_length_c                   8.637(2)
_cell_angle_alpha                90
_cell_angle_beta                 90
_cell_angle_gamma                120
_cell_volume                     3192.36
loop_
_atom_site_label
_atom_site_type_symbol
_atom_site_fract_x
_atom_site_fract_y
_atom_site_fract_z
Ca1 Ca 0.74233(6) 0.06033(6) 0.66841(12)
O1 O 0.6150(2) -0.0359(2) 0.7570(4)
O2 O 0.5795(2) -0.1141(2) 0.5562(5)
O3 O 0.6021(2) -0.2001(2) 1.2463(5)
O4 O 0.5820(2) -0.3034(2) 1.1366(5)
C1 C 0.5750(3) -0.0994(3) 0.6936(7)
C2 C 0.5221(4) -0.1634(4) 0.7952(7)
H1 H 0.4890 -0.2059 0.7315
H2 H 0.4918 -0.1488 0.8553
C3 C 0.5670(3) -0.1853(4) 0.9051(7)
H3 H 0.5934 -0.2039 0.8435
H4 H 0.6042 -0.1407 0.9582
C4 C 0.5202(3) -0.2440(3) 1.0258(7)
H5 H 0.4868 -0.2303 1.0765
H6 H 0.4900 -0.2920 0.9759
C5 C 0.5707(3) -0.2494(3) 1.1434(6)
Ca1D Ca 0.60634(6) 0.01533(8) 1.00174(12)
Ca1H Ca 0.65133(8) -0.07566(6) 0.33508(12)
Ca1H_2 Ca 0.65133(8) -0.07566(6) 1.33508(12)
Ca1K Ca 0.68200(8) -0.25767(6) 1.33159(12)
Ca1L Ca 0.59100(6) -0.39366(6) 0.99826(12)
O1H O 0.6824(3) 0.0517(2) 0.4237(4)
O2D O 0.7808(2) 0.0269(3) 0.8895(5)
O3D O 0.8668(2) 0.1355(3) 0.5796(5)
O3J O 0.7999(2) 0.1978(3) 0.7537(5)
O4J O 0.6966(2) 0.1146(3) 0.8634(5)
O4L O 0.7513(2) -0.0299(2) 0.5301(5)
loop_
_geom_bond_atom_site_label_1
_geom_bond_atom_site_label_2
_geom_bond_site_symmetry_1
_geom_bond_site_symmetry_2
Ca1 O1 1_555 1_555
O1 C1 1_555 1_555
O2 C1 1_555 1_555
O3 C5 1_555 1_555
O4 C5 1_555 1_555
C1 C2 1_555 1_555
C2 H1 1_555 1_555
H2 C2 1_555 1_555
C3 C2 1_555 1_555
H3 C3 1_555 1_555
H4 C3 1_555 1_555
C4 C3 1_555 1_555
H5 C4 1_555 1_555
H6 C4 1_555 1_555
C5 C4 1_555 1_555
Ca1D O1 1_555 1_555
Ca1H O2 1_555 1_555
Ca1H_2 O3 1_555 1_555
Ca1K O3 1_555 1_555
Ca1L O4 1_555 1_555
O1H Ca1 1_555 1_555
O2D Ca1 1_555 1_555
O3D Ca1 1_555 1_555
O3J Ca1 1_555 1_555
O4J Ca1 1_555 1_555
O4L Ca1 1_555 1_555
O4 Ca1K 1_555 1_555
Ca1D O4J 1_555 1_555
Ca1H O1H 1_555 1_555
Ca1H O4L 1_555 1_555

#END
