
#######################################################################
#
#                 Cambridge Crystallographic Data Centre
#                                CCDC 
#
#######################################################################
#
# If this CIF has been generated from an entry in the Cambridge 
# Structural Database, then it will include bibliographic, chemical, 
# crystal, experimental, refinement or atomic coordinate data resulting 
# from the CCDC's data processing and validation procedures.
#
#######################################################################

data_AQOVIM
_symmetry_cell_setting           tetragonal
_symmetry_space_group_name_H-M   'I 41/a m d'
_symmetry_Int_Tables_number      141
_space_group_name_Hall           '-I 4bd 2'
loop_
_symmetry_equiv_pos_site_id
_symmetry_equiv_pos_as_xyz
1 x,y,z
2 -x,1/2-y,z
3 x,-y,-z
4 -x,1/2+y,-z
5 1/4-y,1/4-x,3/4-z
6 1/4+y,3/4+x,1/4-z
7 1/4+y,1/4-x,3/4+z
8 1/4-y,3/4+x,1/4+z
9 1/2+x,1/2+y,1/2+z
10 1/2-x,-y,1/2+z
11 1/2+x,1/2-y,1/2-z
12 1/2-x,y,1/2-z
13 3/4-y,3/4-x,1/4-z
14 3/4+y,1/4+x,3/4-z
15 3/4+y,3/4-x,1/4+z
16 3/4-y,1/4+x,3/4+z
17 -x,-y,-z
18 x,1/2+y,-z
19 -x,y,z
20 x,1/2-y,z
21 3/4+y,3/4+x,1/4+z
22 3/4-y,1/4-x,3/4+z
23 3/4-y,3/4+x,1/4-z
24 3/4+y,1/4-x,3/4-z
25 1/2-x,1/2-y,1/2-z
26 1/2+x,y,1/2-z
27 1/2-x,1/2+y,1/2+z
28 1/2+x,-y,1/2+z
29 1/4+y,1/4+x,3/4+z
30 1/4-y,3/4-x,1/4+z
31 1/4-y,1/4+x,3/4-z
32 1/4+y,3/4-x,1/4-z
_cell_length_a                   11.4651(3)
_cell_length_b                   11.4651(3)
_cell_length_c                   8.9154(3)
_cell_angle_alpha                90
_cell_angle_beta                 90
_cell_angle_gamma                90
_cell_volume                     1171.92
loop_
_atom_site_label
_atom_site_type_symbol
_atom_site_fract_x
_atom_site_fract_y
_atom_site_fract_z
C1 C 0.0000 0.5233(7) -0.0784(9)
O1 O 0.0000 0.4490(5) -0.1828(7)
O2 O 0.0000(5) 0.6321 -0.0943(6)
O3 O -0.1435(13) 0.5455(12) -0.4161(14)
Ho1 Ho 0.0000 0.2500 -0.1250
K1 K 0.0000 0.7500 -0.3750
C1B C 0.0000 0.4767(7) 0.0784(9)
C1A C 0.0000 -0.0233(7) -0.0784(9)
C1C C 0.0000 0.0233(7) 0.0784(9)
O1B O 0.0000 0.5510(5) 0.1828(7)
O1A O 0.0000 0.0510(5) -0.1828(7)
O1C O 0.0000 -0.0510(5) 0.1828(7)
O1D O -0.1990(5) 0.2500 -0.0672(7)
O1M O 0.1990(5) 0.2500 -0.0672(7)
O2B O 0.0000(5) 0.3679 0.0943(6)
O2A O 0.0000(5) -0.1321 -0.0943(6)
O2C O 0.0000(5) 0.1321 0.0943(6)
O2F O -0.1179 0.2500(5) -0.3443(6)
O2O O 0.1179 0.2500(5) -0.3443(6)
O2A_2 O 0.0000(5) 0.8679 -0.0943(6)
O2E O -0.1179 0.7500(5) -0.6557(6)
O2L O 0.1179 0.7500(5) -0.6557(6)
O3E O -0.2045(12) 0.6065(13) -0.3339(14)
O3A O 0.1435(13) 0.9545(12) -0.4161(14)
O3L O 0.2045(12) 0.8935(13) -0.3339(14)
O3R O 0.1435(13) 0.5455(12) -0.4161(14)
O3V O 0.2045(12) 0.6065(13) -0.3339(14)
O3S O -0.1435(13) 0.9545(12) -0.4161(14)
O3EA O -0.2045(12) 0.8935(13) -0.3339(14)
Ho1B Ho 0.0000 0.7500 0.1250
Ho1B_2 Ho 0.0000 -0.2500 0.1250
K1B K 0.0000 0.2500 0.3750
K1_2 K 0.0000 -0.2500 -0.3750
loop_
_geom_bond_atom_site_label_1
_geom_bond_atom_site_label_2
_geom_bond_site_symmetry_1
_geom_bond_site_symmetry_2
C1 O1 1_555 1_555
O1 Ho1 1_555 1_555
O2 C1 1_555 1_555
O3 K1 1_555 1_555
Ho1 O1A 1_555 1_555
K1 O2 1_555 1_555
C1B C1 1_555 1_555
C1A C1C 1_555 1_555
C1C O1C 1_555 1_555
O1B C1B 1_555 1_555
O1A C1A 1_555 1_555
O1C Ho1B_2 1_555 1_555
O1D Ho1 1_555 1_555
O1M Ho1 1_555 1_555
O2B Ho1 1_555 1_555
O2A C1A 1_555 1_555
O2C Ho1 1_555 1_555
O2F Ho1 1_555 1_555
O2O Ho1 1_555 1_555
O2A_2 K1 1_555 1_555
O2E K1 1_555 1_555
O2L K1 1_555 1_555
O3E O3 1_555 1_555
O3A K1 1_555 1_555
O3L K1 1_555 1_555
O3R K1 1_555 1_555
O3V K1 1_555 1_555
O3S K1 1_555 1_555
O3EA K1 1_555 1_555
Ho1B O2 1_555 1_555
Ho1B_2 O2A 1_555 1_555
K1B O2B 1_555 1_555
K1_2 O2A 1_555 1_555
K1 O3E 1_555 1_555
C1B O2B 1_555 1_555
C1C O2C 1_555 1_555
O1B Ho1B 1_555 1_555
O2C K1B 1_555 1_555
O2A_2 Ho1B 1_555 1_555
O3A O3L 1_555 1_555
O3R O3V 1_555 1_555
O3S O3EA 1_555 1_555

#END
