
#######################################################################
#
#                 Cambridge Crystallographic Data Centre
#                                CCDC 
#
#######################################################################
#
# If this CIF has been generated from an entry in the Cambridge 
# Structural Database, then it will include bibliographic, chemical, 
# crystal, experimental, refinement or atomic coordinate data resulting 
# from the CCDC's data processing and validation procedures.
#
#######################################################################

data_ARAFIJ
_symmetry_cell_setting           orthorhombic
_symmetry_space_group_name_H-M   'I m m a'
_symmetry_Int_Tables_number      74
_space_group_name_Hall           '-I 2b 2'
loop_
_symmetry_equiv_pos_site_id
_symmetry_equiv_pos_as_xyz
1 x,y,z
2 -x,1/2-y,z
3 -x,1/2+y,-z
4 x,-y,-z
5 1/2+x,1/2+y,1/2+z
6 1/2-x,-y,1/2+z
7 1/2-x,y,1/2-z
8 1/2+x,1/2-y,1/2-z
9 -x,-y,-z
10 x,1/2+y,-z
11 x,1/2-y,z
12 -x,y,z
13 1/2-x,1/2-y,1/2-z
14 1/2+x,y,1/2-z
15 1/2+x,-y,1/2+z
16 1/2-x,1/2+y,1/2+z
_cell_length_a                   23.739(4)
_cell_length_b                   7.0724(10)
_cell_length_c                   11.5405(17)
_cell_angle_alpha                90
_cell_angle_beta                 90
_cell_angle_gamma                90
_cell_volume                     1937.55
loop_
_atom_site_label
_atom_site_type_symbol
_atom_site_fract_x
_atom_site_fract_y
_atom_site_fract_z
Cu1 Cu 0.5000 1.0000 0.5000
N1 N 0.44039(14) 1.1565(5) 0.4244(3)
C1 C 0.3043(3) 1.2500 0.2970(7)
N2 N 0.39154(17) 1.0968(7) 0.3776(4)
H1 H 0.3805 0.9689 0.3666
C2 C 0.3614(3) 1.2500 0.3493(7)
C3 C 0.2776(3) 1.0894(9) 0.2714(11)
H2 H 0.2965 0.9724 0.2824
O2 O 0.5000 0.7500 0.3480(5)
C4 C 0.6076(6) 0.7500 0.2680(12)
N3 N 0.5750(8) 0.7500 0.1701(16)
C5 C 0.540(4) 0.7500 0.274(9)
C6 C 0.590(7) 0.7500 0.048(4)
Cu1A Cu 0.5000 0.5000 0.5000
Cu1A_2 Cu 0.5000 1.5000 0.5000
Cu1E Cu 0.0000 1.0000 0.0000
Cu1D Cu 0.0000 1.5000 0.0000
N1J N 0.44039(14) 1.3435(5) 0.4244(3)
N1F N 0.05961(14) 1.1565(5) 0.0756(3)
N1L N 0.05961(14) 1.3435(5) 0.0756(3)
N1C N 0.44039(14) 0.8435(5) 0.5756(3)
N1H N 0.55961(14) 0.8435(5) 0.5756(3)
N1K N 0.55961(14) 1.1565(5) 0.4244(3)
C1F C 0.1957(3) 1.2500 0.2030(7)
N2J N 0.39154(17) 1.4032(7) 0.3776(4)
N2F N 0.10846(17) 1.0968(7) 0.1224(4)
N2L N 0.10846(17) 1.4032(7) 0.1224(4)
H1J H 0.3805 1.5311 0.3666
H1F H 0.1195 0.9689 0.1334
H1L H 0.1195 1.5311 0.1334
C2F C 0.1386(3) 1.2500 0.1507(7)
C3F C 0.2224(3) 1.0894(9) 0.2286(11)
C3L C 0.2224(3) 1.4106(9) 0.2286(11)
C3J C 0.2776(3) 1.4106(9) 0.2714(11)
H2L H 0.2035 1.5276 0.2176
H2J H 0.2965 1.5276 0.2824
H2F H 0.2035 0.9724 0.2176
O2B O 0.5000 1.2500 0.6520(5)
C4A C 0.3924(6) 0.7500 0.2680(12)
N3A N 0.4250(8) 0.7500 0.1701(16)
C5A C 0.460(4) 0.7500 0.274(9)
C6A C 0.410(7) 0.7500 0.048(4)
O1 O 0.5000 0.7500 -0.032(7)
C7? C 0.39154(17) 1.0968(7) 0.3776(4)
loop_
_geom_bond_atom_site_label_1
_geom_bond_atom_site_label_2
_geom_bond_site_symmetry_1
_geom_bond_site_symmetry_2
Cu1 N1 1_555 1_555
N1 N2 1_555 1_555
C1 C2 1_555 1_555
N2 H1 1_555 1_555
C2 N2 1_555 1_555
C3 C1 1_555 1_555
H2 C3 1_555 1_555
O2 Cu1 1_555 1_555
C4 N3 1_555 1_555
N3 C5 1_555 1_555
C5 O2 1_555 1_555
C6 N3 1_555 1_555
Cu1A O2 1_555 1_555
Cu1A_2 N1J 1_555 1_555
Cu1E N1F 1_555 1_555
Cu1D N1L 1_555 1_555
N1J N1 1_555 1_555
N1F N1L 1_555 1_555
N1L N2L 1_555 1_555
N1C Cu1 1_555 1_555
N1H Cu1 1_555 1_555
N1K Cu1 1_555 1_555
C1F C2F 1_555 1_555
N2J C2 1_555 1_555
N2F N1F 1_555 1_555
N2L H1L 1_555 1_555
H1J N2J 1_555 1_555
H1F N2F 1_555 1_555
C2F N2F 1_555 1_555
C3F C3 1_555 1_555
C3L C1F 1_555 1_555
C3J C1 1_555 1_555
H2L C3L 1_555 1_555
H2J C3J 1_555 1_555
H2F C3F 1_555 1_555
O2B Cu1 1_555 1_555
C4A N3A 1_555 1_555
N3A C5A 1_555 1_555
C5A O2 1_555 1_555
C6A N3A 1_555 1_555
C4 C5 1_555 1_555
Cu1A_2 O2B 1_555 1_555
N1J N2J 1_555 1_555
C1F C3F 1_555 1_555
N2L C2F 1_555 1_555
C3L C3J 1_555 1_555
C4A C5A 1_555 1_555

#END
