
#######################################################################
#
#                 Cambridge Crystallographic Data Centre
#                                CCDC 
#
#######################################################################
#
# If this CIF has been generated from an entry in the Cambridge 
# Structural Database, then it will include bibliographic, chemical, 
# crystal, experimental, refinement or atomic coordinate data resulting 
# from the CCDC's data processing and validation procedures.
#
#######################################################################

data_ARINOF
_symmetry_cell_setting           triclinic
_symmetry_space_group_name_H-M   'P -1'
_symmetry_Int_Tables_number      2
_space_group_name_Hall           '-P 1'
loop_
_symmetry_equiv_pos_site_id
_symmetry_equiv_pos_as_xyz
1 x,y,z
2 -x,-y,-z
_cell_length_a                   12.726(12)
_cell_length_b                   8.057(7)
_cell_length_c                   13.505(12)
_cell_angle_alpha                89.958(11)
_cell_angle_beta                 90.123(8)
_cell_angle_gamma                89.928(11)
_cell_volume                     1384.71
loop_
_atom_site_label
_atom_site_type_symbol
_atom_site_fract_x
_atom_site_fract_y
_atom_site_fract_z
Cu1 Cu 0.75001(12) 0.25119(14) 0.25004(11)
C1 C 0.8490(11) 0.6597(15) 0.0771(10)
H1 H 0.8123 0.7413 0.0426
C2 C 0.9542(9) 0.6706(13) 0.0866(9)
C3 C 0.9462(10) 0.4161(15) 0.1765(9)
H2 H 0.9816 0.3300 0.2082
C4 C 1.0039(10) 0.5421(14) 0.1383(10)
H3 H 1.0764 0.5431 0.1465
C5 C 0.7952(11) 0.5275(15) 0.1185(11)
H4 H 0.7229 0.5210 0.1093
C6 C 0.5858(9) -0.1695(13) 0.0515(9)
C7 C 0.6388(10) -0.0406(14) 0.0075(9)
H5 H 0.6488 -0.0386 -0.0607
C8 C 0.6773(9) 0.0862(13) 0.0664(9)
H6 H 0.7140 0.1717 0.0358
C9 C 0.5721(11) -0.1624(15) 0.1522(10)
H7 H 0.5369 -0.2472 0.1850
C10 C 0.6108(11) -0.0294(15) 0.2043(10)
H8 H 0.5985 -0.0248 0.2721
N1 N 0.8433(8) 0.4086(10) 0.1714(7)
N2 N 0.6651(8) 0.0930(11) 0.1628(7)
C11 C 0.5449(9) 0.6687(13) 0.4127(9)
C12 C 0.6510(11) 0.6592(15) 0.4230(10)
H9 H 0.6872 0.7412 0.4576
C13 C 0.4966(10) 0.5431(14) 0.3624(10)
H10 H 0.4239 0.5441 0.3548
C14 C 0.5537(10) 0.4167(15) 0.3235(9)
H11 H 0.5182 0.3320 0.2908
C15 C 0.7048(10) 0.5280(15) 0.3822(11)
H12 H 0.7771 0.5218 0.3912
N3 N 0.6564(8) 0.4081(10) 0.3298(7)
N4 N 0.8346(8) 0.0924(10) 0.3371(7)
C16 C 0.9139(9) -0.1694(12) 0.4485(9)
C17 C 0.8617(10) -0.0421(15) 0.4922(9)
H13 H 0.8520 -0.0413 0.5605
C18 C 0.8228(9) 0.0875(13) 0.4343(9)
H14 H 0.7871 0.1738 0.4652
C19 C 0.9282(11) -0.1609(14) 0.3472(10)
H15 H 0.9641 -0.2448 0.3142
C20 C 0.8892(12) -0.0285(16) 0.2962(10)
H16 H 0.9017 -0.0232 0.2285
C21 C 0.9496(10) -0.3098(15) 0.5085(10)
H17 H 0.9473 -0.3044 0.5773
C22 C 1.0128(11) 0.8120(16) 0.0468(10)
H18 H 1.0856 0.8063 0.0421
C23 C 0.4872(10) 0.8119(15) 0.4522(10)
H19 H 0.4143 0.8081 0.4549
N5 N 0.5342(8) 0.9398(12) 0.4824(8)
N6 N 0.9654(9) 0.9412(13) 0.0188(8)
C24 C 0.5493(10) -0.3078(15) -0.0079(10)
H20 H 0.5494 -0.3000 -0.0766
N7 N 0.5168(10) -0.4405(13) 0.0342(8)
N8 N 0.9837(9) -0.4391(13) 0.4655(8)
Cu1A Cu 1.24999(12) 1.74881(14) -0.25004(11)
Cu1A_2 Cu 0.24999(12) -1.25119(14) -0.25004(11)
Cu1A_3 Cu 0.24999(12) 1.74881(14) 0.74996(11)
Cu1A_4 Cu 1.24999(12) -1.25119(14) 0.74996(11)
C1A C 1.1510(11) 1.3403(15) -0.0771(10)
H1A H 1.1877 1.2587 -0.0426
C2A C 1.0458(9) 1.3294(13) -0.0866(9)
C3A C 1.0538(10) 1.5839(15) -0.1765(9)
H2A H 1.0184 1.6700 -0.2082
C4A C 0.9961(10) 1.4579(14) -0.1383(10)
H3A H 0.9236 1.4569 -0.1465
C5A C 1.2048(11) 1.4725(15) -0.1185(11)
H4A H 1.2771 1.4790 -0.1093
C6A C 0.4142(9) -0.8305(13) -0.0515(9)
C7A C 0.3612(10) -0.9594(14) -0.0075(9)
H5A H 0.3512 -0.9614 0.0607
C8A C 0.3227(9) -1.0862(13) -0.0664(9)
H6A H 0.2860 -1.1717 -0.0358
C9A C 0.4279(11) -0.8376(15) -0.1522(10)
H7A H 0.4631 -0.7528 -0.1850
C10A C 0.3892(11) -0.9706(15) -0.2043(10)
H8A H 0.4015 -0.9752 -0.2721
N1A N 1.1567(8) 1.5914(10) -0.1714(7)
N2A N 0.3349(8) -1.0930(11) -0.1628(7)
N2A_2 N 1.3349(8) 1.9070(11) -0.1628(7)
C11A C 0.4551(9) 1.3313(13) 0.5873(9)
C12A C 0.3490(11) 1.3408(15) 0.5770(10)
H9A H 0.3128 1.2588 0.5424
C13A C 0.5034(10) 1.4569(14) 0.6376(10)
H10A H 0.5761 1.4559 0.6452
C14A C 0.4463(10) 1.5833(15) 0.6765(9)
H11A H 0.4818 1.6680 0.7092
C15A C 0.2952(10) 1.4720(15) 0.6178(11)
H12A H 0.2229 1.4782 0.6088
N3A N 0.3436(8) 1.5919(10) 0.6702(7)
N3A_2 N 1.3436(8) 1.5919(10) -0.3298(7)
N4A N 1.1654(8) -1.0924(10) 0.6629(7)
N4A_2 N 1.1654(8) 1.9076(10) -0.3371(7)
C16A C 1.0861(9) -0.8306(12) 0.5515(9)
C17A C 1.1383(10) -0.9579(15) 0.5078(9)
H13A H 1.1480 -0.9587 0.4395
C18A C 1.1772(9) -1.0875(13) 0.5657(9)
H14A H 1.2129 -1.1738 0.5348
C19A C 1.0718(11) -0.8391(14) 0.6528(10)
H15A H 1.0359 -0.7552 0.6858
C20A C 1.1108(12) -0.9715(16) 0.7038(10)
H16A H 1.0983 -0.9768 0.7715
C21A C 1.0504(10) -0.6902(15) 0.4915(10)
H17A H 1.0527 -0.6956 0.4227
C22A C 0.9872(11) 1.1880(16) -0.0468(10)
H18A H 0.9144 1.1937 -0.0421
C23A C 0.5128(10) 1.1881(15) 0.5478(10)
H19A H 0.5857 1.1919 0.5451
N5A N 0.4658(8) 1.0602(12) 0.5176(8)
N6A N 1.0346(9) 1.0588(13) -0.0188(8)
C24A C 0.4507(10) -0.6922(15) 0.0079(10)
H20A H 0.4506 -0.7000 0.0766
N7A N 0.4832(10) -0.5595(13) -0.0342(8)
N8A N 1.0163(9) -0.5609(13) 0.5345(8)
Cl1 Cl 0.2504(5) 0.2295(8) 0.2499(4)
O1 O 0.3404(15) 0.147(3) 0.2487(16)
O2 O 0.2457(19) 0.319(3) 0.1635(15)
O3 O 0.1602(15) 0.150(3) 0.2524(16)
O4 O 0.2536(19) 0.319(3) 0.3356(16)
O5 O 0.781(3) 0.282(4) 0.679(6)
O6 O 0.720(3) 0.284(4) 0.819(6)
loop_
_geom_bond_atom_site_label_1
_geom_bond_atom_site_label_2
_geom_bond_site_symmetry_1
_geom_bond_site_symmetry_2
Cu1 N1 1_555 1_555
C1 H1 1_555 1_555
C2 C1 1_555 1_555
C3 H2 1_555 1_555
C4 C2 1_555 1_555
H3 C4 1_555 1_555
C5 C1 1_555 1_555
H4 C5 1_555 1_555
C6 C7 1_555 1_555
C7 H5 1_555 1_555
C8 C7 1_555 1_555
H6 C8 1_555 1_555
C9 C6 1_555 1_555
H7 C9 1_555 1_555
C10 C9 1_555 1_555
H8 C10 1_555 1_555
N1 C3 1_555 1_555
N2 Cu1 1_555 1_555
C11 C12 1_555 1_555
C12 H9 1_555 1_555
C13 C11 1_555 1_555
H10 C13 1_555 1_555
C14 C13 1_555 1_555
H11 C14 1_555 1_555
C15 C12 1_555 1_555
H12 C15 1_555 1_555
N3 Cu1 1_555 1_555
N4 Cu1 1_555 1_555
C16 C17 1_555 1_555
C17 H13 1_555 1_555
C18 N4 1_555 1_555
H14 C18 1_555 1_555
C19 C16 1_555 1_555
H15 C19 1_555 1_555
C20 N4 1_555 1_555
H16 C20 1_555 1_555
C21 C16 1_555 1_555
H17 C21 1_555 1_555
C22 C2 1_555 1_555
H18 C22 1_555 1_555
C23 C11 1_555 1_555
H19 C23 1_555 1_555
N5 C23 1_555 1_555
N6 C22 1_555 1_555
C24 C6 1_555 1_555
H20 C24 1_555 1_555
N7 C24 1_555 1_555
Cl1 O1 1_555 1_555
O2 Cl1 1_555 1_555
O3 Cl1 1_555 1_555
O4 Cl1 1_555 1_555
N8 C21 1_555 1_555
Cu1A N1A 1_555 1_555
Cu1A_2 N2A 1_555 1_555
Cu1A_3 N3A 1_555 1_555
Cu1A_4 N4A 1_555 1_555
C1A H1A 1_555 1_555
C2A C1A 1_555 1_555
C3A H2A 1_555 1_555
C4A C2A 1_555 1_555
H3A C4A 1_555 1_555
C5A C1A 1_555 1_555
H4A C5A 1_555 1_555
C6A C7A 1_555 1_555
C7A H5A 1_555 1_555
C8A C7A 1_555 1_555
H6A C8A 1_555 1_555
C9A C6A 1_555 1_555
H7A C9A 1_555 1_555
C10A C9A 1_555 1_555
H8A C10A 1_555 1_555
N1A C3A 1_555 1_555
N2A C8A 1_555 1_555
N2A_2 Cu1A 1_555 1_555
C11A C12A 1_555 1_555
C12A H9A 1_555 1_555
C13A C11A 1_555 1_555
H10A C13A 1_555 1_555
C14A C13A 1_555 1_555
H11A C14A 1_555 1_555
C15A C12A 1_555 1_555
H12A C15A 1_555 1_555
N3A C14A 1_555 1_555
N3A_2 Cu1A 1_555 1_555
N4A C18A 1_555 1_555
N4A_2 Cu1A 1_555 1_555
C16A C17A 1_555 1_555
C17A H13A 1_555 1_555
C18A C17A 1_555 1_555
H14A C18A 1_555 1_555
C19A C16A 1_555 1_555
H15A C19A 1_555 1_555
C20A N4A 1_555 1_555
H16A C20A 1_555 1_555
C21A C16A 1_555 1_555
H17A C21A 1_555 1_555
C22A C2A 1_555 1_555
H18A C22A 1_555 1_555
C23A C11A 1_555 1_555
H19A C23A 1_555 1_555
N5A N5 1_555 1_555
N6A N6 1_555 1_555
C24A C6A 1_555 1_555
H20A C24A 1_555 1_555
N7A N7 1_555 1_555
N8A N8 1_555 1_555
C3 C4 1_555 1_555
C5 N1 1_555 1_555
C8 N2 1_555 1_555
C10 N2 1_555 1_555
C14 N3 1_555 1_555
C15 N3 1_555 1_555
C17 C18 1_555 1_555
C19 C20 1_555 1_555
C3A C4A 1_555 1_555
C5A N1A 1_555 1_555
C10A N2A 1_555 1_555
C15A N3A 1_555 1_555
C19A C20A 1_555 1_555
C21A N8A 1_555 1_555
C22A N6A 1_555 1_555
C23A N5A 1_555 1_555
C24A N7A 1_555 1_555

#END
