
#######################################################################
#
#                 Cambridge Crystallographic Data Centre
#                                CCDC 
#
#######################################################################
#
# If this CIF has been generated from an entry in the Cambridge 
# Structural Database, then it will include bibliographic, chemical, 
# crystal, experimental, refinement or atomic coordinate data resulting 
# from the CCDC's data processing and validation procedures.
#
#######################################################################

data_ASADAA
_symmetry_cell_setting           monoclinic
_symmetry_space_group_name_H-M   'C 2/c'
_symmetry_Int_Tables_number      15
_space_group_name_Hall           '-C 2yn'
loop_
_symmetry_equiv_pos_site_id
_symmetry_equiv_pos_as_xyz
1 x,y,z
2 -x,y,1/2-z
3 1/2+x,1/2+y,z
4 1/2-x,1/2+y,1/2-z
5 -x,-y,-z
6 x,-y,1/2+z
7 1/2-x,1/2-y,-z
8 1/2+x,1/2-y,1/2+z
_cell_length_a                   11.941(5)
_cell_length_b                   28.171(10)
_cell_length_c                   17.316(8)
_cell_angle_alpha                90
_cell_angle_beta                 103.634(16)
_cell_angle_gamma                90
_cell_volume                     5660.79
loop_
_atom_site_label
_atom_site_type_symbol
_atom_site_fract_x
_atom_site_fract_y
_atom_site_fract_z
C21 C 0.5000 0.5201(10) 0.7500
C22 C 0.442(4) 0.4870(14) 0.683(2)
O9 O 0.363(3) 0.4800(16) 0.612(2)
C22A C 0.558(4) 0.4870(14) 0.817(2)
O9A O 0.637(3) 0.4800(16) 0.888(2)
O11 O 0.5000 0.6397(4) 0.2500
H12 H 0.566(12) 0.656(8) 0.257(18)
H12A H 0.434(12) 0.656(8) 0.243(18)
O12 O 0.8955(14) 0.8705(5) 0.5810(10)
O13 O 0.5000 0.6779(5) 0.7500
O14 O 0.9765(17) 0.6069(6) 0.9507(9)
Cd1 Cd -0.30859(4) 0.781326(16) 0.33444(3)
Cd2 Cd -0.39379(4) 1.184640(16) 0.18588(3)
C1 C -0.0877(5) 0.7805(2) 0.4246(4)
C2 C 0.0330(5) 0.7848(2) 0.4738(3)
C3 C 0.0591(5) 0.7733(2) 0.5538(3)
C4 C -0.0307(5) 0.7497(2) 0.5888(4)
C5 C 0.1683(5) 0.7828(2) 0.6022(3)
C6 C 0.1896(5) 0.7701(2) 0.6888(4)
C7 C 0.2515(5) 0.8036(2) 0.5677(3)
C8 C 0.3727(5) 0.8124(2) 0.6150(4)
C9 C 0.2258(5) 0.8129(2) 0.4872(4)
H1 H 0.2822 0.8257 0.4643
C10 C 0.1172(5) 0.8035(2) 0.4398(3)
H2 H 0.1010 0.8098 0.3856
C11 C -0.3477(11) 0.8765(3) 0.2338(6)
H3 H -0.3634 0.8544 0.1928
C12 C -0.3516(11) 0.9234(3) 0.2151(6)
H4 H -0.3708 0.9324 0.1620
C13 C -0.3281(8) 0.9574(3) 0.2727(5)
C14 C -0.3349(8) 1.0088(3) 0.2547(5)
C15 C -0.4077(9) 1.0248(3) 0.1868(5)
H5 H -0.4489 1.0031 0.1504
C16 C -0.4208(8) 1.0732(3) 0.1715(5)
H6 H -0.4719 1.0830 0.1250
C17 C -0.2904(7) 1.0901(3) 0.2860(5)
H7 H -0.2474 1.1123 0.3204
C18 C -0.2750(7) 1.0431(3) 0.3056(5)
H8 H -0.2245 1.0342 0.3529
C19 C -0.3019(9) 0.9416(3) 0.3512(5)
H9 H -0.2857 0.9630 0.3932
C20 C -0.3005(9) 0.8924(3) 0.3653(5)
H10 H -0.2833 0.8818 0.4177
N1 N -0.3222(6) 0.8608(2) 0.3087(4)
N2 N -0.3633(5) 1.1061(2) 0.2205(4)
O1 O -0.1662(4) 0.7965(2) 0.4528(3)
O2 O -0.1082(4) 0.76415(16) 0.3546(3)
O3 O -0.0678(4) 0.70982(18) 0.5642(3)
O4 O -0.0614(5) 0.7702(2) 0.6445(3)
O5 O 0.1829(5) 0.72700(16) 0.7048(3)
O6 O 0.2085(4) 0.80232(16) 0.7405(3)
O7 O 0.4077(4) 0.79451(18) 0.6832(3)
O8 O 0.4399(4) 0.8353(2) 0.5843(3)
O10 O -0.3050(6) 1.1727(2) 0.0803(3)
H11 H -0.327(10) 1.174(4) 0.0277(9)
Cd1F Cd -0.19141(4) 0.718674(16) 0.66556(3)
Cd1G Cd 0.19141(4) 0.718674(16) 0.83444(3)
Cd1A Cd -0.69141(4) 0.781326(16) 0.16556(3)
Cd2D Cd 0.39379(4) 0.815360(16) 0.81412(3)
Cd2C Cd -0.10621(4) 0.684640(16) 0.31412(3)
Cd2E Cd 0.60621(4) 0.815360(16) 0.68588(3)
Cd2E_2 Cd -0.39379(4) 0.815360(16) 0.68588(3)
Cd2B Cd -0.89379(4) 0.684640(16) 0.18588(3)
Cd2C_2 Cd -1.10621(4) 0.684640(16) 0.31412(3)
Cd2F Cd -0.10621(4) 0.315360(16) 0.81412(3)
C1F C -0.4123(5) 0.7195(2) 0.5754(4)
C2F C -0.5330(5) 0.7152(2) 0.5262(3)
C3F C -0.5591(5) 0.7267(2) 0.4462(3)
C4F C -0.4693(5) 0.7503(2) 0.4112(4)
C5F C -0.6683(5) 0.7172(2) 0.3978(3)
C6F C -0.6896(5) 0.7299(2) 0.3112(4)
C7F C -0.7515(5) 0.6964(2) 0.4323(3)
C8F C -0.8727(5) 0.6876(2) 0.3850(4)
C9F C -0.7258(5) 0.6871(2) 0.5128(4)
H1F H -0.7822 0.6743 0.5357
C10F C -0.6172(5) 0.6965(2) 0.5602(3)
H2F H -0.6010 0.6902 0.6144
C11F C -0.1523(11) 0.6235(3) 0.7662(6)
H3F H -0.1366 0.6456 0.8072
C12F C -0.1484(11) 0.5766(3) 0.7849(6)
H4F H -0.1292 0.5676 0.8380
C13F C -0.1719(8) 0.5426(3) 0.7273(5)
C14F C -0.1651(8) 0.4912(3) 0.7453(5)
C15F C -0.0923(9) 0.4752(3) 0.8132(5)
H5F H -0.0511 0.4969 0.8496
C16F C -0.0792(8) 0.4268(3) 0.8285(5)
H6F H -0.0281 0.4170 0.8750
C17F C -0.2096(7) 0.4099(3) 0.7140(5)
H7F H -0.2526 0.3877 0.6796
C18F C -0.2250(7) 0.4569(3) 0.6944(5)
H8F H -0.2755 0.4658 0.6471
C19F C -0.1981(9) 0.5584(3) 0.6488(5)
H9F H -0.2143 0.5370 0.6068
C20F C -0.1995(9) 0.6076(3) 0.6347(5)
H10F H -0.2167 0.6182 0.5823
N1F N -0.1778(6) 0.6392(2) 0.6913(4)
N2F N -0.1367(5) 0.3939(2) 0.7795(4)
N2D N 0.3633(5) 0.8939(2) 0.7795(4)
O1F O -0.3338(4) 0.7035(2) 0.5472(3)
O2F O -0.3918(4) 0.73585(16) 0.6454(3)
O2C O -0.3918(4) 1.26415(16) 0.1454(3)
O2G O 0.3918(4) 0.73585(16) 0.8546(3)
O3F O -0.4322(4) 0.79018(18) 0.4358(3)
O4F O -0.4386(5) 0.7298(2) 0.3555(3)
O5F O -0.6829(5) 0.77300(16) 0.2952(3)
O5G O -0.3171(5) 0.77300(16) 0.2048(3)
O5A O -0.1829(5) 0.72700(16) 0.7952(3)
O6F O -0.7085(4) 0.69768(16) 0.2595(3)
O6D O -0.2085(4) 1.19768(16) 0.2595(3)
O7F O -0.9077(4) 0.70549(18) 0.3168(3)
O7E O -0.5923(4) 1.20549(18) 0.1832(3)
O7D O -0.4077(4) 1.20549(18) 0.3168(3)
O7A O 0.5923(4) 0.79451(18) 0.8168(3)
O8F O -0.9399(4) 0.6647(2) 0.4157(3)
O8E O -0.5601(4) 1.1647(2) 0.0843(3)
O8A O 0.5601(4) 0.8353(2) 0.9157(3)
O10D O 0.3050(6) 0.8273(2) 0.9197(3)
H11D H 0.327(10) 0.826(4) 0.9723(9)
C23? C 0.464(4) 0.5587(14) 0.688(2)
O15? O 0.400(4) 0.5563(16) 0.610(2)
loop_
_geom_bond_atom_site_label_1
_geom_bond_atom_site_label_2
_geom_bond_site_symmetry_1
_geom_bond_site_symmetry_2
Cd1 N1 1_555 1_555
Cd2 N2 1_555 1_555
C1 C2 1_555 1_555
C2 C3 1_555 1_555
C3 C4 1_555 1_555
C4 O3 1_555 1_555
C5 C3 1_555 1_555
C6 C5 1_555 1_555
C7 C5 1_555 1_555
C8 C7 1_555 1_555
C9 C7 1_555 1_555
H1 C9 1_555 1_555
C10 C2 1_555 1_555
H2 C10 1_555 1_555
C11 H3 1_555 1_555
C12 C11 1_555 1_555
H4 C12 1_555 1_555
C13 C12 1_555 1_555
C14 C13 1_555 1_555
C15 C14 1_555 1_555
H5 C15 1_555 1_555
C16 C15 1_555 1_555
H6 C16 1_555 1_555
C17 H7 1_555 1_555
C18 C14 1_555 1_555
H8 C18 1_555 1_555
C19 C13 1_555 1_555
H9 C19 1_555 1_555
C20 C19 1_555 1_555
H10 C20 1_555 1_555
C21 C22 1_555 1_555
C22 O9 1_555 1_555
N1 C11 1_555 1_555
N2 C16 1_555 1_555
O1 Cd1 1_555 1_555
O2 Cd1 1_555 1_555
O3 Cd1F 1_555 1_555
O4 C4 1_555 1_555
O5 C6 1_555 1_555
O6 C6 1_555 1_555
O7 C8 1_555 1_555
O8 C8 1_555 1_555
O10 Cd2 1_555 1_555
H11 O10 1_555 1_555
O11 H12 1_555 1_555
Cd1F O4 1_555 1_555
Cd1G O5 1_555 1_555
Cd1A O5F 1_555 1_555
Cd2D O6 1_555 1_555
Cd2C O2 1_555 1_555
Cd2E O7 1_555 1_555
Cd2E_2 O2F 1_555 1_555
Cd2B O6F 1_555 1_555
Cd2C_2 O7F 1_555 1_555
Cd2F N2F 1_555 1_555
C1F C2F 1_555 1_555
C2F C3F 1_555 1_555
C3F C4F 1_555 1_555
C4F O3F 1_555 1_555
C5F C3F 1_555 1_555
C6F C5F 1_555 1_555
C7F C5F 1_555 1_555
C8F C7F 1_555 1_555
C9F C7F 1_555 1_555
H1F C9F 1_555 1_555
C10F C2F 1_555 1_555
H2F C10F 1_555 1_555
C11F H3F 1_555 1_555
C12F C11F 1_555 1_555
H4F C12F 1_555 1_555
C13F C12F 1_555 1_555
C14F C13F 1_555 1_555
C15F C14F 1_555 1_555
H5F C15F 1_555 1_555
C16F C15F 1_555 1_555
H6F C16F 1_555 1_555
C17F H7F 1_555 1_555
C18F C14F 1_555 1_555
H8F C18F 1_555 1_555
C19F C13F 1_555 1_555
H9F C19F 1_555 1_555
C20F C19F 1_555 1_555
H10F C20F 1_555 1_555
C22A C21 1_555 1_555
N1F Cd1F 1_555 1_555
N2F C16F 1_555 1_555
N2D Cd2D 1_555 1_555
O1F Cd1F 1_555 1_555
O2F Cd1F 1_555 1_555
O2C Cd2 1_555 1_555
O2G Cd1G 1_555 1_555
O3F Cd1 1_555 1_555
O4F Cd1 1_555 1_555
O5F C6F 1_555 1_555
O5G Cd1 1_555 1_555
O5A Cd1F 1_555 1_555
O6F C6F 1_555 1_555
O6D Cd2 1_555 1_555
O7F Cd2B 1_555 1_555
O7E Cd2 1_555 1_555
O7D Cd2 1_555 1_555
O7A Cd2D 1_555 1_555
O8F Cd2C_2 1_555 1_555
O8E Cd2 1_555 1_555
O8A Cd2D 1_555 1_555
O9A C22A 1_555 1_555
O10D Cd2D 1_555 1_555
H11D O10D 1_555 1_555
H12A O11 1_555 1_555
C1 O1 1_555 1_555
C1 O2 1_555 1_555
C9 C10 1_555 1_555
C17 C18 1_555 1_555
C17 N2 1_555 1_555
C20 N1 1_555 1_555
O7 Cd2D 1_555 1_555
O8 Cd2E 1_555 1_555
Cd2D O2G 1_555 1_555
Cd2E O7A 1_555 1_555
C1F O1F 1_555 1_555
C1F O2F 1_555 1_555
C4F O4F 1_555 1_555
C8F O7F 1_555 1_555
C8F O8F 1_555 1_555
C9F C10F 1_555 1_555
C11F N1F 1_555 1_555
C17F C18F 1_555 1_555
C17F N2F 1_555 1_555
C20F N1F 1_555 1_555

#END
