
#######################################################################
#
#                 Cambridge Crystallographic Data Centre
#                                CCDC 
#
#######################################################################
#
# If this CIF has been generated from an entry in the Cambridge 
# Structural Database, then it will include bibliographic, chemical, 
# crystal, experimental, refinement or atomic coordinate data resulting 
# from the CCDC's data processing and validation procedures.
#
#######################################################################

data_ASAKUA
_symmetry_cell_setting           monoclinic
_symmetry_space_group_name_H-M   'C 2/c'
_symmetry_Int_Tables_number      15
_space_group_name_Hall           '-C 2yn'
loop_
_symmetry_equiv_pos_site_id
_symmetry_equiv_pos_as_xyz
1 x,y,z
2 1/2+x,1/2+y,z
3 x,-y,1/2+z
4 1/2+x,1/2-y,1/2+z
5 -x,-y,-z
6 1/2-x,1/2-y,-z
7 -x,y,1/2-z
8 1/2-x,1/2+y,1/2-z
_cell_length_a                   17.485(3)
_cell_length_b                   9.5925(14)
_cell_length_c                   19.611(3)
_cell_angle_alpha                90
_cell_angle_beta                 99.219(3)
_cell_angle_gamma                90
_cell_volume                     3246.77
loop_
_atom_site_label
_atom_site_type_symbol
_atom_site_fract_x
_atom_site_fract_y
_atom_site_fract_z
C1 C 0.0617(4) 0.2251(7) 0.3803(3)
C2 C 0.1008(4) 0.2217(7) 0.4543(3)
C3 C 0.1019(4) 0.0993(7) 0.4925(3)
H1 H 0.0759 0.0188 0.4724
C4 C 0.1407(4) 0.0944(7) 0.5592(4)
H2 H 0.1405 0.0111 0.5855
C5 C 0.1803(4) 0.2121(7) 0.5885(4)
H3 H 0.2079 0.2085 0.6343
C6 C 0.1792(4) 0.3334(7) 0.5506(4)
H4 H 0.2064 0.4130 0.5704
C7 C 0.1383(4) 0.3405(7) 0.4833(4)
H5 H 0.1362 0.4251 0.4578
C8 C 0.1384(3) 0.2288(6) 0.2150(3)
C9 C 0.2143(4) 0.2293(6) 0.1897(3)
C10 C 0.2549(4) 0.1056(6) 0.1853(3)
H6 H 0.2364 0.0212 0.2020
C11 C 0.3224(4) 0.1057(6) 0.1564(3)
H7 H 0.3501 0.0214 0.1532
C12 C 0.3492(4) 0.2285(6) 0.1323(3)
H8 H 0.3943 0.2276 0.1109
C13 C 0.3109(4) 0.3540(6) 0.1389(3)
H9 H 0.3307 0.4387 0.1237
C14 C 0.2433(4) 0.3542(6) 0.1680(3)
H10 H 0.2170 0.4393 0.1731
C15 C 0.0394(3) -0.1989(6) 0.2089(3)
H11 H 0.0683 -0.1506 0.1793
C16 C 0.0392(3) -0.3441(6) 0.2086(3)
H12 H 0.0674 -0.3926 0.1784
N1 N 0.0000 -0.1255(7) 0.2500
N2 N 0.0000 -0.4164(7) 0.2500
O1 O 0.0433(3) 0.1089(4) 0.3517(2)
O2 O 0.0482(3) 0.3444(4) 0.3513(2)
O3 O 0.1090(3) 0.1100(4) 0.2253(2)
O4 O 0.1072(3) 0.3457(4) 0.2226(2)
Rh1 Rh 0.0000 0.10251(6) 0.2500
Rh2 Rh 0.0000 -0.64771(6) 0.2500
C16F C -0.0392(3) -0.3441(6) 0.2914(3)
C15F C -0.0394(3) -0.1989(6) 0.2911(3)
H11F H -0.0683 -0.1506 0.3207
H12F H -0.0674 -0.3926 0.3216
C1F C -0.0617(4) 0.2251(7) 0.1197(3)
C2F C -0.1008(4) 0.2217(7) 0.0457(3)
C3F C -0.1019(4) 0.0993(7) 0.0075(3)
H1F H -0.0759 0.0188 0.0276
C4F C -0.1407(4) 0.0944(7) -0.0592(4)
H2F H -0.1405 0.0111 -0.0855
C5F C -0.1803(4) 0.2121(7) -0.0885(4)
H3F H -0.2079 0.2085 -0.1343
C6F C -0.1792(4) 0.3334(7) -0.0506(4)
H4F H -0.2064 0.4130 -0.0704
C7F C -0.1383(4) 0.3405(7) 0.0167(4)
H5F H -0.1362 0.4251 0.0422
O1F O -0.0433(3) 0.1089(4) 0.1483(2)
O2F O -0.0482(3) 0.3444(4) 0.1487(2)
C8F C -0.1384(3) 0.2288(6) 0.2850(3)
C9F C -0.2143(4) 0.2293(6) 0.3103(3)
C10F C -0.2549(4) 0.1056(6) 0.3147(3)
H6F H -0.2364 0.0212 0.2980
C11F C -0.3224(4) 0.1057(6) 0.3436(3)
H7F H -0.3501 0.0214 0.3468
C12F C -0.3492(4) 0.2285(6) 0.3677(3)
H8F H -0.3943 0.2276 0.3891
C13F C -0.3109(4) 0.3540(6) 0.3611(3)
H9F H -0.3307 0.4387 0.3763
C14F C -0.2433(4) 0.3542(6) 0.3320(3)
H10F H -0.2170 0.4393 0.3269
O3F O -0.1090(3) 0.1100(4) 0.2747(2)
O4F O -0.1072(3) 0.3457(4) 0.2774(2)
Rh2_2 Rh 0.0000 0.35229(6) 0.2500
O2_2 O 0.0482(3) -0.6556(4) 0.3513(2)
O2F_2 O -0.0482(3) -0.6556(4) 0.1487(2)
O4_2 O 0.1072(3) -0.6543(4) 0.2226(2)
O4F_2 O -0.1072(3) -0.6543(4) 0.2774(2)
Rh1_2 Rh 0.0000 -0.89749(6) 0.2500
O5 O 0.0304(14) 0.592(2) 0.4844(12)
O6 O 0.0735(13) 0.632(2) 0.5309(12)
loop_
_geom_bond_atom_site_label_1
_geom_bond_atom_site_label_2
_geom_bond_site_symmetry_1
_geom_bond_site_symmetry_2
C1 C2 1_555 1_555
C2 C3 1_555 1_555
C3 H1 1_555 1_555
C4 C3 1_555 1_555
H2 C4 1_555 1_555
C5 C4 1_555 1_555
H3 C5 1_555 1_555
C6 C5 1_555 1_555
H4 C6 1_555 1_555
C7 C2 1_555 1_555
H5 C7 1_555 1_555
C8 C9 1_555 1_555
C9 C10 1_555 1_555
C10 H6 1_555 1_555
C11 C10 1_555 1_555
H7 C11 1_555 1_555
C12 C11 1_555 1_555
H8 C12 1_555 1_555
C13 C12 1_555 1_555
H9 C13 1_555 1_555
C14 C9 1_555 1_555
H10 C14 1_555 1_555
C15 H11 1_555 1_555
C16 C15 1_555 1_555
H12 C16 1_555 1_555
N1 C15 1_555 1_555
N2 C16 1_555 1_555
O1 C1 1_555 1_555
O2 C1 1_555 1_555
O3 C8 1_555 1_555
O4 C8 1_555 1_555
O5 O6 1_555 1_555
Rh1 N1 1_555 1_555
Rh2 N2 1_555 1_555
C16F N2 1_555 1_555
C15F N1 1_555 1_555
H11F C15F 1_555 1_555
H12F C16F 1_555 1_555
C1F C2F 1_555 1_555
C2F C3F 1_555 1_555
C3F H1F 1_555 1_555
C4F C3F 1_555 1_555
H2F C4F 1_555 1_555
C5F C4F 1_555 1_555
H3F C5F 1_555 1_555
C6F C5F 1_555 1_555
H4F C6F 1_555 1_555
C7F C2F 1_555 1_555
H5F C7F 1_555 1_555
O1F Rh1 1_555 1_555
O2F C1F 1_555 1_555
C8F C9F 1_555 1_555
C9F C10F 1_555 1_555
C10F H6F 1_555 1_555
C11F C10F 1_555 1_555
H7F C11F 1_555 1_555
C12F C11F 1_555 1_555
H8F C12F 1_555 1_555
C13F C12F 1_555 1_555
H9F C13F 1_555 1_555
C14F C9F 1_555 1_555
H10F C14F 1_555 1_555
O3F Rh1 1_555 1_555
O4F C8F 1_555 1_555
Rh2_2 O2 1_555 1_555
O2_2 Rh2 1_555 1_555
O2F_2 Rh2 1_555 1_555
O4_2 Rh2 1_555 1_555
O4F_2 Rh2 1_555 1_555
Rh1_2 Rh2 1_555 1_555
C6 C7 1_555 1_555
C13 C14 1_555 1_555
O1 Rh1 1_555 1_555
O3 Rh1 1_555 1_555
O4 Rh2_2 1_555 1_555
Rh1 Rh2_2 1_555 1_555
C16F C15F 1_555 1_555
C1F O1F 1_555 1_555
C6F C7F 1_555 1_555
O2F Rh2_2 1_555 1_555
C8F O3F 1_555 1_555
C13F C14F 1_555 1_555
O4F Rh2_2 1_555 1_555

#END
