
#######################################################################
#
#                 Cambridge Crystallographic Data Centre
#                                CCDC 
#
#######################################################################
#
# If this CIF has been generated from an entry in the Cambridge 
# Structural Database, then it will include bibliographic, chemical, 
# crystal, experimental, refinement or atomic coordinate data resulting 
# from the CCDC's data processing and validation procedures.
#
#######################################################################

data_ASALOV
_symmetry_cell_setting           monoclinic
_symmetry_space_group_name_H-M   'C c'
_symmetry_Int_Tables_number      9
_space_group_name_Hall           'C -2yc'
loop_
_symmetry_equiv_pos_site_id
_symmetry_equiv_pos_as_xyz
1 x,y,z
2 x,-y,1/2+z
3 1/2+x,1/2+y,z
4 1/2+x,1/2-y,1/2+z
_cell_length_a                   14.0169(12)
_cell_length_b                   13.5045(12)
_cell_length_c                   12.5050(11)
_cell_angle_alpha                90
_cell_angle_beta                 116.318(2)
_cell_angle_gamma                90
_cell_volume                     2121.73
loop_
_atom_site_label
_atom_site_type_symbol
_atom_site_fract_x
_atom_site_fract_y
_atom_site_fract_z
Cd1 Cd 0.20762(2) 0.150956(14) 0.55687(2)
N1 N 0.3111(3) 0.2619(3) 0.7083(3)
C1 C 0.0658(5) 0.3481(3) 0.4372(5)
H1 H 0.0273 0.3224 0.4752
N2 N 0.1451(3) 0.2943(3) 0.4361(3)
C2 C 0.5437(3) 0.4355(3) 0.7842(3)
H2 H 0.5774 0.3877 0.7527
C3 C -0.0565(4) 0.4918(4) 0.3904(4)
H3 H -0.1140 0.4431 0.3681
C4 C 0.3972(3) 0.3083(3) 0.7106(3)
H4 H 0.4239 0.2876 0.6583
C5 C 0.0384(4) 0.4408(3) 0.3842(3)
C6 C -0.0275(4) 0.5257(4) 0.5166(4)
H5 H 0.0314 0.5719 0.5413
H6 H -0.0036 0.4689 0.5695
C7 C 0.4080(4) 0.4138(3) 0.8663(4)
H7 H 0.4387 0.4667 0.9179
C8 C 0.1968(4) 0.3287(4) 0.3762(5)
H8 H 0.2490 0.2895 0.3706
C9 C 0.0946(4) 0.4770(3) 0.3261(4)
H9 H 0.0783 0.5389 0.2898
C10 C 0.2770(3) 0.2886(3) 0.7882(4)
H10 H 0.2196 0.2551 0.7894
C11 C 0.4471(3) 0.3856(3) 0.7877(3)
N3 N -0.0960(3) 0.5752(3) 0.3036(3)
H11 H -0.1512 0.6039 0.3084
H12 H -0.1163 0.5521 0.2301
H13 H -0.0443 0.6194 0.3205
C12 C 0.5085(3) 0.5258(3) 0.7000(4)
H14 H 0.4514 0.5057 0.6242
H15 H 0.4803 0.5758 0.7340
C13 C 0.1751(4) 0.4209(3) 0.3221(5)
H16 H 0.2142 0.4446 0.2838
C14 C -0.1191(3) 0.5749(3) 0.5296(4)
O2 O -0.1664(5) 0.6433(3) 0.4596(5)
C15 C 0.5965(3) 0.5719(3) 0.6774(3)
O3 O 0.5715(5) 0.6502(2) 0.6148(4)
O4 O 0.6841(3) 0.5313(3) 0.7124(4)
O5 O -0.1420(2) 0.5492(3) 0.6111(3)
N4 N 0.6218(3) 0.4639(3) 0.9046(3)
H17 H 0.6094 0.4517 0.9648
H18 H 0.6799 0.4928 0.9151
C16 C 0.3233(4) 0.3636(4) 0.8684(5)
H19 H 0.2980 0.3803 0.9233
O2B O 0.3336(5) 0.1433(3) 0.4596(5)
O3B O 0.0715(5) 0.1502(2) 0.6148(4)
O4B O 0.1841(3) 0.0313(3) 0.7124(4)
O5B O 0.3580(2) 0.0492(3) 0.6111(3)
N4C N 0.1218(3) 0.0361(3) 0.4046(3)
H17C H 0.1094 0.0483 0.4648
Cd1B Cd -0.29238(2) 0.650956(14) 0.55687(2)
Cd1B_2 Cd 0.70762(2) 0.650956(14) 0.55687(2)
Cd1C Cd 0.70762(2) 0.349044(14) 1.05687(2)
H18C H 0.1799 0.0072 0.4151
Cl1 Cl 0.14090(17) -0.22149(11) 0.52121(15)
O1 O 0.2218(6) -0.1679(5) 0.5093(10)
O7 O 0.1149(9) -0.3017(8) 0.4457(12)
O8 O 0.0482(11) -0.1544(5) 0.4906(14)
O9 O 0.163(2) -0.2472(11) 0.6285(12)
O6 O 0.4537(4) 0.8037(4) 0.6441(5)
loop_
_geom_bond_atom_site_label_1
_geom_bond_atom_site_label_2
_geom_bond_site_symmetry_1
_geom_bond_site_symmetry_2
Cd1 N1 1_555 1_555
N1 C4 1_555 1_555
C1 H1 1_555 1_555
N2 Cd1 1_555 1_555
C2 H2 1_555 1_555
C3 H3 1_555 1_555
C4 H4 1_555 1_555
C5 C1 1_555 1_555
C6 C3 1_555 1_555
H5 C6 1_555 1_555
H6 C6 1_555 1_555
C7 H7 1_555 1_555
C8 N2 1_555 1_555
H8 C8 1_555 1_555
C9 C5 1_555 1_555
H9 C9 1_555 1_555
C10 N1 1_555 1_555
H10 C10 1_555 1_555
C11 C2 1_555 1_555
N3 C3 1_555 1_555
H11 N3 1_555 1_555
H12 N3 1_555 1_555
H13 N3 1_555 1_555
Cl1 O1 1_555 1_555
C12 C2 1_555 1_555
H14 C12 1_555 1_555
H15 C12 1_555 1_555
C13 C8 1_555 1_555
H16 C13 1_555 1_555
C14 C6 1_555 1_555
O2 C14 1_555 1_555
C15 C12 1_555 1_555
O3 C15 1_555 1_555
O4 C15 1_555 1_555
O5 C14 1_555 1_555
N4 C2 1_555 1_555
H17 N4 1_555 1_555
H18 N4 1_555 1_555
C16 C7 1_555 1_555
H19 C16 1_555 1_555
O7 Cl1 1_555 1_555
O8 Cl1 1_555 1_555
O9 Cl1 1_555 1_555
O2B Cd1 1_555 1_555
O3B Cd1 1_555 1_555
O4B Cd1 1_555 1_555
O5B Cd1 1_555 1_555
N4C Cd1 1_555 1_555
H17C N4C 1_555 1_555
Cd1B O2 1_555 1_555
Cd1B_2 O3 1_555 1_555
Cd1C N4 1_555 1_555
H18C N4C 1_555 1_555
C1 N2 1_555 1_555
C3 C5 1_555 1_555
C4 C11 1_555 1_555
C7 C11 1_555 1_555
C9 C13 1_555 1_555
C10 C16 1_555 1_555
O4 Cd1B_2 1_555 1_555
O5 Cd1B 1_555 1_555

#END
