
#######################################################################
#
#                 Cambridge Crystallographic Data Centre
#                                CCDC 
#
#######################################################################
#
# If this CIF has been generated from an entry in the Cambridge 
# Structural Database, then it will include bibliographic, chemical, 
# crystal, experimental, refinement or atomic coordinate data resulting 
# from the CCDC's data processing and validation procedures.
#
#######################################################################

data_ATIBOU
_symmetry_cell_setting           monoclinic
_symmetry_space_group_name_H-M   'P 21/c'
_symmetry_Int_Tables_number      14
_space_group_name_Hall           '-P 2ybc'
loop_
_symmetry_equiv_pos_site_id
_symmetry_equiv_pos_as_xyz
1 x,y,z
2 -x,1/2+y,1/2-z
3 -x,-y,-z
4 x,1/2-y,1/2+z
_cell_length_a                   11.7047(18)
_cell_length_b                   10.0946(13)
_cell_length_c                   18.556(3)
_cell_angle_alpha                90
_cell_angle_beta                 127.585(2)
_cell_angle_gamma                90
_cell_volume                     1737.42
loop_
_atom_site_label
_atom_site_type_symbol
_atom_site_fract_x
_atom_site_fract_y
_atom_site_fract_z
Mn1 Mn 0.37408(4) 0.08529(3) 0.13052(2)
Mn2 Mn 0.57784(4) -0.09805(3) 0.31711(2)
Mn3 Mn 0.5000 0.0000 0.0000
Mn4 Mn 0.0000 0.0000 0.0000
O1 O 0.44342(16) 0.20932(15) 0.24833(9)
O2 O 0.56645(17) 0.08003(15) 0.37196(9)
O3 O 0.59248(17) 0.00295(15) 0.21952(9)
O4 O 0.68230(18) 0.00583(16) 0.14271(10)
O5 O 0.44488(17) 0.26508(15) 0.10202(9)
O6 O 0.47115(18) 0.21121(16) -0.00393(9)
O7 O 0.34862(16) -0.07350(15) 0.19945(9)
O8 O 0.11428(17) -0.11989(16) 0.12075(10)
O9 O 0.33502(17) -0.02925(15) 0.02072(9)
O10 O 0.11249(17) -0.10265(16) -0.04207(10)
O11 O 0.15893(17) 0.16216(15) 0.06360(9)
O12 O 0.19321(17) 0.38001(15) 0.09305(10)
C1 C 0.5115(3) 0.1868(2) 0.33272(14)
C2 C 0.6940(3) -0.0051(2) 0.21304(16)
C3 C 0.4645(3) 0.2921(2) 0.04268(14)
C4 C 0.2419(3) -0.1351(2) 0.18581(15)
C5 C 0.2242(3) -0.1028(2) -0.03422(15)
C6 C 0.1161(3) 0.2803(2) 0.05771(14)
H1 H 0.516(3) 0.260(2) 0.3676(15)
H2 H 0.787(3) -0.026(3) 0.2692(17)
H3 H 0.478(2) 0.389(2) 0.0376(14)
H4 H 0.269(3) -0.201(3) 0.2344(15)
H5 H 0.232(3) -0.161(2) -0.0712(15)
H6 H 0.011(3) 0.294(3) 0.0219(16)
O3B O 0.40752(17) -0.00295(15) -0.21952(9)
O4B O 0.31770(18) -0.00583(16) -0.14271(10)
C2B C 0.3060(3) 0.0051(2) -0.21304(16)
H2B H 0.213(3) 0.026(3) -0.2692(17)
O5B O 0.55512(17) -0.26508(15) -0.10202(9)
O6B O 0.52885(18) -0.21121(16) 0.00393(9)
C3B C 0.5355(3) -0.2921(2) -0.04268(14)
H3B H 0.522(2) -0.389(2) -0.0376(14)
O9B O 0.66498(17) 0.02925(15) -0.02072(9)
O10B O 0.88751(17) 0.10265(16) 0.04207(10)
C5B C 0.7758(3) 0.1028(2) 0.03422(15)
H5B H 0.768(3) 0.161(2) 0.0712(15)
Mn1B Mn 0.62592(4) -0.08529(3) -0.13052(2)
Mn2B Mn 0.42216(4) 0.09805(3) -0.31711(2)
O1A O 0.55658(16) -0.29068(15) 0.25167(9)
O2A O 0.43355(17) -0.41997(15) 0.12804(9)
C1A C 0.4885(3) -0.3132(2) 0.16728(14)
H1A H 0.484(3) -0.240(2) 0.1324(15)
O11A O 0.84107(17) -0.33784(15) 0.43640(9)
O12A O 0.80679(17) -0.11999(15) 0.40695(10)
C6A C 0.8839(3) -0.2197(2) 0.44229(14)
H6A H 0.989(3) -0.206(3) 0.4781(16)
O7B O -0.34862(16) 0.07350(15) -0.19945(9)
O8B O -0.11428(17) 0.11989(16) -0.12075(10)
C4B C -0.2419(3) 0.1351(2) -0.18581(15)
H4B H -0.269(3) 0.201(3) -0.2344(15)
O5A O 0.55512(17) -0.23492(15) 0.39798(9)
O10B_2 O -0.11249(17) 0.10265(16) 0.04207(10)
O11B O -0.15893(17) -0.16216(15) -0.06360(9)
Mn2A Mn 0.42216(4) 0.40195(3) 0.18289(2)
Mn2C Mn 0.57784(4) -0.40195(3) -0.18289(2)
Mn4_2 Mn 1.0000 0.0000 0.0000
O1B O 0.55658(16) -0.20932(15) -0.24833(9)
O7B_2 O 0.65138(16) 0.07350(15) -0.19945(9)
O11B_2 O 0.84107(17) -0.16216(15) -0.06360(9)
O1C O 0.44342(16) 0.29068(15) -0.25167(9)
O2B O 0.43355(17) -0.08003(15) -0.37196(9)
O5C O 0.44488(17) 0.23492(15) -0.39798(9)
O12C O 0.19321(17) 0.11999(15) -0.40695(10)
Mn1A Mn 0.62592(4) -0.41471(3) 0.36948(2)
Mn2A_2 Mn 0.42216(4) -0.59805(3) 0.18289(2)
Mn4C Mn 1.0000 -0.5000 0.5000
Mn1B_2 Mn -0.37408(4) -0.08529(3) -0.13052(2)
Mn2B_2 Mn -0.57784(4) 0.09805(3) -0.31711(2)
C7 C 0.1608(3) -0.4582(3) -0.13593(18)
C8 C 0.0575(4) -0.6769(3) -0.1494(2)
C9 C 0.1866(4) -0.6339(3) -0.2140(2)
N1 N 0.1372(2) -0.5846(2) -0.16381(13)
O13 O 0.2214(2) -0.3747(2) -0.14899(13)
H7 H 0.114(3) -0.439(3) -0.1041(16)
H8 H -0.024(4) -0.717(3) -0.211(2)
H9 H 0.120(4) -0.753(3) -0.114(2)
H10 H 0.027(3) -0.627(3) -0.117(2)
H11 H 0.106(4) -0.648(3) -0.277(2)
H12 H 0.237(3) -0.727(3) -0.1888(16)
H13 H 0.254(4) -0.568(4) -0.207(2)
loop_
_geom_bond_atom_site_label_1
_geom_bond_atom_site_label_2
_geom_bond_site_symmetry_1
_geom_bond_site_symmetry_2
Mn1 O1 1_555 1_555
Mn2 O2 1_555 1_555
Mn3 O4 1_555 1_555
Mn4 O8 1_555 1_555
O1 C1 1_555 1_555
O2 C1 1_555 1_555
O3 Mn1 1_555 1_555
O4 C2 1_555 1_555
O5 Mn1 1_555 1_555
O6 Mn3 1_555 1_555
O7 Mn1 1_555 1_555
O8 C4 1_555 1_555
O9 Mn1 1_555 1_555
O10 Mn4 1_555 1_555
O11 Mn1 1_555 1_555
O12 C6 1_555 1_555
C1 H1 1_555 1_555
C2 O3 1_555 1_555
C3 O5 1_555 1_555
C4 O7 1_555 1_555
C5 O9 1_555 1_555
C6 O11 1_555 1_555
H2 C2 1_555 1_555
H3 C3 1_555 1_555
H4 C4 1_555 1_555
H5 C5 1_555 1_555
H6 C6 1_555 1_555
C7 N1 1_555 1_555
C8 N1 1_555 1_555
C9 N1 1_555 1_555
O13 C7 1_555 1_555
H7 C7 1_555 1_555
H8 C8 1_555 1_555
H9 C8 1_555 1_555
H10 C8 1_555 1_555
H11 C9 1_555 1_555
H12 C9 1_555 1_555
H13 C9 1_555 1_555
O3B C2B 1_555 1_555
O4B Mn3 1_555 1_555
C2B O4B 1_555 1_555
H2B C2B 1_555 1_555
O5B C3B 1_555 1_555
O6B Mn3 1_555 1_555
C3B O6B 1_555 1_555
H3B C3B 1_555 1_555
O9B Mn3 1_555 1_555
O10B C5B 1_555 1_555
C5B O9B 1_555 1_555
H5B C5B 1_555 1_555
Mn1B O3B 1_555 1_555
Mn2B O3B 1_555 1_555
O1A Mn2 1_555 1_555
O2A C1A 1_555 1_555
C1A O1A 1_555 1_555
H1A C1A 1_555 1_555
O11A C6A 1_555 1_555
O12A Mn2 1_555 1_555
C6A O12A 1_555 1_555
H6A C6A 1_555 1_555
O7B C4B 1_555 1_555
O8B Mn4 1_555 1_555
C4B O8B 1_555 1_555
H4B C4B 1_555 1_555
O5A Mn2 1_555 1_555
O10B_2 Mn4 1_555 1_555
O11B Mn4 1_555 1_555
Mn2A O1 1_555 1_555
Mn2C O5B 1_555 1_555
Mn4_2 O10B 1_555 1_555
O1B Mn1B 1_555 1_555
O7B_2 Mn1B 1_555 1_555
O11B_2 Mn1B 1_555 1_555
O1C Mn2B 1_555 1_555
O2B Mn2B 1_555 1_555
O5C Mn2B 1_555 1_555
O12C Mn2B 1_555 1_555
Mn1A O1A 1_555 1_555
Mn2A_2 O2A 1_555 1_555
Mn4C O11A 1_555 1_555
Mn1B_2 O7B 1_555 1_555
Mn2B_2 O7B 1_555 1_555
Mn2 O3 1_555 1_555
Mn2 O7 1_555 1_555
Mn3 O9 1_555 1_555
Mn4 O11 1_555 1_555
O5 Mn2A 1_555 1_555
O6 C3 1_555 1_555
O10 C5 1_555 1_555
O12 Mn2A 1_555 1_555
O5B Mn1B 1_555 1_555
O9B Mn1B 1_555 1_555
Mn2B O7B_2 1_555 1_555
O11A Mn1A 1_555 1_555
O5A Mn1A 1_555 1_555
O11B Mn1B_2 1_555 1_555
Mn2C O1B 1_555 1_555
Mn4_2 O11B_2 1_555 1_555

#END
