
#######################################################################
#
#                 Cambridge Crystallographic Data Centre
#                                CCDC 
#
#######################################################################
#
# If this CIF has been generated from an entry in the Cambridge 
# Structural Database, then it will include bibliographic, chemical, 
# crystal, experimental, refinement or atomic coordinate data resulting 
# from the CCDC's data processing and validation procedures.
#
#######################################################################

data_AVEVAZ
_symmetry_cell_setting           orthorhombic
_symmetry_space_group_name_H-M   'P c c n'
_symmetry_Int_Tables_number      56
_space_group_name_Hall           '-P 2ab 2ac'
loop_
_symmetry_equiv_pos_site_id
_symmetry_equiv_pos_as_xyz
1 x,y,z
2 1/2-x,1/2-y,z
3 1/2+x,-y,1/2-z
4 -x,1/2+y,1/2-z
5 -x,-y,-z
6 1/2+x,1/2+y,-z
7 1/2-x,y,1/2+z
8 x,1/2-y,1/2+z
_cell_length_a                   7.854(5)
_cell_length_b                   15.051(5)
_cell_length_c                   22.974(5)
_cell_angle_alpha                90
_cell_angle_beta                 90
_cell_angle_gamma                90
_cell_volume                     2715.77
loop_
_atom_site_label
_atom_site_type_symbol
_atom_site_fract_x
_atom_site_fract_y
_atom_site_fract_z
Co1 Co -0.25 0.25000 0.38223
S1 S 0.0809 0.407 0.3754
F1 F 0.024 0.4616 0.2761
F2 F 0.126 0.3393 0.2769
F3 F 0.2716 0.4487 0.2769
O1 O -0.08077 0.36661 0.37736
O2 O -0.4504 0.3565 0.3859
N1 N -0.25 0.25000 0.2839
N2 N -0.25 0.25000 -0.0192
C1 C -0.28274 0.32664 0.07201
C2 C -0.24919 0.24818 0.10171
C3 C -0.28315 0.32754 0.01156
C4 C -0.25002 0.25004 0.16298
C5 C 0.132 0.4104 0.3005
H1 H -0.56843 0.34052 0.38874
H2 H -0.4399 0.42002 0.38512
C6 C -0.21666 0.17196 0.19322
H3 H -0.19436 0.11976 0.27393
H4 H -0.19434 0.11973 0.17299
H5 H -0.30494 0.37856 0.09261
H6 H -0.30561 0.38007 -0.00833
O3 O 0.06835 0.49761 0.39206
O4 O 0.20463 0.3494 0.40004
C7 C -0.21667 0.17198 0.25368
Co1F Co -0.25 0.25000 -0.11777
S1A S -0.5809 0.093 0.3754
F1A F -0.524 0.0384 0.2761
F2A F -0.626 0.1607 0.2769
F3A F -0.7716 0.0513 0.2769
O1A O -0.41923 0.13339 0.37736
O2A O -0.0496 0.1435 0.3859
N2F N -0.25 0.25000 0.4808
C1A C -0.21726 0.17336 0.07201
C3A C -0.21685 0.17246 0.01156
C5A C -0.632 0.0896 0.3005
H1A H 0.06843 0.15948 0.38874
H2A H -0.0601 0.07998 0.38512
C6A C -0.28334 0.32804 0.19322
H3A H -0.30564 0.38024 0.27393
H4A H -0.30566 0.38027 0.17299
H5A H -0.19506 0.12144 0.09261
H6A H -0.19439 0.11993 -0.00833
O3A O -0.56835 0.00239 0.39206
O4A O -0.70463 0.1506 0.40004
C7A C -0.28333 0.32802 0.25368
N3 N 0.37342 0.03028 0.07604
C8 C 0.27731 0.20762 0.08267
C9 C 0.377 0.0742 0.1292
C10 C 0.32895 0.16287 0.13252
C11 C 0.32179 0.07503 0.0262
C12 C 0.27374 0.1637 0.02951
H7 H 0.41157 0.04424 0.16257
H8 H 0.33134 0.19227 0.16811
H9 H 0.23916 0.19366 -0.00386
H10 H 0.31939 0.04562 -0.0094
N3A N 0.12658 0.46972 0.07604
C8A C 0.22269 0.29238 0.08267
C9A C 0.123 0.4258 0.1292
C10A C 0.17105 0.33713 0.13252
C11A C 0.17821 0.42497 0.0262
C12A C 0.22626 0.3363 0.02951
H7A H 0.08843 0.45576 0.16257
H8A H 0.16866 0.30773 0.16811
H9A H 0.26084 0.30634 -0.00386
H10A H 0.18061 0.45438 -0.0094
loop_
_geom_bond_atom_site_label_1
_geom_bond_atom_site_label_2
_geom_bond_site_symmetry_1
_geom_bond_site_symmetry_2
Co1 O1 1_555 1_555
S1 O1 1_555 1_555
F1 C5 1_555 1_555
F2 C5 1_555 1_555
F3 C5 1_555 1_555
O2 Co1 1_555 1_555
N1 Co1 1_555 1_555
N2 C3 1_555 1_555
C1 C2 1_555 1_555
C2 C4 1_555 1_555
C3 C1 1_555 1_555
C4 C6 1_555 1_555
C5 S1 1_555 1_555
H1 O2 1_555 1_555
H2 O2 1_555 1_555
C6 H4 1_555 1_555
H3 C7 1_555 1_555
H5 C1 1_555 1_555
H6 C3 1_555 1_555
O3 S1 1_555 1_555
O4 S1 1_555 1_555
C7 N1 1_555 1_555
N3 C9 1_555 1_555
C8 C10 1_555 1_555
C9 C10 1_555 1_555
C10 H8 1_555 1_555
C11 N3 1_555 1_555
C12 C8 1_555 1_555
H7 C9 1_555 1_555
H9 C12 1_555 1_555
H10 C11 1_555 1_555
Co1F N2 1_555 1_555
S1A O1A 1_555 1_555
F1A C5A 1_555 1_555
F2A C5A 1_555 1_555
F3A C5A 1_555 1_555
O1A Co1 1_555 1_555
O2A Co1 1_555 1_555
N2F Co1 1_555 1_555
C1A C2 1_555 1_555
C3A N2 1_555 1_555
C5A S1A 1_555 1_555
H1A O2A 1_555 1_555
H2A O2A 1_555 1_555
C6A C4 1_555 1_555
H3A C7A 1_555 1_555
H4A C6A 1_555 1_555
H5A C1A 1_555 1_555
H6A C3A 1_555 1_555
O3A S1A 1_555 1_555
O4A S1A 1_555 1_555
C7A N1 1_555 1_555
N3A C9A 1_555 1_555
C8A C8 1_555 1_555
C9A C10A 1_555 1_555
C10A C8A 1_555 1_555
C11A N3A 1_555 1_555
C12A C8A 1_555 1_555
H7A C9A 1_555 1_555
H8A C10A 1_555 1_555
H9A C12A 1_555 1_555
H10A C11A 1_555 1_555
C6 C7 1_555 1_555
C11 C12 1_555 1_555
C1A C3A 1_555 1_555
C6A C7A 1_555 1_555
C11A C12A 1_555 1_555

#END
