
#######################################################################
#
#                 Cambridge Crystallographic Data Centre
#                                CCDC 
#
#######################################################################
#
# If this CIF has been generated from an entry in the Cambridge 
# Structural Database, then it will include bibliographic, chemical, 
# crystal, experimental, refinement or atomic coordinate data resulting 
# from the CCDC's data processing and validation procedures.
#
#######################################################################

data_AVEVED
_symmetry_cell_setting           monoclinic
_symmetry_space_group_name_H-M   'C 2/c'
_symmetry_Int_Tables_number      15
_space_group_name_Hall           '-C 2yn'
loop_
_symmetry_equiv_pos_site_id
_symmetry_equiv_pos_as_xyz
1 x,y,z
2 -x,y,1/2-z
3 1/2+x,1/2+y,z
4 1/2-x,1/2+y,1/2-z
5 -x,-y,-z
6 x,-y,1/2+z
7 1/2-x,1/2-y,-z
8 1/2+x,1/2-y,1/2+z
_cell_length_a                   25.8872(17)
_cell_length_b                   15.309(5)
_cell_length_c                   16.8265(11)
_cell_angle_alpha                90
_cell_angle_beta                 111.219(1)
_cell_angle_gamma                90
_cell_volume                     6216.37
loop_
_atom_site_label
_atom_site_type_symbol
_atom_site_fract_x
_atom_site_fract_y
_atom_site_fract_z
Co1 Co 0.115035 0.74972 0.60459
S1 S 0.25508 0.74429 0.72157
N1 N 0.1102 0.65717 0.50618
N2 N 0.12011 0.844343 0.51678
N3 N 0.12049 1.15512 0.20047
C1 C 0.12189 1.03396 0.32634
C2 C 0.15192 1.1663 0.28344
H1 H 0.1738 1.2156 0.2989
C3 C 0.15358 1.1087 0.3472
H2 H 0.1759 1.1198 0.4042
C4 C 0.09058 1.08223 0.18006
H3 H 0.0692 1.0721 0.1225
C5 C 0.09007 1.02181 0.24008
H4 H 0.0683 0.9725 0.2228
C6 C 0.07962 0.9105 0.37643
H5 H 0.0509 0.9096 0.323
C7 C 0.12153 0.97097 0.39298
C8 C 0.14861 0.59953 0.40695
H6 H 0.1768 0.6013 0.385
C9 C 0.1061 0.54062 0.3749
C10 C 0.06869 0.60034 0.4747
H7 H 0.041 0.6003 0.4976
C11 C 0.14928 0.65587 0.47163
H8 H 0.178955 0.694396 0.492921
C12 C 0.06487 0.5421 0.4103
H9 H 0.0352 0.5041 0.3905
C13 C 0.0755 0.40006 0.29719
H10 H 0.0546 0.3891 0.3309
C14 C 0.10493 0.47683 0.30752
C15 C 0.07734 0.3402 0.23743
H11 H 0.0569 0.2896 0.2313
C16 C 0.13462 0.42614 0.19564
H12 H 0.1546 0.4358 0.1601
C17 C 0.13491 0.4897 0.2539
H13 H 0.1548 0.5405 0.2574
N4 N 0.10724 0.35131 0.18739
C18 C 0.08039 0.85169 0.43904
H14 H 0.0516 0.812 0.4263
C19 C 0.16342 0.9678 0.47461
H15 H 0.1929 1.0063 0.4891
C20 C 0.16053 0.90686 0.53339
H16 H 0.1884 0.9064 0.5877
O1 O 0.02791 0.769 0.55276
O2 O -0.0325 0.7855 0.6336
O3 O -0.04574 0.668 0.5333
O4 O 0.20154 0.73138 0.65657
O5 O 0.27771 0.82728 0.7225
O6 O 0.2572 0.7078 0.8034
S2 S -0.02697 0.75538 0.5569
C21 C 0.2967 0.6697 0.688
C22 C -0.0686 0.8263 0.4719
F1 F -0.05046 0.9079 0.4961
F2 F -0.064 0.8132 0.397
F3 F -0.1198 0.8259 0.4705
F4 F 0.3475 0.6683 0.7459
F5 F 0.27755 0.58945 0.6874
F6 F 0.2964 0.6938 0.6108
Co1E Co 0.115035 1.25028 0.10459
Co1E_2 Co 0.115035 0.25028 0.10459
N3E N 0.12049 0.84488 0.70047
N4E N 0.10724 0.64869 0.68739
loop_
_geom_bond_atom_site_label_1
_geom_bond_atom_site_label_2
_geom_bond_site_symmetry_1
_geom_bond_site_symmetry_2
Co1 N1 1_555 1_555
S1 O4 1_555 1_555
N1 C10 1_555 1_555
N2 Co1 1_555 1_555
N3 C2 1_555 1_555
C1 C3 1_555 1_555
C2 H1 1_555 1_555
C3 C2 1_555 1_555
H2 C3 1_555 1_555
C4 N3 1_555 1_555
H3 C4 1_555 1_555
C5 C1 1_555 1_555
H4 C5 1_555 1_555
C6 H5 1_555 1_555
C7 C1 1_555 1_555
C8 H6 1_555 1_555
C9 C8 1_555 1_555
C10 H7 1_555 1_555
C11 N1 1_555 1_555
H8 C11 1_555 1_555
C12 C9 1_555 1_555
H9 C12 1_555 1_555
C13 H10 1_555 1_555
C14 C9 1_555 1_555
C15 C13 1_555 1_555
H11 C15 1_555 1_555
C16 H12 1_555 1_555
C17 C14 1_555 1_555
H13 C17 1_555 1_555
N4 C15 1_555 1_555
C18 N2 1_555 1_555
H14 C18 1_555 1_555
C19 C7 1_555 1_555
H15 C19 1_555 1_555
C20 N2 1_555 1_555
H16 C20 1_555 1_555
O1 Co1 1_555 1_555
O2 S2 1_555 1_555
O3 S2 1_555 1_555
O4 Co1 1_555 1_555
O5 S1 1_555 1_555
O6 S1 1_555 1_555
S2 O1 1_555 1_555
C21 S1 1_555 1_555
C22 S2 1_555 1_555
F1 C22 1_555 1_555
F2 C22 1_555 1_555
F3 C22 1_555 1_555
F4 C21 1_555 1_555
F5 C21 1_555 1_555
F6 C21 1_555 1_555
Co1E N3 1_555 1_555
Co1E_2 N4 1_555 1_555
N3E Co1 1_555 1_555
N4E Co1 1_555 1_555
C4 C5 1_555 1_555
C6 C7 1_555 1_555
C6 C18 1_555 1_555
C8 C11 1_555 1_555
C10 C12 1_555 1_555
C13 C14 1_555 1_555
C16 C17 1_555 1_555
C16 N4 1_555 1_555
C19 C20 1_555 1_555

#END
