
#######################################################################
#
#                 Cambridge Crystallographic Data Centre
#                                CCDC 
#
#######################################################################
#
# If this CIF has been generated from an entry in the Cambridge 
# Structural Database, then it will include bibliographic, chemical, 
# crystal, experimental, refinement or atomic coordinate data resulting 
# from the CCDC's data processing and validation procedures.
#
#######################################################################

data_AVUDAX
_symmetry_cell_setting           monoclinic
_symmetry_space_group_name_H-M   'P 21/c'
_symmetry_Int_Tables_number      14
_space_group_name_Hall           '-P 2ybc'
loop_
_symmetry_equiv_pos_site_id
_symmetry_equiv_pos_as_xyz
1 x,y,z
2 -x,1/2+y,1/2-z
3 -x,-y,-z
4 x,1/2-y,1/2+z
_cell_length_a                   16.764(2)
_cell_length_b                   13.2012(12)
_cell_length_c                   24.587(4)
_cell_angle_alpha                90
_cell_angle_beta                 115.502(10)
_cell_angle_gamma                90
_cell_volume                     4911.09
loop_
_atom_site_label
_atom_site_type_symbol
_atom_site_fract_x
_atom_site_fract_y
_atom_site_fract_z
Cu1 Cu 0.58997(6) 1.71076(7) 0.75156(4)
Cu2 Cu 1.0000 1.0000 1.0000
Cl1 Cl 0.6131(4) 1.8931(3) 0.8061(2)
Cl2 Cl 0.55897(18) 1.52383(16) 0.70053(10)
Cl3 Cl 0.8295(3) 0.9511(3) 0.91572(19)
N1 N 0.6578(4) 1.7661(5) 0.7078(2)
N2 N 0.7448(5) 1.7810(7) 0.6611(4)
N3 N 0.7134(5) 1.8731(6) 0.6678(3)
N4 N 0.5265(4) 1.8244(4) 0.3023(3)
N5 N 0.5033(5) 1.8500(5) 0.3812(3)
N6 N 0.4396(5) 1.9055(5) 0.3360(3)
N7 N 0.5227(4) 2.2362(4) 0.3148(3)
N8 N 0.6223(5) 2.2006(4) 0.4046(3)
N9 N 0.6489(5) 2.1541(5) 0.3668(4)
N10 N 0.7053(4) 1.6619(5) 0.8180(2)
N11 N 0.8485(5) 1.6594(5) 0.8821(3)
N12 N 0.8081(5) 1.5685(4) 0.8829(3)
N13 N 0.9458(6) 1.0938(4) 1.0404(3)
N14 N 0.8541(6) 1.1818(6) 1.0660(4)
N15 N 0.9364(6) 1.2234(5) 1.0903(3)
N16 N 1.0009(6) 1.8842(5) 1.0548(4)
N17 N 1.0448(7) 1.7489(6) 1.1120(3)
N18 N 0.9564(7) 1.7627(5) 1.0922(3)
C1 C 0.7102(7) 1.7224(7) 0.6866(4)
H1 H 0.7211 1.6530 0.6901
C2 C 0.6594(5) 1.8611(6) 0.6945(3)
H2 H 0.6280 1.9126 0.7023
C3 C 0.7355(5) 1.9666(6) 0.6443(3)
H3 H 0.7245 2.0242 0.6646
H4 H 0.7982 1.9659 0.6544
C4 C 0.5550(5) 1.8036(6) 0.3605(3)
H5 H 0.6034 1.7631 0.3832
C5 C 0.4566(6) 1.8869(6) 0.2898(4)
H6 H 0.4236 1.9141 0.2518
C6 C 0.5146(6) 1.8516(6) 0.4425(3)
H7 H 0.4579 1.8650 0.4428
H8 H 0.5341 1.7852 0.4601
C7 C 0.5484(6) 2.2483(5) 0.3737(4)
H9 H 0.5176 2.2858 0.3905
C8 C 0.5890(7) 2.1773(6) 0.3141(4)
H10 H 0.5909 2.1558 0.2786
C9 C 0.6688(5) 2.1912(5) 0.4684(3)
H11 H 0.7315 2.1997 0.4800
H12 H 0.6502 2.2453 0.4871
C10 C 0.6542(5) 2.0907(6) 0.4923(3)
C11 C 0.6979(5) 2.0712(6) 0.5523(4)
H13 H 0.7373 2.1194 0.5769
C12 C 0.6863(5) 1.9815(6) 0.5787(3)
C13 C 0.6258(6) 1.9116(6) 0.5410(4)
H14 H 0.6166 1.8517 0.5573
C14 C 0.5792(5) 1.9284(6) 0.4802(4)
C15 C 0.5933(5) 2.0178(6) 0.4566(3)
H15 H 0.5613 2.0301 0.4156
C16 C 0.7830(6) 1.7135(6) 0.8406(4)
H16 H 0.7899 1.7785 0.8286
C17 C 0.7232(6) 1.5735(5) 0.8447(3)
H17 H 0.6823 1.5217 0.8378
C18 C 0.8562(5) 1.4846(5) 0.9201(3)
H18 H 0.9109 1.4763 0.9160
H19 H 0.8217 1.4235 0.9050
C19 C 0.8782(5) 1.4948(5) 0.9858(3)
C20 C 0.8751(5) 1.5840(5) 1.0124(4)
H20 H 0.8551 1.6420 0.9889
C21 C 0.9023(5) 1.5897(5) 1.0758(4)
C22 C 0.9264(5) 1.5040(5) 1.1098(4)
H21 H 0.9414 1.5075 1.1508
C23 C 0.9289(5) 1.4111(5) 1.0836(4)
C24 C 0.9042(5) 1.4069(5) 1.0225(4)
H22 H 0.9045 1.3447 1.0048
C25 C 0.9018(7) 1.6915(5) 1.1047(4)
H23 H 0.8418 1.7171 1.0890
H24 H 0.9235 1.6831 1.1479
C26 C 0.9334(7) 1.8432(6) 1.0576(5)
H25 H 0.8758 1.8673 1.0376
C27 C 1.0677(8) 1.8248(8) 1.0885(5)
H26 H 1.1257 1.8366 1.0947
C28 C 0.9542(6) 1.3173(5) 1.1230(4)
H27 H 1.0168 1.3205 1.1497
H28 H 0.9223 1.3178 1.1479
C29 C 0.8626(7) 1.1024(7) 1.0368(5)
H29 H 0.8170 1.0572 1.0160
C30 C 0.9896(6) 1.1732(7) 1.0738(4)
H30 H 1.0481 1.1900 1.0835
Cu1B Cu 1.41003(6) 0.28924(7) 1.24844(4)
Cu1C Cu 0.58997(6) 1.78924(7) 0.25156(4)
Cu1B_2 Cu 0.41003(6) 2.28924(7) 0.24844(4)
Cu1C_2 Cu 0.58997(6) 1.78924(7) 1.25156(4)
Cu1A Cu 0.41003(6) 1.21076(7) 0.74844(4)
Cu2_2 Cu 1.0000 2.0000 1.0000
Cu2_3 Cu 1.0000 0.0000 1.0000
Cl1B Cl 1.3869(4) 0.1069(3) 1.1939(2)
Cl2B Cl 1.44103(18) 0.47617(16) 1.29947(10)
Cl3B Cl 1.1705(3) 1.0489(3) 1.08428(19)
N1C N 0.6578(4) 1.7339(5) 1.2078(2)
N1B N 1.3422(4) 0.2339(5) 1.2922(2)
N2C N 0.7448(5) 1.7190(7) 1.1611(4)
N3C N 0.7134(5) 1.6269(6) 1.1678(3)
N4C N 0.5265(4) 1.6756(4) 0.8023(3)
N4A N 1.4735(4) 0.3244(4) 1.1977(3)
N5C N 0.5033(5) 1.6500(5) 0.8812(3)
N6C N 0.4396(5) 1.5945(5) 0.8360(3)
N7C N 0.5227(4) 1.2638(4) 0.8148(3)
N7B N 0.4773(4) 1.7638(4) 0.6852(3)
N7_2 N 1.5227(4) 0.2362(4) 1.3148(3)
N8C N 0.6223(5) 1.2994(4) 0.9046(3)
N9C N 0.6489(5) 1.3459(5) 0.8668(4)
N10B N 1.2947(4) 0.3381(5) 1.1820(2)
N11B N 1.1515(5) 0.3406(5) 1.1179(3)
N12B N 1.1919(5) 0.4315(4) 1.1171(3)
N13B N 1.0542(6) 0.9062(4) 0.9596(3)
N14B N 1.1459(6) 0.8182(6) 0.9340(4)
N15B N 1.0636(6) 0.7766(5) 0.9097(3)
N16B N 0.9991(6) 0.1158(5) 0.9452(4)
N16_2 N 1.0009(6) 0.8842(5) 1.0548(4)
N16B_2 N 0.9991(6) 1.1158(5) 0.9452(4)
N17B N 0.9552(7) 0.2511(6) 0.8880(3)
N18B N 1.0436(7) 0.2373(5) 0.9078(3)
C1C C 0.7102(7) 1.7776(7) 1.1866(4)
H1C H 0.7211 1.8470 1.1901
C2C C 0.6594(5) 1.6389(6) 1.1945(3)
H2C H 0.6280 1.5874 1.2023
C3C C 0.7355(5) 1.5334(6) 1.1443(3)
H3C H 0.7245 1.4758 1.1646
H4C H 0.7982 1.5341 1.1544
C4C C 0.5550(5) 1.6964(6) 0.8605(3)
H5C H 0.6034 1.7369 0.8832
C5C C 0.4566(6) 1.6131(6) 0.7898(4)
H6C H 0.4236 1.5859 0.7518
C6C C 0.5146(6) 1.6484(6) 0.9425(3)
H7C H 0.4579 1.6350 0.9428
H8C H 0.5341 1.7148 0.9601
C7C C 0.5484(6) 1.2517(5) 0.8737(4)
H9C H 0.5176 1.2142 0.8905
C8C C 0.5890(7) 1.3227(6) 0.8141(4)
H10C H 0.5909 1.3442 0.7786
C9C C 0.6688(5) 1.3088(5) 0.9684(3)
H11C H 0.7315 1.3003 0.9800
H12C H 0.6502 1.2547 0.9871
C10C C 0.6542(5) 1.4093(6) 0.9923(3)
C11C C 0.6979(5) 1.4288(6) 1.0523(4)
H13C H 0.7373 1.3806 1.0769
C12C C 0.6863(5) 1.5185(6) 1.0787(3)
C13C C 0.6258(6) 1.5884(6) 1.0410(4)
H14C H 0.6166 1.6483 1.0573
C14C C 0.5792(5) 1.5716(6) 0.9802(4)
C15C C 0.5933(5) 1.4822(6) 0.9566(3)
H15C H 0.5613 1.4699 0.9156
C16B C 1.2170(6) 0.2865(6) 1.1594(4)
H16B H 1.2101 0.2215 1.1714
C17B C 1.2768(6) 0.4265(5) 1.1553(3)
H17B H 1.3177 0.4783 1.1622
C18B C 1.1438(5) 0.5154(5) 1.0799(3)
H18B H 1.0891 0.5237 1.0840
H19B H 1.1783 0.5765 1.0950
C19B C 1.1218(5) 0.5052(5) 1.0142(3)
C20B C 1.1249(5) 0.4160(5) 0.9876(4)
H20B H 1.1449 0.3580 1.0111
C21B C 1.0977(5) 0.4103(5) 0.9242(4)
C22B C 1.0736(5) 0.4960(5) 0.8902(4)
H21B H 1.0586 0.4925 0.8492
C23B C 1.0711(5) 0.5889(5) 0.9164(4)
C24B C 1.0958(5) 0.5931(5) 0.9775(4)
H22B H 1.0955 0.6553 0.9952
C25B C 1.0982(7) 0.3085(5) 0.8953(4)
H23B H 1.1582 0.2829 0.9110
H24B H 1.0765 0.3169 0.8521
C26B C 1.0666(7) 0.1568(6) 0.9424(5)
H25B H 1.1242 0.1327 0.9624
C27B C 0.9323(8) 0.1752(8) 0.9115(5)
H26B H 0.8743 0.1634 0.9053
C28B C 1.0458(6) 0.6827(5) 0.8770(4)
H27B H 0.9832 0.6795 0.8503
H28B H 1.0777 0.6822 0.8521
C29B C 1.1374(7) 0.8976(7) 0.9632(5)
H29B H 1.1830 0.9428 0.9840
C30B C 1.0104(6) 0.8268(7) 0.9262(4)
H30B H 0.9519 0.8100 0.9165
O1 O 0.7113(4) 0.8372(6) 0.9734(3)
O2 O 0.1983(10) 0.4965(8) 0.7004(3)
O3 O 0.4754(14) 0.1408(7) 0.9665(7)
O4 O 0.9587(18) 0.8643(17) 0.7654(6)
loop_
_geom_bond_atom_site_label_1
_geom_bond_atom_site_label_2
_geom_bond_site_symmetry_1
_geom_bond_site_symmetry_2
Cu1 Cl1 1_555 1_555
Cu2 Cl3 1_555 1_555
Cl2 Cu1 1_555 1_555
N1 Cu1 1_555 1_555
N2 N3 1_555 1_555
N3 C2 1_555 1_555
N4 C4 1_555 1_555
N5 N6 1_555 1_555
N6 C5 1_555 1_555
N7 C7 1_555 1_555
N8 N9 1_555 1_555
N9 C8 1_555 1_555
N10 Cu1 1_555 1_555
N11 N12 1_555 1_555
N12 C17 1_555 1_555
N13 Cu2 1_555 1_555
N14 N15 1_555 1_555
N15 C28 1_555 1_555
N16 C26 1_555 1_555
N17 N18 1_555 1_555
N18 C25 1_555 1_555
C1 N1 1_555 1_555
H1 C1 1_555 1_555
C2 N1 1_555 1_555
H2 C2 1_555 1_555
C3 N3 1_555 1_555
H3 C3 1_555 1_555
H4 C3 1_555 1_555
C4 N5 1_555 1_555
H5 C4 1_555 1_555
C5 N4 1_555 1_555
H6 C5 1_555 1_555
C6 N5 1_555 1_555
H7 C6 1_555 1_555
H8 C6 1_555 1_555
C7 N8 1_555 1_555
H9 C7 1_555 1_555
C8 N7 1_555 1_555
H10 C8 1_555 1_555
C9 N8 1_555 1_555
H11 C9 1_555 1_555
H12 C9 1_555 1_555
C10 C9 1_555 1_555
C11 C10 1_555 1_555
H13 C11 1_555 1_555
C12 C3 1_555 1_555
C13 C12 1_555 1_555
H14 C13 1_555 1_555
C14 C6 1_555 1_555
C15 C10 1_555 1_555
H15 C15 1_555 1_555
C16 N10 1_555 1_555
H16 C16 1_555 1_555
C17 N10 1_555 1_555
H17 C17 1_555 1_555
C18 N12 1_555 1_555
H18 C18 1_555 1_555
H19 C18 1_555 1_555
C19 C18 1_555 1_555
C20 C19 1_555 1_555
H20 C20 1_555 1_555
C21 C20 1_555 1_555
C22 C21 1_555 1_555
H21 C22 1_555 1_555
C23 C22 1_555 1_555
C24 C19 1_555 1_555
H22 C24 1_555 1_555
C25 C21 1_555 1_555
H23 C25 1_555 1_555
H24 C25 1_555 1_555
C26 N18 1_555 1_555
H25 C26 1_555 1_555
C27 N16 1_555 1_555
H26 C27 1_555 1_555
C28 C23 1_555 1_555
H27 C28 1_555 1_555
H28 C28 1_555 1_555
C29 N13 1_555 1_555
H29 C29 1_555 1_555
C30 N13 1_555 1_555
H30 C30 1_555 1_555
Cu1B Cl1B 1_555 1_555
Cu1C N4 1_555 1_555
Cu1B_2 N7 1_555 1_555
Cu1C_2 N1C 1_555 1_555
Cu1A N7C 1_555 1_555
Cu2_2 N16 1_555 1_555
Cu2_3 N16B 1_555 1_555
Cl2B Cu1B 1_555 1_555
Cl3B Cu2 1_555 1_555
N1C C1C 1_555 1_555
N1B Cu1B 1_555 1_555
N2C N3C 1_555 1_555
N3C C2C 1_555 1_555
N4C Cu1 1_555 1_555
N4A Cu1B 1_555 1_555
N5C N6C 1_555 1_555
N6C C5C 1_555 1_555
N7C C7C 1_555 1_555
N7B Cu1 1_555 1_555
N7_2 Cu1B 1_555 1_555
N8C N9C 1_555 1_555
N9C C8C 1_555 1_555
N10B Cu1B 1_555 1_555
N11B N12B 1_555 1_555
N12B C17B 1_555 1_555
N13B Cu2 1_555 1_555
N14B N15B 1_555 1_555
N15B C28B 1_555 1_555
N16B C26B 1_555 1_555
N16_2 Cu2 1_555 1_555
N16B_2 Cu2 1_555 1_555
N17B N18B 1_555 1_555
N18B C25B 1_555 1_555
C1C N2C 1_555 1_555
H1C C1C 1_555 1_555
C2C N1C 1_555 1_555
H2C C2C 1_555 1_555
C3C N3C 1_555 1_555
H3C C3C 1_555 1_555
H4C C3C 1_555 1_555
C4C N4C 1_555 1_555
H5C C4C 1_555 1_555
C5C N4C 1_555 1_555
H6C C5C 1_555 1_555
C6C N5C 1_555 1_555
H7C C6C 1_555 1_555
H8C C6C 1_555 1_555
C7C N8C 1_555 1_555
H9C C7C 1_555 1_555
C8C N7C 1_555 1_555
H10C C8C 1_555 1_555
C9C N8C 1_555 1_555
H11C C9C 1_555 1_555
H12C C9C 1_555 1_555
C10C C9C 1_555 1_555
C11C C10C 1_555 1_555
H13C C11C 1_555 1_555
C12C C3C 1_555 1_555
C13C C12C 1_555 1_555
H14C C13C 1_555 1_555
C14C C6C 1_555 1_555
C15C C10C 1_555 1_555
H15C C15C 1_555 1_555
C16B N10B 1_555 1_555
H16B C16B 1_555 1_555
C17B N10B 1_555 1_555
H17B C17B 1_555 1_555
C18B N12B 1_555 1_555
H18B C18B 1_555 1_555
H19B C18B 1_555 1_555
C19B C18B 1_555 1_555
C20B C19B 1_555 1_555
H20B C20B 1_555 1_555
C21B C20B 1_555 1_555
C22B C21B 1_555 1_555
H21B C22B 1_555 1_555
C23B C22B 1_555 1_555
C24B C19B 1_555 1_555
H22B C24B 1_555 1_555
C25B C21B 1_555 1_555
H23B C25B 1_555 1_555
H24B C25B 1_555 1_555
C26B N18B 1_555 1_555
H25B C26B 1_555 1_555
C27B N16B 1_555 1_555
H26B C27B 1_555 1_555
C28B C23B 1_555 1_555
H27B C28B 1_555 1_555
H28B C28B 1_555 1_555
C29B N13B 1_555 1_555
H29B C29B 1_555 1_555
C30B N13B 1_555 1_555
H30B C30B 1_555 1_555
N2 C1 1_555 1_555
N11 C16 1_555 1_555
N14 C29 1_555 1_555
N15 C30 1_555 1_555
N17 C27 1_555 1_555
C11 C12 1_555 1_555
C13 C14 1_555 1_555
C14 C15 1_555 1_555
C23 C24 1_555 1_555
N5C C4C 1_555 1_555
N11B C16B 1_555 1_555
N14B C29B 1_555 1_555
N15B C30B 1_555 1_555
N17B C27B 1_555 1_555
C11C C12C 1_555 1_555
C13C C14C 1_555 1_555
C14C C15C 1_555 1_555
C23B C24B 1_555 1_555

#END
