
#######################################################################
#
#                 Cambridge Crystallographic Data Centre
#                                CCDC 
#
#######################################################################
#
# If this CIF has been generated from an entry in the Cambridge 
# Structural Database, then it will include bibliographic, chemical, 
# crystal, experimental, refinement or atomic coordinate data resulting 
# from the CCDC's data processing and validation procedures.
#
#######################################################################

data_AWAGOV
_symmetry_cell_setting           tetragonal
_symmetry_space_group_name_H-M   'P 4/n'
_symmetry_Int_Tables_number      85
_space_group_name_Hall           '-P 4a'
loop_
_symmetry_equiv_pos_site_id
_symmetry_equiv_pos_as_xyz
1 x,y,z
2 1/2-x,1/2-y,z
3 1/2-y,x,z
4 y,1/2-x,z
5 -x,-y,-z
6 1/2+x,1/2+y,-z
7 1/2+y,-x,-z
8 -y,1/2+x,-z
_cell_length_a                   22.4660(1)
_cell_length_b                   22.4660(1)
_cell_length_c                   13.3870(1)
_cell_angle_alpha                90
_cell_angle_beta                 90
_cell_angle_gamma                90
_cell_volume                     6756.7
loop_
_atom_site_label
_atom_site_type_symbol
_atom_site_fract_x
_atom_site_fract_y
_atom_site_fract_z
Ni1 Ni 0.18273(2) 0.06580(2) -0.27594(4)
C1 C 0.08444(15) 0.36697(16) 0.2658(2)
C2 C 0.09641(17) 0.42715(16) 0.2628(2)
H1 H 0.0754 0.4514 0.2190
C3 C 0.13938(17) 0.45192(16) 0.3245(2)
H2 H 0.1469 0.4926 0.3227
C4 C 0.17094(14) 0.41535(15) 0.3889(2)
C5 C 0.16136(16) 0.35497(16) 0.3883(3)
H3 H 0.1843 0.3303 0.4287
C6 C 0.11823(16) 0.33108(17) 0.3284(3)
H4 H 0.1114 0.2903 0.3295
C7 C 0.23118(16) 0.41719(16) 0.5439(2)
H5 H 0.2170 0.3813 0.5691
C8 C 0.2789(2) 0.49827(19) 0.5277(3)
H6 H 0.3044 0.5299 0.5406
C9 C 0.2442(2) 0.49292(19) 0.4455(3)
H7 H 0.2420 0.5194 0.3922
C10 C -0.04134(17) 0.3998(2) 0.2766(3)
H8 H -0.0210 0.4009 0.3371
C11 C -0.09632(18) 0.4270(2) 0.2681(3)
H9 H -0.1126 0.4465 0.3229
C12 C -0.12715(15) 0.42556(16) 0.1792(3)
C13 C -0.10286(17) 0.39670(19) 0.0970(3)
H10 H -0.1237 0.3947 0.0371
C14 C -0.04710(17) 0.37091(18) 0.1057(3)
H11 H -0.0298 0.3531 0.0501
C15 C -0.01663(15) 0.37113(16) 0.1958(3)
C16 C -0.23346(17) 0.42713(19) 0.1254(3)
H12 H -0.2344 0.3923 0.0878
C17 C -0.27908(17) 0.46353(19) 0.1446(3)
H13 H -0.3180 0.4575 0.1232
C18 C -0.20353(15) 0.50215(16) 0.2159(3)
H14 H -0.1790 0.5275 0.2524
C19 C 0.00824(16) 0.24665(18) 0.1337(3)
H15 H -0.0291 0.2511 0.1628
C20 C 0.02000(15) 0.19652(17) 0.0754(3)
H16 H -0.0092 0.1678 0.0654
C21 C 0.07554(14) 0.19002(14) 0.0328(2)
C22 C 0.11893(15) 0.23155(16) 0.0501(3)
H17 H 0.1569 0.2260 0.0239
C23 C 0.10676(16) 0.28179(15) 0.1065(3)
H18 H 0.1360 0.3105 0.1160
C24 C 0.05072(14) 0.28935(14) 0.1489(2)
C25 C 0.13007(15) 0.13833(16) -0.1022(3)
H19 H 0.1554 0.1699 -0.1166
C26 C 0.06010(17) 0.08611(17) -0.0319(3)
H20 H 0.0289 0.0738 0.0088
C27 C 0.08711(17) 0.05384(17) -0.1060(3)
H21 H 0.0772 0.0151 -0.1239
C28 C 0.09312(14) 0.03983(14) -0.3693(2)
C29 C 0.04476(14) 0.01926(14) -0.4355(2)
C30 C 0.03716(15) -0.04126(16) -0.4543(2)
H22 H 0.0620 -0.0690 -0.4239
C31 C 0.00752(15) 0.06013(15) -0.4816(2)
H23 H 0.0126 0.1006 -0.4694
N1 N 0.03897(13) 0.34148(14) 0.2050(2)
N2 N 0.21306(13) 0.44093(13) 0.4564(2)
N3 N 0.27074(12) 0.44992(13) 0.5894(2)
N4 N -0.18502(13) 0.45138(14) 0.1720(2)
N5 N -0.26015(12) 0.51126(13) 0.2008(2)
N6 N 0.08812(12) 0.13977(12) -0.03002(19)
N7 N 0.13087(12) 0.08722(12) -0.1497(2)
O1 O 0.10732(10) 0.09384(11) -0.36590(17)
O2 O 0.12131(10) 0.00158(10) -0.31721(17)
O3 O 0.23133(12) 0.14482(12) -0.26538(19)
H24 H 0.246(4) 0.169(3) -0.222(4)
H25 H 0.240(4) 0.164(3) -0.321(3)
Ni1D Ni -0.18273(2) -0.06580(2) -0.72406(4)
Ni1A Ni 0.31727(2) -0.56580(2) -1.27594(4)
Ni1A_2 Ni 0.31727(2) 0.43420(2) 0.72406(4)
Ni1E Ni -0.31727(2) -0.43420(2) -1.72406(4)
Ni1E_2 Ni -0.31727(2) 0.56580(2) 0.27594(4)
C1D C -0.08444(15) -0.36697(16) -1.2658(2)
C2D C -0.09641(17) -0.42715(16) -1.2628(2)
H1D H -0.0754 -0.4514 -1.2190
C3D C -0.13938(17) -0.45192(16) -1.3245(2)
H2D H -0.1469 -0.4926 -1.3227
C4D C -0.17094(14) -0.41535(15) -1.3889(2)
C5D C -0.16136(16) -0.35497(16) -1.3883(3)
H3D H -0.1843 -0.3303 -1.4287
C6D C -0.11823(16) -0.33108(17) -1.3284(3)
H4D H -0.1114 -0.2903 -1.3295
C7D C -0.23118(16) -0.41719(16) -1.5439(2)
H5D H -0.2170 -0.3813 -1.5691
C8D C -0.2789(2) -0.49827(19) -1.5277(3)
H6D H -0.3044 -0.5299 -1.5406
C9D C -0.2442(2) -0.49292(19) -1.4455(3)
H7D H -0.2420 -0.5194 -1.3922
C10D C 0.04134(17) -0.3998(2) -1.2766(3)
H8D H 0.0210 -0.4009 -1.3371
C11D C 0.09632(18) -0.4270(2) -1.2681(3)
H9D H 0.1126 -0.4465 -1.3229
C12D C 0.12715(15) -0.42556(16) -1.1792(3)
C13D C 0.10286(17) -0.39670(19) -1.0970(3)
H10D H 0.1237 -0.3947 -1.0371
C14D C 0.04710(17) -0.37091(18) -1.1057(3)
H11D H 0.0298 -0.3531 -1.0501
C15D C 0.01663(15) -0.37113(16) -1.1958(3)
C16D C 0.23346(17) -0.42713(19) -1.1254(3)
H12D H 0.2344 -0.3923 -1.0878
C17D C 0.27908(17) -0.46353(19) -1.1446(3)
H13D H 0.3180 -0.4575 -1.1232
C18D C 0.20353(15) -0.50215(16) -1.2159(3)
H14D H 0.1790 -0.5275 -1.2524
C19D C -0.00824(16) -0.24665(18) -1.1337(3)
H15D H 0.0291 -0.2511 -1.1628
C20D C -0.02000(15) -0.19652(17) -1.0754(3)
H16D H 0.0092 -0.1678 -1.0654
C21D C -0.07554(14) -0.19002(14) -1.0328(2)
C22D C -0.11893(15) -0.23155(16) -1.0501(3)
H17D H -0.1569 -0.2260 -1.0239
C23D C -0.10676(16) -0.28179(15) -1.1065(3)
H18D H -0.1360 -0.3105 -1.1160
C24D C -0.05072(14) -0.28935(14) -1.1489(2)
C25D C -0.13007(15) -0.13833(16) -0.8978(3)
H19D H -0.1554 -0.1699 -0.8834
C26D C -0.06010(17) -0.08611(17) -0.9681(3)
H20D H -0.0289 -0.0738 -1.0088
C27D C -0.08711(17) -0.05384(17) -0.8940(3)
H21D H -0.0772 -0.0151 -0.8761
C28D C -0.09312(14) -0.03983(14) -0.6307(2)
C29D C -0.04476(14) -0.01926(14) -0.5645(2)
C30D C -0.03716(15) 0.04126(16) -0.5457(2)
H22D H -0.0620 0.0690 -0.5761
C31D C -0.00752(15) -0.06013(15) -0.5184(2)
H23D H -0.0126 -0.1006 -0.5306
N1D N -0.03897(13) -0.34148(14) -1.2050(2)
N2D N -0.21306(13) -0.44093(13) -1.4564(2)
N3D N -0.27074(12) -0.44992(13) -1.5894(2)
N3A N 0.22926(12) 0.05008(13) -0.4106(2)
N3E N -0.22926(12) -0.05008(13) -0.5894(2)
N4D N 0.18502(13) -0.45138(14) -1.1720(2)
N5D N 0.26015(12) -0.51126(13) -1.2008(2)
N5A N -0.23985(12) -0.01126(13) -0.7992(2)
N5E N 0.23985(12) 0.01126(13) -0.2008(2)
N6D N -0.08812(12) -0.13977(12) -0.96998(19)
N7D N -0.13087(12) -0.08722(12) -0.8503(2)
O1D O -0.10732(10) -0.09384(11) -0.63410(17)
O2D O -0.12131(10) -0.00158(10) -0.68279(17)
O3D O -0.23133(12) -0.14482(12) -0.73462(19)
H24D H -0.246(4) -0.169(3) -0.778(4)
H25D H -0.240(4) -0.164(3) -0.679(3)
Cl1 Cl 0.2500 0.2500 -0.11218(11)
Cl2 Cl -0.2500 0.2500 0.0000
Cl3 Cl 0.2500 0.2500 0.57741(14)
Cl4 Cl -0.2079(2) 0.3360(2) -0.1038(4)
O4 O 0.0760(2) -0.0935(2) -0.1910(4)
H26 H 0.095(3) -0.117(3) -0.231(4)
H27 H 0.095(3) -0.099(4) -0.135(3)
loop_
_geom_bond_atom_site_label_1
_geom_bond_atom_site_label_2
_geom_bond_site_symmetry_1
_geom_bond_site_symmetry_2
Ni1 N7 1_555 1_555
C1 C2 1_555 1_555
C2 H1 1_555 1_555
C3 C2 1_555 1_555
H2 C3 1_555 1_555
C4 C3 1_555 1_555
C5 C4 1_555 1_555
H3 C5 1_555 1_555
C6 C1 1_555 1_555
H4 C6 1_555 1_555
C7 H5 1_555 1_555
C8 H6 1_555 1_555
C9 C8 1_555 1_555
H7 C9 1_555 1_555
C10 H8 1_555 1_555
C11 C10 1_555 1_555
H9 C11 1_555 1_555
C12 C11 1_555 1_555
C13 C12 1_555 1_555
H10 C13 1_555 1_555
C14 C13 1_555 1_555
H11 C14 1_555 1_555
C15 C10 1_555 1_555
C16 H12 1_555 1_555
C17 C16 1_555 1_555
H13 C17 1_555 1_555
C18 H14 1_555 1_555
C19 H15 1_555 1_555
C20 C19 1_555 1_555
H16 C20 1_555 1_555
C21 C20 1_555 1_555
C22 C21 1_555 1_555
H17 C22 1_555 1_555
C23 C22 1_555 1_555
H18 C23 1_555 1_555
C24 C19 1_555 1_555
C25 H19 1_555 1_555
C26 H20 1_555 1_555
C27 C26 1_555 1_555
H21 C27 1_555 1_555
C28 C29 1_555 1_555
C29 C30 1_555 1_555
C30 H22 1_555 1_555
C31 C29 1_555 1_555
H23 C31 1_555 1_555
N1 C1 1_555 1_555
N2 C4 1_555 1_555
N3 C7 1_555 1_555
N4 C12 1_555 1_555
N5 C17 1_555 1_555
N6 C21 1_555 1_555
N7 C25 1_555 1_555
O1 Ni1 1_555 1_555
O2 Ni1 1_555 1_555
O3 Ni1 1_555 1_555
O4 H26 1_555 1_555
H24 O3 1_555 1_555
H25 O3 1_555 1_555
H27 O4 1_555 1_555
Ni1D N3E 1_555 1_555
Ni1A N5D 1_555 1_555
Ni1A_2 N3 1_555 1_555
Ni1E N3D 1_555 1_555
Ni1E_2 N5 1_555 1_555
C1D C2D 1_555 1_555
C2D H1D 1_555 1_555
C3D C2D 1_555 1_555
H2D C3D 1_555 1_555
C4D C3D 1_555 1_555
C5D C4D 1_555 1_555
H3D C5D 1_555 1_555
C6D C1D 1_555 1_555
H4D C6D 1_555 1_555
C7D H5D 1_555 1_555
C8D H6D 1_555 1_555
C9D C8D 1_555 1_555
H7D C9D 1_555 1_555
C10D H8D 1_555 1_555
C11D C10D 1_555 1_555
H9D C11D 1_555 1_555
C12D C11D 1_555 1_555
C13D C12D 1_555 1_555
H10D C13D 1_555 1_555
C14D C13D 1_555 1_555
H11D C14D 1_555 1_555
C15D C10D 1_555 1_555
C16D H12D 1_555 1_555
C17D C16D 1_555 1_555
H13D C17D 1_555 1_555
C18D H14D 1_555 1_555
C19D H15D 1_555 1_555
C20D C19D 1_555 1_555
H16D C20D 1_555 1_555
C21D C20D 1_555 1_555
C22D C21D 1_555 1_555
H17D C22D 1_555 1_555
C23D C22D 1_555 1_555
H18D C23D 1_555 1_555
C24D C19D 1_555 1_555
C25D H19D 1_555 1_555
C26D H20D 1_555 1_555
C27D C26D 1_555 1_555
H21D C27D 1_555 1_555
C28D C29D 1_555 1_555
C29D C30D 1_555 1_555
C30D C31 1_555 1_555
H22D C30D 1_555 1_555
C31D C30 1_555 1_555
H23D C31D 1_555 1_555
N1D C1D 1_555 1_555
N2D C4D 1_555 1_555
N3D C7D 1_555 1_555
N3A Ni1 1_555 1_555
N4D C12D 1_555 1_555
N5D C17D 1_555 1_555
N5A Ni1D 1_555 1_555
N5E Ni1 1_555 1_555
N6D C21D 1_555 1_555
N7D Ni1D 1_555 1_555
O1D Ni1D 1_555 1_555
O2D Ni1D 1_555 1_555
O3D Ni1D 1_555 1_555
H24D O3D 1_555 1_555
H25D O3D 1_555 1_555
C5 C6 1_555 1_555
C7 N2 1_555 1_555
C8 N3 1_555 1_555
C9 N2 1_555 1_555
C14 C15 1_555 1_555
C15 N1 1_555 1_555
C16 N4 1_555 1_555
C18 N4 1_555 1_555
C18 N5 1_555 1_555
C23 C24 1_555 1_555
C24 N1 1_555 1_555
C25 N6 1_555 1_555
C26 N6 1_555 1_555
C27 N7 1_555 1_555
C28 O1 1_555 1_555
C28 O2 1_555 1_555
C5D C6D 1_555 1_555
C7D N2D 1_555 1_555
C8D N3D 1_555 1_555
C9D N2D 1_555 1_555
C14D C15D 1_555 1_555
C15D N1D 1_555 1_555
C16D N4D 1_555 1_555
C18D N4D 1_555 1_555
C18D N5D 1_555 1_555
C23D C24D 1_555 1_555
C24D N1D 1_555 1_555
C25D N6D 1_555 1_555
C25D N7D 1_555 1_555
C26D N6D 1_555 1_555
C27D N7D 1_555 1_555
C28D O1D 1_555 1_555
C28D O2D 1_555 1_555
C29D C31D 1_555 1_555

#END
