
#######################################################################
#
#                 Cambridge Crystallographic Data Centre
#                                CCDC 
#
#######################################################################
#
# If this CIF has been generated from an entry in the Cambridge 
# Structural Database, then it will include bibliographic, chemical, 
# crystal, experimental, refinement or atomic coordinate data resulting 
# from the CCDC's data processing and validation procedures.
#
#######################################################################

data_AXINIF
_symmetry_cell_setting           orthorhombic
_symmetry_space_group_name_H-M   'P n m a'
_symmetry_Int_Tables_number      62
_space_group_name_Hall           '-P 2ac 2n'
loop_
_symmetry_equiv_pos_site_id
_symmetry_equiv_pos_as_xyz
1 x,y,z
2 1/2-x,-y,1/2+z
3 1/2+x,1/2-y,1/2-z
4 -x,1/2+y,-z
5 -x,-y,-z
6 1/2+x,y,1/2-z
7 1/2-x,1/2+y,1/2+z
8 x,1/2-y,z
_cell_length_a                   17.551(4)
_cell_length_b                   25.356(5)
_cell_length_c                   21.148(4)
_cell_angle_alpha                90
_cell_angle_beta                 90
_cell_angle_gamma                90
_cell_volume                     9411.35
loop_
_atom_site_label
_atom_site_type_symbol
_atom_site_fract_x
_atom_site_fract_y
_atom_site_fract_z
Co1 Co 0.61277(3) 0.7500 0.66324(2)
Co2 Co 0.99675(2) 0.319210(16) 1.06379(2)
O1 O 0.89357(14) 0.33958(10) 1.03421(12)
O2 O 0.51577(17) 0.7500 0.60699(14)
O3 O 0.56122(14) 0.69148(8) 0.71655(9)
O4 O 0.70046(19) 0.7500 0.73070(14)
O5 O 0.50030(15) 0.63924(11) 0.64716(12)
C1 C 0.4207(2) 0.42933(15) 0.95540(18)
O6 O 0.82711(14) 0.30735(10) 1.11533(11)
C2 C 0.1222(3) 0.35120(19) 1.03052(17)
C3 C 0.56250(19) 0.61051(13) 0.80516(16)
H1 H 0.5970 0.6379 0.8108
C4 C 0.49702(19) 0.48952(16) 0.89270(19)
C5 C 0.4266(2) 0.46913(16) 0.91032(19)
H2 H 0.3826 0.4823 0.8916
C6 C 0.5180(2) 0.60907(13) 0.75080(17)
C7 C 0.6978(2) 0.40771(17) 0.9589(2)
H3 H 0.6990 0.4240 0.9195
C8 C 0.3443(2) 0.40995(16) 0.97470(19)
C9 C 0.2001(2) 0.37344(19) 1.01103(19)
C10 C 0.5036(2) 0.53185(15) 0.84510(19)
C11 C 0.4870(2) 0.40893(16) 0.9819(2)
H4 H 0.4835 0.3816 1.0111
C12 C 0.7630(2) 0.36018(13) 1.04094(16)
C13 C 0.4585(2) 0.52969(15) 0.78945(19)
H5 H 0.4240 0.5022 0.7836
C14 C 0.6293(2) 0.40577(14) 0.99270(18)
C15 C 0.5273(2) 0.65010(12) 0.70043(15)
O7 O 0.12080(19) 0.31402(12) 1.06513(17)
C16 C 0.4658(2) 0.56853(14) 0.74389(18)
H6 H 0.4351 0.5674 0.7080
C17 C 0.7642(2) 0.38558(17) 0.98351(19)
H7 H 0.8096 0.3880 0.9610
C18 C 0.5563(2) 0.57196(14) 0.85085(17)
H8 H 0.5880 0.5730 0.8860
C19 C 0.8342(2) 0.33391(13) 1.06625(14)
C20 C 0.5587(2) 0.42864(15) 0.96556(19)
C21 C 0.6293(2) 0.38095(16) 1.05119(18)
H9 H 0.5846 0.3797 1.0747
C22 C 0.6950(2) 0.35791(15) 1.07507(17)
H10 H 0.6937 0.3409 1.1140
C23 C 0.2633(3) 0.34349(18) 1.0179(3)
H11 H 0.2591 0.3104 1.0365
C24 C 0.5629(2) 0.46942(15) 0.92172(19)
H12 H 0.6101 0.4836 0.9114
O8 O 0.0649(2) 0.3751(2) 1.01169(18)
C25 C 0.3323(2) 0.36027(18) 0.9985(3)
H13 H 0.3734 0.3373 1.0014
C26 C 0.2822(3) 0.4448(2) 0.9759(3)
H14 H 0.2891 0.4804 0.9667
C27 C 0.2117(3) 0.4261(3) 0.9907(3)
H15 H 0.1699 0.4486 0.9874
Co1F Co 0.88723(3) 0.2500 1.16324(2)
Co1F_2 Co 0.88723(3) 0.2500 0.16324(2)
Co2A Co 0.50325(2) 0.680790(16) 0.56379(2)
Co2F Co 0.50325(2) 0.819210(16) 0.56379(2)
Co2_2 Co -0.00325(2) 0.319210(16) 1.06379(2)
Co2_3 Co 0.99675(2) 0.319210(16) 0.06379(2)
Co2A_2 Co 1.50325(2) 0.680790(16) 0.56379(2)
O1A O 0.60643(14) 0.66042(10) 0.53421(12)
O2F O 0.98423(17) 0.2500 1.10699(14)
O3A O 0.93878(14) 0.30852(8) 0.21655(9)
O3G O 0.56122(14) 0.80852(8) 0.71655(9)
O5A O 0.99970(15) 0.36076(11) 0.14716(12)
O5A_2 O 0.99970(15) 0.36076(11) 1.14716(12)
C1A C 1.0793(2) 0.57067(15) 0.45540(18)
O6A O 0.67289(14) 0.69265(10) 0.61533(11)
O6F O 0.67289(14) 0.80735(10) 0.61533(11)
C2A C 1.3778(3) 0.64880(19) 0.53052(17)
C3A C 0.93750(19) 0.38949(13) 0.30516(16)
H1A H 0.9030 0.3621 0.3108
C4A C 1.00298(19) 0.51048(16) 0.39270(19)
C5A C 1.0734(2) 0.53087(16) 0.41032(19)
H2A H 1.1174 0.5177 0.3916
C6A C 0.9820(2) 0.39093(13) 0.25080(17)
C7A C 0.8022(2) 0.59229(17) 0.4589(2)
H3A H 0.8010 0.5760 0.4195
C8A C 1.1557(2) 0.59005(16) 0.47470(19)
C9A C 1.2999(2) 0.62656(19) 0.51103(19)
C10A C 0.9964(2) 0.46815(15) 0.34510(19)
C11A C 1.0130(2) 0.59107(16) 0.4819(2)
H4A H 1.0165 0.6184 0.5111
C12A C 0.7370(2) 0.63982(13) 0.54094(16)
C13A C 1.0415(2) 0.47031(15) 0.28945(19)
H5A H 1.0760 0.4978 0.2836
C14A C 0.8707(2) 0.59423(14) 0.49270(18)
C15A C 0.9727(2) 0.34990(12) 0.20043(15)
O7A O 1.37920(19) 0.68598(12) 0.56513(17)
O7_2 O 1.12080(19) 0.31402(12) 1.06513(17)
O7A_2 O 0.37920(19) 0.68598(12) 0.56513(17)
C16A C 1.0342(2) 0.43147(14) 0.24389(18)
H6A H 1.0649 0.4326 0.2080
C17A C 0.7358(2) 0.61442(17) 0.48351(19)
H7A H 0.6904 0.6120 0.4610
C18A C 0.9437(2) 0.42804(14) 0.35085(17)
H8A H 0.9120 0.4270 0.3860
C19A C 0.6658(2) 0.66609(13) 0.56625(14)
C20A C 0.9413(2) 0.57136(15) 0.46556(19)
C21A C 0.8707(2) 0.61905(16) 0.55119(18)
H9A H 0.9154 0.6203 0.5747
C22A C 0.8050(2) 0.64209(15) 0.57507(17)
H10A H 0.8063 0.6591 0.6140
C23A C 1.2367(3) 0.65651(18) 0.5179(3)
H11A H 1.2409 0.6896 0.5365
C24A C 0.9371(2) 0.53058(15) 0.42172(19)
H12A H 0.8899 0.5164 0.4114
O8A O 1.4351(2) 0.6249(2) 0.51169(18)
O8_2 O 1.0649(2) 0.3751(2) 1.01169(18)
O8A_2 O 0.4351(2) 0.6249(2) 0.51169(18)
C25A C 1.1677(2) 0.63973(18) 0.4985(3)
H13A H 1.1266 0.6627 0.5014
C26A C 1.2178(3) 0.5552(2) 0.4759(3)
H14A H 1.2109 0.5196 0.4667
C27A C 1.2883(3) 0.5739(3) 0.4907(3)
H15A H 1.3301 0.5514 0.4874
loop_
_geom_bond_atom_site_label_1
_geom_bond_atom_site_label_2
_geom_bond_site_symmetry_1
_geom_bond_site_symmetry_2
Co1 O2 1_555 1_555
Co2 O1 1_555 1_555
O1 C19 1_555 1_555
O2 Co2A 1_555 1_555
O3 Co1 1_555 1_555
O4 Co1 1_555 1_555
O5 C15 1_555 1_555
C1 C5 1_555 1_555
O6 C19 1_555 1_555
C2 C9 1_555 1_555
C3 H1 1_555 1_555
C4 C5 1_555 1_555
C5 H2 1_555 1_555
C6 C3 1_555 1_555
C7 H3 1_555 1_555
C8 C1 1_555 1_555
C9 C23 1_555 1_555
C10 C4 1_555 1_555
C11 C1 1_555 1_555
H4 C11 1_555 1_555
C12 C17 1_555 1_555
C13 C10 1_555 1_555
H5 C13 1_555 1_555
C14 C7 1_555 1_555
C15 O3 1_555 1_555
O7 C2 1_555 1_555
C16 C6 1_555 1_555
H6 C16 1_555 1_555
C17 C7 1_555 1_555
H7 C17 1_555 1_555
C18 C3 1_555 1_555
H8 C18 1_555 1_555
C19 C12 1_555 1_555
C20 C11 1_555 1_555
C21 C14 1_555 1_555
H9 C21 1_555 1_555
C22 C12 1_555 1_555
H10 C22 1_555 1_555
C23 H11 1_555 1_555
C24 C4 1_555 1_555
H12 C24 1_555 1_555
O8 C2 1_555 1_555
C25 C8 1_555 1_555
H13 C25 1_555 1_555
C26 C8 1_555 1_555
H14 C26 1_555 1_555
C27 C9 1_555 1_555
H15 C27 1_555 1_555
Co1F O6 1_555 1_555
Co1F_2 O3A 1_555 1_555
Co2A O5 1_555 1_555
Co2F O2 1_555 1_555
Co2_2 O7 1_555 1_555
Co2_3 O5A 1_555 1_555
Co2A_2 O7A 1_555 1_555
O1A Co2A 1_555 1_555
O2F Co2 1_555 1_555
O3A C15A 1_555 1_555
O3G Co1 1_555 1_555
O5A C15A 1_555 1_555
O5A_2 Co2 1_555 1_555
C1A C5A 1_555 1_555
O6A Co1 1_555 1_555
O6F Co1 1_555 1_555
C2A C9A 1_555 1_555
C3A H1A 1_555 1_555
C4A C5A 1_555 1_555
C5A H2A 1_555 1_555
C6A C3A 1_555 1_555
C7A H3A 1_555 1_555
C8A C1A 1_555 1_555
C9A C23A 1_555 1_555
C10A C4A 1_555 1_555
C11A C1A 1_555 1_555
H4A C11A 1_555 1_555
C12A C17A 1_555 1_555
C13A C10A 1_555 1_555
H5A C13A 1_555 1_555
C14A C7A 1_555 1_555
C15A C6A 1_555 1_555
O7A C2A 1_555 1_555
O7_2 Co2 1_555 1_555
O7A_2 Co2A 1_555 1_555
C16A C6A 1_555 1_555
H6A C16A 1_555 1_555
C17A C7A 1_555 1_555
H7A C17A 1_555 1_555
C18A C3A 1_555 1_555
H8A C18A 1_555 1_555
C19A O1A 1_555 1_555
C20A C11A 1_555 1_555
C21A C14A 1_555 1_555
H9A C21A 1_555 1_555
C22A C12A 1_555 1_555
H10A C22A 1_555 1_555
C23A H11A 1_555 1_555
C24A C4A 1_555 1_555
H12A C24A 1_555 1_555
O8A Co2A_2 1_555 1_555
O8_2 Co2 1_555 1_555
O8A_2 Co2A 1_555 1_555
C25A C8A 1_555 1_555
H13A C25A 1_555 1_555
C26A C8A 1_555 1_555
H14A C26A 1_555 1_555
C27A C9A 1_555 1_555
H15A C27A 1_555 1_555
C6 C15 1_555 1_555
C10 C18 1_555 1_555
C13 C16 1_555 1_555
C14 C20 1_555 1_555
C20 C24 1_555 1_555
C21 C22 1_555 1_555
C23 C25 1_555 1_555
O8 Co2_2 1_555 1_555
C26 C27 1_555 1_555
Co1F O2F 1_555 1_555
O6A C19A 1_555 1_555
C2A O8A 1_555 1_555
C10A C18A 1_555 1_555
C12A C19A 1_555 1_555
C13A C16A 1_555 1_555
C14A C20A 1_555 1_555
C20A C24A 1_555 1_555
C21A C22A 1_555 1_555
C23A C25A 1_555 1_555
C26A C27A 1_555 1_555

#END
