
#######################################################################
#
#                 Cambridge Crystallographic Data Centre
#                                CCDC 
#
#######################################################################
#
# If this CIF has been generated from an entry in the Cambridge 
# Structural Database, then it will include bibliographic, chemical, 
# crystal, experimental, refinement or atomic coordinate data resulting 
# from the CCDC's data processing and validation procedures.
#
#######################################################################

data_BACMOH
_symmetry_cell_setting           orthorhombic
_symmetry_space_group_name_H-M   'P 21 21 21'
_symmetry_Int_Tables_number      19
_space_group_name_Hall           'P 2ac 2ab'
loop_
_symmetry_equiv_pos_site_id
_symmetry_equiv_pos_as_xyz
1 x,y,z
2 1/2+x,1/2-y,-z
3 -x,1/2+y,1/2-z
4 1/2-x,-y,1/2+z
_cell_length_a                   16.049(2)
_cell_length_b                   9.622(1)
_cell_length_c                   7.465(1)
_cell_angle_alpha                90
_cell_angle_beta                 90
_cell_angle_gamma                90
_cell_volume                     1152.77
loop_
_atom_site_label
_atom_site_type_symbol
_atom_site_fract_x
_atom_site_fract_y
_atom_site_fract_z
Cu1 Cu 0.33440 -0.15830 -0.24020
O1 O 0.25900 0.18430 -0.49680
O2 O 0.27020 -0.03230 -0.40120
O3 O 0.58130 0.22810 -0.37540
O4 O 0.49810 0.29350 -0.16330
C1 C 0.28740 0.09340 -0.40190
C2 C 0.36190 0.13750 -0.28890
N1 N 0.37310 0.02400 -0.14790
C3 C 0.43950 0.16060 -0.39640
C4 C 0.51000 0.22900 -0.30390
N2 N 0.27840 -0.32380 -0.34240
C5 C 0.30990 -0.44740 -0.37960
N3 N 0.24840 -0.53570 -0.43170
C6 C 0.17730 -0.45970 -0.42600
C7 C 0.19440 -0.33120 -0.37410
Cu1C Cu 0.16560 0.15830 -0.74020
Cu1B Cu 0.66560 0.34170 -0.25980
O1C O 0.24100 -0.18430 0.00320
O3B O 0.41870 -0.27190 -0.12460
O5 O 0.48340 0.50050 -0.60400
O6 O 0.05560 0.20720 -0.19620
loop_
_geom_bond_atom_site_label_1
_geom_bond_atom_site_label_2
_geom_bond_site_symmetry_1
_geom_bond_site_symmetry_2
Cu1 O2 1_555 1_555
O1 C1 1_555 1_555
O2 C1 1_555 1_555
O3 C4 1_555 1_555
O4 C4 1_555 1_555
C1 C2 1_555 1_555
C2 N1 1_555 1_555
N1 Cu1 1_555 1_555
C3 C2 1_555 1_555
C4 C3 1_555 1_555
N2 Cu1 1_555 1_555
C5 N2 1_555 1_555
N3 C5 1_555 1_555
C6 N3 1_555 1_555
C7 N2 1_555 1_555
Cu1C O1 1_555 1_555
Cu1B O3 1_555 1_555
O1C Cu1 1_555 1_555
O3B Cu1 1_555 1_555
C6 C7 1_555 1_555

#END
