
#######################################################################
#
#                 Cambridge Crystallographic Data Centre
#                                CCDC 
#
#######################################################################
#
# If this CIF has been generated from an entry in the Cambridge 
# Structural Database, then it will include bibliographic, chemical, 
# crystal, experimental, refinement or atomic coordinate data resulting 
# from the CCDC's data processing and validation procedures.
#
#######################################################################

data_BADCAM
_symmetry_cell_setting           triclinic
_symmetry_space_group_name_H-M   'P -1'
_symmetry_Int_Tables_number      2
_space_group_name_Hall           '-P 1'
loop_
_symmetry_equiv_pos_site_id
_symmetry_equiv_pos_as_xyz
1 x,y,z
2 -x,-y,-z
_cell_length_a                   7.1017(14)
_cell_length_b                   8.5861(17)
_cell_length_c                   11.326(2)
_cell_angle_alpha                102.57(3)
_cell_angle_beta                 92.56(3)
_cell_angle_gamma                109.14(3)
_cell_volume                     631.737
loop_
_atom_site_label
_atom_site_type_symbol
_atom_site_fract_x
_atom_site_fract_y
_atom_site_fract_z
Cd1 Cd 0.205854(19) 0.198972(16) 0.607013(12)
O1 O 0.5529(3) 0.2867(2) 0.60289(17)
N1 N 0.2487(2) 0.3998(2) 0.79120(14)
N2 N 0.3726(2) 0.6303(2) 0.94450(15)
H1 H 0.4401 0.7334 0.9831
N3 N 0.4171(2) 0.81958(19) 0.74932(14)
N4 N 0.5052(3) 0.9572(2) 0.84228(16)
N5 N 0.4380(3) 1.0734(2) 0.82394(17)
N6 N 0.3066(3) 1.0139(2) 0.71900(16)
C1 C 0.1788(3) 0.3596(2) 0.89837(17)
C2 C 0.0470(3) 0.2086(3) 0.91701(19)
H2 H -0.0075 0.1115 0.8534
C3 C 0.0010(3) 0.2098(3) 1.0347(2)
H3 H -0.0864 0.1110 1.0502
C4 C 0.0819(3) 0.3550(3) 1.13072(19)
H4 H 0.0486 0.3497 1.2086
C5 C 0.2097(3) 0.5058(3) 1.11301(18)
H5 H 0.2621 0.6033 1.1764
C6 C 0.2559(3) 0.5038(2) 0.99454(17)
C7 C 0.3614(3) 0.5623(2) 0.82395(17)
C8 C 0.4674(3) 0.6648(2) 0.73997(18)
H6 H 0.6113 0.6961 0.7598
H7 H 0.4302 0.5961 0.6567
C9 C 0.2971(3) 0.8567(2) 0.67532(18)
H8 H 0.2190 0.7831 0.6041
Cl1 Cl -0.17883(7) 0.04756(6) 0.59615(4)
Cl2 Cl 0.18314(8) 0.39042(7) 0.46957(5)
H9 H 0.610(4) 0.237(4) 0.604(3)
H10 H 0.619(5) 0.372(4) 0.583(3)
Cd1_2 Cd 0.205854(19) 1.198972(16) 0.607013(12)
Cd1A Cd -0.205854(19) -0.198972(16) 0.392987(12)
N6_2 N 0.3066(3) 0.0139(2) 0.71900(16)
Cl1A Cl 0.17883(7) -0.04756(6) 0.40385(4)
loop_
_geom_bond_atom_site_label_1
_geom_bond_atom_site_label_2
_geom_bond_site_symmetry_1
_geom_bond_site_symmetry_2
Cd1 O1 1_555 1_555
O1 H9 1_555 1_555
N1 Cd1 1_555 1_555
N2 H1 1_555 1_555
N3 N4 1_555 1_555
N4 N5 1_555 1_555
N5 N6 1_555 1_555
N6 C9 1_555 1_555
C1 N1 1_555 1_555
C2 C1 1_555 1_555
H2 C2 1_555 1_555
C3 C2 1_555 1_555
H3 C3 1_555 1_555
C4 C3 1_555 1_555
H4 C4 1_555 1_555
C5 C4 1_555 1_555
H5 C5 1_555 1_555
C6 N2 1_555 1_555
C7 N1 1_555 1_555
C8 N3 1_555 1_555
H6 C8 1_555 1_555
H7 C8 1_555 1_555
C9 N3 1_555 1_555
H8 C9 1_555 1_555
Cl1 Cd1 1_555 1_555
Cl2 Cd1 1_555 1_555
H10 O1 1_555 1_555
Cd1_2 N6 1_555 1_555
Cd1A Cl1 1_555 1_555
N6_2 Cd1 1_555 1_555
Cl1A Cd1 1_555 1_555
N2 C7 1_555 1_555
C1 C6 1_555 1_555
C5 C6 1_555 1_555
C7 C8 1_555 1_555
Cd1A Cl1A 1_555 1_555

#END
