
#######################################################################
#
#                 Cambridge Crystallographic Data Centre
#                                CCDC 
#
#######################################################################
#
# If this CIF has been generated from an entry in the Cambridge 
# Structural Database, then it will include bibliographic, chemical, 
# crystal, experimental, refinement or atomic coordinate data resulting 
# from the CCDC's data processing and validation procedures.
#
#######################################################################

data_BAHGUN01
_symmetry_cell_setting           monoclinic
_symmetry_space_group_name_H-M   'C c'
_symmetry_Int_Tables_number      9
_space_group_name_Hall           'C -2yc'
loop_
_symmetry_equiv_pos_site_id
_symmetry_equiv_pos_as_xyz
1 x,y,z
2 x,-y,1/2+z
3 1/2+x,1/2+y,z
4 1/2+x,1/2-y,1/2+z
_cell_length_a                   4.9579(4)
_cell_length_b                   25.0785(20)
_cell_length_c                   10.9881(9)
_cell_angle_alpha                90
_cell_angle_beta                 98.068(1)
_cell_angle_gamma                90
_cell_volume                     1352.7
loop_
_atom_site_label
_atom_site_type_symbol
_atom_site_fract_x
_atom_site_fract_y
_atom_site_fract_z
Cu1 Cu 0.05679(4) 0.113269(9) 0.78373(3)
O1 O -0.1279(5) 0.17062(10) 0.6785(2)
O2 O 0.1884(5) 0.15860(8) 0.5551(2)
O3 O 0.2938(5) 0.06069(8) 0.87844(19)
O4 O 0.6945(4) 0.10303(7) 0.88772(19)
N1 N -0.2928(6) 0.32529(12) 0.3915(3)
N2 N 0.8987(5) -0.05545(11) 1.1661(2)
C1 C -0.3952(7) 0.31016(13) 0.4929(3)
H5 H -0.5299 0.3315 0.5207
C2 C -0.3120(8) 0.26481(13) 0.5579(3)
H6 H -0.3888 0.2556 0.6285
C3 C -0.1128(7) 0.23276(13) 0.5178(3)
C4 C -0.0043(6) 0.24837(10) 0.4131(3)
H7 H 0.1309 0.2277 0.3837
C5 C -0.0977(6) 0.29469(10) 0.3528(2)
H8 H -0.0227 0.3052 0.2825
C6 C -0.0081(7) 0.18285(12) 0.5879(3)
C7 C 0.6668(6) -0.06441(10) 1.0902(3)
H9 H 0.5826 -0.0979 1.0926
C8 C 0.5461(6) -0.02653(11) 1.0085(3)
H10 H 0.3815 -0.0342 0.9579
C9 C 0.6705(6) 0.02297(10) 1.0019(3)
C10 C 0.9117(6) 0.03222(10) 1.0804(3)
H11 H 1.0031 0.0650 1.0781
C11 C 1.0154(6) -0.00720(10) 1.1615(3)
H12 H 1.1748 0.0000 1.2161
C12 C 0.5478(6) 0.06609(9) 0.9156(2)
O4_2 O -0.3055(4) 0.10303(7) 0.88772(19)
N1C N 0.2072(6) 0.17471(12) 0.8915(3)
N2A N -0.1013(5) 0.05545(11) 0.6661(2)
Cu1_2 Cu 1.05679(4) 0.113269(9) 0.78373(3)
Cu1C Cu -0.44321(4) 0.386731(9) 0.28373(3)
Cu1A Cu 1.05679(4) -0.113269(9) 1.28373(3)
O5 O 0.6852(7) 0.38037(14) 0.8142(3)
H1 H 0.7050 0.3660 0.8950
H2 H 0.5085 0.3751 0.7698
O6 O 1.1479(8) 0.35694(19) 0.7071(4)
H3 H 1.0104 0.3596 0.7590
H4 H 1.1207 0.3807 0.6391
loop_
_geom_bond_atom_site_label_1
_geom_bond_atom_site_label_2
_geom_bond_site_symmetry_1
_geom_bond_site_symmetry_2
Cu1 O1 1_555 1_555
O1 C6 1_555 1_555
O2 C6 1_555 1_555
O3 Cu1 1_555 1_555
O4 C12 1_555 1_555
O5 H1 1_555 1_555
H2 O5 1_555 1_555
O6 H3 1_555 1_555
H4 O6 1_555 1_555
N1 C1 1_555 1_555
N2 C7 1_555 1_555
C1 H5 1_555 1_555
C2 C1 1_555 1_555
H6 C2 1_555 1_555
C3 C2 1_555 1_555
C4 C3 1_555 1_555
H7 C4 1_555 1_555
C5 N1 1_555 1_555
H8 C5 1_555 1_555
C6 C3 1_555 1_555
C7 H9 1_555 1_555
C8 C7 1_555 1_555
H10 C8 1_555 1_555
C9 C8 1_555 1_555
C10 C9 1_555 1_555
H11 C10 1_555 1_555
C11 N2 1_555 1_555
H12 C11 1_555 1_555
C12 O3 1_555 1_555
O4_2 Cu1 1_555 1_555
N1C Cu1 1_555 1_555
N2A Cu1 1_555 1_555
Cu1_2 O4 1_555 1_555
Cu1C N1 1_555 1_555
Cu1A N2 1_555 1_555
C4 C5 1_555 1_555
C9 C12 1_555 1_555
C10 C11 1_555 1_555

#END
