
#######################################################################
#
#                 Cambridge Crystallographic Data Centre
#                                CCDC 
#
#######################################################################
#
# If this CIF has been generated from an entry in the Cambridge 
# Structural Database, then it will include bibliographic, chemical, 
# crystal, experimental, refinement or atomic coordinate data resulting 
# from the CCDC's data processing and validation procedures.
#
#######################################################################

data_BARZAW
_symmetry_cell_setting           rhombohedral
_symmetry_space_group_name_H-M   'R -3 c'
_symmetry_Int_Tables_number      167
_space_group_name_Hall           '-R 3 2"c'
loop_
_symmetry_equiv_pos_site_id
_symmetry_equiv_pos_as_xyz
1 x,y,z
2 -y,x-y,z
3 -x+y,-x,z
4 y,x,1/2-z
5 2/3+x,1/3+y,1/3+z
6 2/3-y,1/3+x-y,1/3+z
7 2/3-x+y,1/3-x,1/3+z
8 2/3+y,1/3+x,5/6-z
9 1/3+x,2/3+y,2/3+z
10 1/3+y,2/3+x,1/6-z
11 x-y,-y,1/2-z
12 -x,-x+y,1/2-z
13 1/3-y,2/3+x-y,2/3+z
14 1/3-x+y,2/3-x,2/3+z
15 1/3+x-y,2/3-y,1/6-z
16 1/3-x,2/3-x+y,1/6-z
17 2/3+x-y,1/3-y,5/6-z
18 2/3-x,1/3-x+y,5/6-z
19 -x,-y,-z
20 y,-x+y,-z
21 x-y,x,-z
22 -y,-x,1/2+z
23 1/3-x,2/3-y,2/3-z
24 1/3+y,2/3-x+y,2/3-z
25 1/3+x-y,2/3+x,2/3-z
26 1/3-y,2/3-x,1/6+z
27 2/3-x,1/3-y,1/3-z
28 2/3-y,1/3-x,5/6+z
29 -x+y,y,1/2+z
30 x,x-y,1/2+z
31 2/3+y,1/3-x+y,1/3-z
32 2/3+x-y,1/3+x,1/3-z
33 2/3-x+y,1/3+y,5/6+z
34 2/3+x,1/3+x-y,5/6+z
35 1/3-x+y,2/3+y,1/6+z
36 1/3+x,2/3+x-y,1/6+z
_cell_length_a                   30.2394(11)
_cell_length_b                   30.2394(11)
_cell_length_c                   18.2791(13)
_cell_angle_alpha                90
_cell_angle_beta                 90
_cell_angle_gamma                120
_cell_volume                     14475.4
loop_
_atom_site_label
_atom_site_type_symbol
_atom_site_fract_x
_atom_site_fract_y
_atom_site_fract_z
Zn1 Zn 0.448690(11) -0.028610(11) 0.037120(16)
O1 O 0.41721(8) -0.02192(8) -0.05774(10)
O2 O 0.46760(8) 0.04388(8) 0.06274(12)
O3 O 0.49359(8) 0.01665(8) -0.11238(11)
O4 O 0.54431(8) 0.08611(8) 0.00832(11)
N1 N 0.39116(9) -0.07088(9) 0.10974(12)
C1 C 0.44584(11) -0.00269(10) -0.11245(14)
C2 C 0.42098(10) -0.00245(10) -0.18393(14)
C3 C 0.37423(11) -0.00398(11) -0.18431(14)
H1 H 0.3566 -0.0077 -0.1397
C4 C 0.44513(12) 0.0000 -0.2500
H2 H 0.4765 0.0000 -0.2500
C5 C 0.35333(13) 0.0000 -0.2500
H3 H 0.3219 0.0000 -0.2500
C6 C 0.50742(11) 0.08366(11) 0.04375(14)
C7 C 0.51062(10) 0.13331(10) 0.06396(14)
C8 C 0.46602(13) 0.13268(13) 0.0833
H4 H 0.4346 0.1013 0.0833
C9 C 0.55642(11) 0.17957(11) 0.06197(16)
H5 H 0.5868 0.1806 0.0460
C10 C 0.55766(14) 0.22433(14) 0.0833
H6 H 0.5891 0.2557 0.0833
C11 C 0.25817(13) -0.20738(13) 0.06003(18)
H7 H 0.2285 -0.2387 0.0479
C12 C 0.32510(12) -0.12852(12) 0.22242(16)
H8 H 0.3030 -0.1481 0.2612
C13 C 0.36822(12) -0.08345(13) 0.23717(15)
H9 H 0.3762 -0.0709 0.2859
C14 C 0.40059(11) -0.05589(11) 0.17902(15)
H10 H 0.4309 -0.0248 0.1898
C15 C 0.29166(12) -0.17647(12) 0.00442(17)
H11 H 0.2839 -0.1872 -0.0451
C16 C 0.31318(11) -0.14618(11) 0.14990(15)
C17 C 0.26843(12) -0.19230(12) 0.13105(18)
H12 H 0.2454 -0.2129 0.1683
C18 C 0.34702(10) -0.11587(10) 0.09348(15)
C19 C 0.33499(11) -0.13147(11) 0.02005(15)
H13 H 0.3568 -0.1109 -0.0183
C3J C 0.37821(16) 0.00398(11) -0.31569(14)
C2J C 0.42343(14) 0.00245(10) -0.31607(14)
C1J C 0.44853(15) 0.00269(10) -0.38755(14)
O1J O 0.43913(11) 0.02192(8) -0.44226(10)
O3J O 0.47694(11) -0.01665(8) -0.38762(11)
H1J H 0.3643 0.0077 -0.3603
C7I C 0.46664(10) 0.17729(10) 0.10271(14)
C6I C 0.41699(11) 0.17409(11) 0.12292(14)
O2I O 0.37721(8) 0.13427(8) 0.10393(12)
O4I O 0.41944(8) 0.21098(8) 0.15835(11)
C9I C 0.51290(11) 0.22309(11) 0.10470(16)
H5I H 0.5139 0.2535 0.1207
Zn1J Zn 0.477300(16) 0.028610(11) -0.537120(16)
N1J N 0.46204(13) 0.07088(9) -0.60974(12)
C11J C 0.46555(18) 0.20738(13) -0.56003(18)
H7J H 0.4672 0.2387 -0.5479
C12J C 0.45362(17) 0.12852(12) -0.72242(16)
H8J H 0.4511 0.1481 -0.7612
C13J C 0.45167(18) 0.08345(13) -0.73717(15)
H9J H 0.4471 0.0709 -0.7859
C14J C 0.45648(16) 0.05589(11) -0.67902(15)
H10J H 0.4557 0.0248 -0.6898
C15J C 0.46813(17) 0.17647(12) -0.50442(17)
H11J H 0.4711 0.1872 -0.4549
C16J C 0.45936(16) 0.14618(11) -0.64990(15)
C17J C 0.46073(17) 0.19230(12) -0.63105(18)
H12J H 0.4583 0.2129 -0.6683
C18J C 0.46289(14) 0.11587(10) -0.59348(15)
C19J C 0.46646(16) 0.13147(11) -0.52005(15)
H13J H 0.4677 0.1109 -0.4817
Zn1R Zn 0.551310(11) 0.028610(11) -0.037120(16)
O3R O 0.50641(8) -0.01665(8) 0.11238(11)
O4R O 0.45569(8) -0.08611(8) -0.00832(11)
Zn1BA Zn 0.522700(16) -0.028610(11) -0.462880(16)
Zn1I Zn 0.304723(11) 0.115357(11) 0.129547(16)
Zn1Y Zn 0.361943(11) 0.217977(11) 0.203787(16)
O2J O 0.42372(11) -0.04388(8) -0.56274(12)
O3BA O 0.52306(11) 0.01665(8) -0.61238(11)
O4BA O 0.54180(11) 0.08611(8) -0.49168(11)
O5 O 0.3352(5) -0.2708(5) 0.0141(7)
O6? O 0.2497(9) -0.3056(8) 0.2204(12)
O7? O 0.3319(5) -0.2635(5) 0.0845(7)
O8? O 0.2801(5) -0.3022(5) 0.1963(7)
O9? O 0.2908(7) -0.2968(7) 0.1278(10)
O10? O 0.3333 -0.3333 -0.0136(15)
O11? O 0.3177(11) -0.2856(11) 0.2255(15)
loop_
_geom_bond_atom_site_label_1
_geom_bond_atom_site_label_2
_geom_bond_site_symmetry_1
_geom_bond_site_symmetry_2
Zn1 O1 1_555 1_555
O1 C1 1_555 1_555
O2 Zn1 1_555 1_555
O3 C1 1_555 1_555
O4 C6 1_555 1_555
N1 Zn1 1_555 1_555
C1 C2 1_555 1_555
C2 C3 1_555 1_555
C3 H1 1_555 1_555
C4 C2 1_555 1_555
H2 C4 1_555 1_555
C5 C3 1_555 1_555
H3 C5 1_555 1_555
C6 O2 1_555 1_555
C7 C6 1_555 1_555
C8 C7 1_555 1_555
H4 C8 1_555 1_555
C9 C7 1_555 1_555
H5 C9 1_555 1_555
C10 C9 1_555 1_555
H6 C10 1_555 1_555
C11 H7 1_555 1_555
C12 H8 1_555 1_555
C13 C12 1_555 1_555
H9 C13 1_555 1_555
C14 N1 1_555 1_555
H10 C14 1_555 1_555
C15 C11 1_555 1_555
H11 C15 1_555 1_555
C16 C12 1_555 1_555
C17 C11 1_555 1_555
H12 C17 1_555 1_555
C18 N1 1_555 1_555
C19 C15 1_555 1_555
H13 C19 1_555 1_555
C3J C5 1_555 1_555
C2J C4 1_555 1_555
C1J C2J 1_555 1_555
O1J C1J 1_555 1_555
O3J C1J 1_555 1_555
H1J C3J 1_555 1_555
C7I C8 1_555 1_555
C6I C7I 1_555 1_555
O2I C6I 1_555 1_555
O4I C6I 1_555 1_555
C9I C10 1_555 1_555
H5I C9I 1_555 1_555
Zn1J O1J 1_555 1_555
N1J Zn1J 1_555 1_555
C11J H7J 1_555 1_555
C12J H8J 1_555 1_555
C13J C12J 1_555 1_555
H9J C13J 1_555 1_555
C14J N1J 1_555 1_555
H10J C14J 1_555 1_555
C15J C11J 1_555 1_555
H11J C15J 1_555 1_555
C16J C12J 1_555 1_555
C17J C11J 1_555 1_555
H12J C17J 1_555 1_555
C18J N1J 1_555 1_555
C19J C15J 1_555 1_555
H13J C19J 1_555 1_555
Zn1R Zn1 1_555 1_555
O3R Zn1 1_555 1_555
O4R Zn1 1_555 1_555
Zn1BA O3J 1_555 1_555
Zn1I O2I 1_555 1_555
Zn1Y O4I 1_555 1_555
O2J Zn1J 1_555 1_555
O3BA Zn1J 1_555 1_555
O4BA Zn1J 1_555 1_555
O3 Zn1R 1_555 1_555
O4 Zn1R 1_555 1_555
C13 C14 1_555 1_555
C16 C17 1_555 1_555
C16 C18 1_555 1_555
C18 C19 1_555 1_555
C3J C2J 1_555 1_555
C7I C9I 1_555 1_555
Zn1J Zn1BA 1_555 1_555
C13J C14J 1_555 1_555
C16J C17J 1_555 1_555
C16J C18J 1_555 1_555
C18J C19J 1_555 1_555
Zn1I Zn1Y 1_555 1_555

#END
