
#######################################################################
#
#                 Cambridge Crystallographic Data Centre
#                                CCDC 
#
#######################################################################
#
# If this CIF has been generated from an entry in the Cambridge 
# Structural Database, then it will include bibliographic, chemical, 
# crystal, experimental, refinement or atomic coordinate data resulting 
# from the CCDC's data processing and validation procedures.
#
#######################################################################

data_BARZIE
_symmetry_cell_setting           rhombohedral
_symmetry_space_group_name_H-M   'R -3 c'
_symmetry_Int_Tables_number      167
_space_group_name_Hall           '-R 3 2"c'
loop_
_symmetry_equiv_pos_site_id
_symmetry_equiv_pos_as_xyz
1 x,y,z
2 -y,x-y,z
3 -x+y,-x,z
4 y,x,1/2-z
5 2/3+x,1/3+y,1/3+z
6 2/3-y,1/3+x-y,1/3+z
7 2/3-x+y,1/3-x,1/3+z
8 2/3+y,1/3+x,5/6-z
9 1/3+x,2/3+y,2/3+z
10 1/3+y,2/3+x,1/6-z
11 -x+y,y,1/2+z
12 x,x-y,1/2+z
13 2/3+y,1/3-x+y,1/3-z
14 2/3+x-y,1/3+x,1/3-z
15 2/3-x+y,1/3+y,5/6+z
16 2/3+x,1/3+x-y,5/6+z
17 1/3-x+y,2/3+y,1/6+z
18 1/3+x,2/3+x-y,1/6+z
19 -x,-y,-z
20 y,-x+y,-z
21 x-y,x,-z
22 -y,-x,1/2+z
23 1/3-x,2/3-y,2/3-z
24 1/3+y,2/3-x+y,2/3-z
25 1/3+x-y,2/3+x,2/3-z
26 1/3-y,2/3-x,1/6+z
27 2/3-x,1/3-y,1/3-z
28 2/3-y,1/3-x,5/6+z
29 x-y,-y,1/2-z
30 -x,-x+y,1/2-z
31 1/3-y,2/3+x-y,2/3+z
32 1/3-x+y,2/3-x,2/3+z
33 1/3+x-y,2/3-y,1/6-z
34 1/3-x,2/3-x+y,1/6-z
35 2/3+x-y,1/3-y,5/6-z
36 2/3-x,1/3-x+y,5/6-z
_cell_length_a                   30.3087(15)
_cell_length_b                   30.3087(15)
_cell_length_c                   18.3364(13)
_cell_angle_alpha                90
_cell_angle_beta                 90
_cell_angle_gamma                120.00
_cell_volume                     14587.4
loop_
_atom_site_label
_atom_site_type_symbol
_atom_site_fract_x
_atom_site_fract_y
_atom_site_fract_z
Co1 Co 0.306224(16) 0.188734(16) 0.13346(2)
N1 N 0.26346(10) 0.20331(10) 0.05834(14)
O1 O 0.31738(9) 0.14345(9) 0.05477(12)
O2 O 0.37697(8) 0.24265(8) 0.10374(13)
O3 O 0.35600(9) 0.10559(9) 0.10842(12)
O4 O 0.41948(8) 0.20932(8) 0.15963(12)
C1 C 0.20185(13) 0.19841(13) 0.14589(19)
H1 H 0.2217 0.1964 0.1845
C2 C 0.41711(12) 0.24335(12) 0.12336(17)
C3 C 0.33603(11) 0.09007(11) -0.01744(17)
C4 C 0.46595(14) 0.3333 0.0833
H2 H 0.4346 0.3333 0.0833
C5 C 0.21832(12) 0.20259(12) 0.07315(18)
C6 C 0.33753(12) 0.04462(12) -0.01830(18)
H3 H 0.3415 0.0308 0.0261
C7 C 0.3333 0.11111(14) -0.0833
H4 H 0.3332 0.1424 -0.0833
C8 C 0.33661(12) 0.11496(12) 0.05345(17)
C9 C 0.3334 0.02001(14) -0.0833
H5 H 0.3334 -0.0113 -0.0833
C10 C 0.46644(12) 0.28973(11) 0.10287(17)
C11 C 0.18877(13) 0.20658(13) 0.0163(2)
C12 C 0.20724(14) 0.21294(14) -0.0552(2)
H6 H 0.1884 0.2162 -0.0942
C13 C 0.25190(15) 0.21451(14) -0.06880(19)
H7 H 0.2649 0.2192 -0.1170
C14 C 0.27854(13) 0.20909(12) -0.01014(18)
H8 H 0.3095 0.2096 -0.0205
C15 C 0.14286(13) 0.20543(14) 0.0345(2)
H9 H 0.1228 0.2082 -0.0031
C16 C 0.15686(14) 0.19724(14) 0.1604(2)
H10 H 0.1457 0.1942 0.2095
C17 C 0.55694(16) 0.3333 0.0833
H11 H 0.5883 0.3333 0.0833
C18 C 0.51247(12) 0.29007(12) 0.10508(19)
H12 H 0.5135 0.2608 0.1214
C19 C 0.12713(14) 0.20042(15) 0.1047(2)
H13 H 0.0959 0.1991 0.1160
C6IA C 0.32914(12) 0.04042(17) -0.14837(18)
C3IA C 0.33064(11) 0.08737(16) -0.14923(17)
C8IA C 0.33006(12) 0.11168(17) -0.22012(17)
O1IA O 0.34929(9) 0.15940(13) -0.22144(12)
O3IA O 0.31067(9) 0.08292(13) -0.27509(12)
H3IA H 0.3252 0.0226 -0.1928
C10FA C 0.51004(16) 0.37694(11) 0.06380(17)
C2FA C 0.50709(17) 0.42332(12) 0.04331(17)
O2FA O 0.46765(11) 0.42402(8) 0.06293(13)
O4FA O 0.54349(11) 0.45735(8) 0.00704(12)
C18FA C 0.55573(17) 0.37660(12) 0.06159(19)
H12FA H 0.5860 0.4059 0.0453
Co1IA Co 0.360443(16) 0.215843(23) -0.30013(2)
N1IA N 0.40321(10) 0.27318(14) -0.22501(14)
C1IA C 0.46482(13) 0.32989(18) -0.31256(19)
H1IA H 0.4450 0.3080 -0.3512
C5IA C 0.44835(12) 0.31760(17) -0.23982(18)
C11IA C 0.47790(13) 0.35114(18) -0.1830(2)
C12IA C 0.45943(14) 0.33903(20) -0.1115(2)
H6IA H 0.4783 0.3611 -0.0725
C13IA C 0.41477(15) 0.29594(21) -0.09787(19)
H7IA H 0.4018 0.2876 -0.0497
C14IA C 0.38813(13) 0.26388(18) -0.15653(18)
H8IA H 0.3572 0.2334 -0.1462
C15IA C 0.52381(13) 0.39590(19) -0.2012(2)
H9IA H 0.5439 0.4187 -0.1636
C16IA C 0.50981(14) 0.37371(20) -0.3271(2)
H10IA H 0.5210 0.3818 -0.3762
C19IA C 0.53954(14) 0.40662(21) -0.2714(2)
H13IA H 0.5708 0.4365 -0.2827
Co1Z Co 0.360443(16) 0.144599(16) 0.19987(2)
O3Z O 0.31067(9) 0.22774(9) 0.22491(12)
O4Z O 0.24719(8) 0.12401(8) 0.17370(12)
Co1K Co 0.306224(16) 0.117490(23) -0.36654(2)
Co1FA Co 0.450823(23) 0.477933(16) 0.03321(2)
Co1N Co 0.549177(23) 0.522067(16) -0.03321(2)
O2IA O 0.28970(8) 0.19901(11) -0.27041(13)
O3K O 0.35600(9) 0.25041(13) -0.39158(12)
O4K O 0.41948(8) 0.21016(11) -0.34037(12)
O7 O 0.3333 0.6667 -0.0205(17)
O5? O 0.2861(8) 0.5838(6) 0.2002(10)
O6? O 0.3342(5) 0.6087(6) 0.0090(8)
O8? O 0.3370(7) 0.5993(7) 0.0814(11)
O9? O 0.2539(13) 0.5889(13) 0.149(2)
O10? O 0.2927(9) 0.5872(7) 0.1258(12)
O11? O 0.2983(9) 0.6474(11) 0.0232(15)
O12? O 0.2858(9) 0.6216(9) 0.0983(13)
O13? O 0.2545(11) 0.5584(11) 0.2181(16)
loop_
_geom_bond_atom_site_label_1
_geom_bond_atom_site_label_2
_geom_bond_site_symmetry_1
_geom_bond_site_symmetry_2
Co1 N1 1_555 1_555
N1 C5 1_555 1_555
O1 Co1 1_555 1_555
O2 Co1 1_555 1_555
O3 C8 1_555 1_555
O4 C2 1_555 1_555
C1 H1 1_555 1_555
C2 O2 1_555 1_555
C3 C6 1_555 1_555
C4 H2 1_555 1_555
C5 C1 1_555 1_555
C6 H3 1_555 1_555
C7 C3 1_555 1_555
H4 C7 1_555 1_555
C8 O1 1_555 1_555
C9 C6 1_555 1_555
H5 C9 1_555 1_555
C10 C2 1_555 1_555
C11 C5 1_555 1_555
C12 C11 1_555 1_555
H6 C12 1_555 1_555
C13 C12 1_555 1_555
H7 C13 1_555 1_555
C14 N1 1_555 1_555
H8 C14 1_555 1_555
C15 C11 1_555 1_555
H9 C15 1_555 1_555
C16 C1 1_555 1_555
H10 C16 1_555 1_555
C17 H11 1_555 1_555
C18 C10 1_555 1_555
H12 C18 1_555 1_555
C19 C15 1_555 1_555
H13 C19 1_555 1_555
C6IA C9 1_555 1_555
C3IA C7 1_555 1_555
C8IA C3IA 1_555 1_555
O1IA C8IA 1_555 1_555
O3IA C8IA 1_555 1_555
H3IA C6IA 1_555 1_555
C10FA C4 1_555 1_555
C2FA C10FA 1_555 1_555
O2FA C2FA 1_555 1_555
O4FA C2FA 1_555 1_555
C18FA C17 1_555 1_555
H12FA C18FA 1_555 1_555
Co1IA O1IA 1_555 1_555
N1IA Co1IA 1_555 1_555
C1IA H1IA 1_555 1_555
C5IA N1IA 1_555 1_555
C11IA C5IA 1_555 1_555
C12IA C11IA 1_555 1_555
H6IA C12IA 1_555 1_555
C13IA C12IA 1_555 1_555
H7IA C13IA 1_555 1_555
C14IA N1IA 1_555 1_555
H8IA C14IA 1_555 1_555
C15IA C11IA 1_555 1_555
H9IA C15IA 1_555 1_555
C16IA C1IA 1_555 1_555
H10IA C16IA 1_555 1_555
C19IA C15IA 1_555 1_555
H13IA C19IA 1_555 1_555
Co1Z Co1 1_555 1_555
O3Z Co1 1_555 1_555
O4Z Co1 1_555 1_555
Co1K O3IA 1_555 1_555
Co1FA O2FA 1_555 1_555
Co1N O4FA 1_555 1_555
O2IA Co1IA 1_555 1_555
O3K Co1IA 1_555 1_555
O4K Co1IA 1_555 1_555
O3 Co1Z 1_555 1_555
O4 Co1Z 1_555 1_555
C3 C8 1_555 1_555
C4 C10 1_555 1_555
C13 C14 1_555 1_555
C16 C19 1_555 1_555
C17 C18 1_555 1_555
C6IA C3IA 1_555 1_555
C10FA C18FA 1_555 1_555
Co1IA Co1K 1_555 1_555
C1IA C5IA 1_555 1_555
C13IA C14IA 1_555 1_555
C16IA C19IA 1_555 1_555
Co1FA Co1N 1_555 1_555

#END
