
#######################################################################
#
#                 Cambridge Crystallographic Data Centre
#                                CCDC 
#
#######################################################################
#
# If this CIF has been generated from an entry in the Cambridge 
# Structural Database, then it will include bibliographic, chemical, 
# crystal, experimental, refinement or atomic coordinate data resulting 
# from the CCDC's data processing and validation procedures.
#
#######################################################################

data_BASTUM
_symmetry_cell_setting           orthorhombic
_symmetry_space_group_name_H-M   'P c c n'
_symmetry_Int_Tables_number      56
_space_group_name_Hall           '-P 2ab 2ac'
loop_
_symmetry_equiv_pos_site_id
_symmetry_equiv_pos_as_xyz
1 x,y,z
2 1/2-x,1/2-y,z
3 -x,1/2+y,1/2-z
4 1/2+x,-y,1/2-z
5 -x,-y,-z
6 1/2+x,1/2+y,-z
7 x,1/2-y,1/2+z
8 1/2-x,y,1/2+z
_cell_length_a                   25.370(5)
_cell_length_b                   8.4884(17)
_cell_length_c                   17.806(4)
_cell_angle_alpha                90
_cell_angle_beta                 90
_cell_angle_gamma                90
_cell_volume                     3834.53
loop_
_atom_site_label
_atom_site_type_symbol
_atom_site_fract_x
_atom_site_fract_y
_atom_site_fract_z
Ho1 Ho -0.023360(7) -0.16574(2) 0.217510(9)
Ag1 Ag 0.272690(13) 0.53837(5) 0.04826(2)
O1 O -0.02106(10) -0.0779(3) 0.33884(15)
O2 O 0.02401(11) 0.1361(3) 0.37118(16)
O3 O 0.05985(10) -0.2244(3) 0.25989(15)
O4 O 0.07975(12) -0.4578(3) 0.30828(18)
O5 O 0.02522(11) -0.0646(4) 0.11239(16)
O6 O 0.03099(10) 0.0881(3) 0.21145(14)
O7 O 0.11021(11) 0.2522(4) 0.28540(14)
O8 O 0.16337(15) 0.0503(5) 0.26565(19)
N1 N 0.10972(13) -0.1251(4) 0.61071(18)
H1 H 0.0963 -0.0598 0.6423
N2 N 0.16045(14) -0.3146(4) 0.56548(19)
N3 N 0.20822(13) 0.4005(5) 0.00945(19)
N4 N 0.14745(14) 0.3008(4) -0.06521(19)
H2 H 0.1307 0.2792 -0.1059
C1 C 0.01728(15) -0.0102(5) 0.3707(2)
C2 C 0.05565(15) -0.1054(5) 0.4168(2)
C3 C 0.06259(15) -0.0535(5) 0.4897(2)
H3 H 0.0451 0.0353 0.5074
C4 C 0.09666(16) -0.1383(5) 0.5358(2)
C5 C 0.14719(16) -0.2323(5) 0.6256(2)
H4 H 0.1621 -0.2469 0.6728
C6 C 0.12750(15) -0.2607(5) 0.5079(2)
C7 C 0.12001(17) -0.3157(5) 0.4355(2)
H5 H 0.1393 -0.4011 0.4176
C8 C 0.08310(15) -0.2411(5) 0.3900(2)
C9 C 0.07337(15) -0.3108(5) 0.3141(2)
C10 C 0.04665(16) 0.0480(5) 0.1460(2)
C11 C 0.09230(15) 0.1340(5) 0.1121(2)
C12 C 0.09316(16) 0.1583(5) 0.0344(2)
H6 H 0.0671 0.1172 0.0033
C13 C 0.13486(15) 0.2469(5) 0.0057(2)
C14 C 0.18989(17) 0.3917(6) -0.0598(2)
H7 H 0.2051 0.4435 -0.1004
C15 C 0.17414(16) 0.3086(5) 0.0524(2)
C16 C 0.17455(16) 0.2766(5) 0.1291(2)
H8 H 0.2019 0.3121 0.1595
C17 C 0.13330(16) 0.1910(5) 0.1591(2)
C18 C 0.13527(16) 0.1573(5) 0.2422(2)
Ho1B Ho 0.023360(7) -0.66574(2) 0.282490(9)
Ho1B_2 Ho 0.023360(7) 0.33426(2) 0.282490(9)
Ho1_2 Ho -0.023360(7) -1.16574(2) 0.217510(9)
Ag1E Ag -0.227310(13) -0.96163(5) -0.04826(2)
Ag1G Ag 0.227310(13) -0.46163(5) 0.54826(2)
Ag1B Ag -0.272690(13) 0.03837(5) 0.45174(2)
O1B O 0.02106(10) -0.5779(3) 0.16116(15)
O1B_2 O 0.02106(10) 0.4221(3) 0.16116(15)
O2B O -0.02401(11) -0.3639(3) 0.12882(16)
O3B O -0.05985(10) -0.7244(3) 0.24011(15)
O3B_2 O -0.05985(10) 0.2756(3) 0.24011(15)
O4B O -0.07975(12) -0.9578(3) 0.19172(18)
O4B_2 O -0.07975(12) 0.0422(3) 0.19172(18)
O4_2 O 0.07975(12) 0.5422(3) 0.30828(18)
O5B O -0.02522(11) -0.5646(4) 0.38761(16)
O5B_2 O -0.02522(11) 0.4354(4) 0.38761(16)
O6B O -0.03099(10) -0.4119(3) 0.28855(14)
O6B_2 O -0.03099(10) 0.5881(3) 0.28855(14)
O7B O -0.11021(11) -0.2478(4) 0.21460(14)
O8B O -0.16337(15) -0.4497(5) 0.23435(19)
N1B N -0.10972(13) -0.6251(4) -0.11071(18)
H1B H -0.0963 -0.5598 -0.1423
N2B N -0.16045(14) -0.8146(4) -0.06548(19)
N2G N 0.33955(14) 0.6854(4) 0.06548(19)
N2E N -0.33955(14) 0.1854(4) 0.43452(19)
N3B N -0.20822(13) -0.0995(5) 0.49055(19)
N4B N -0.14745(14) -0.1992(4) 0.56521(19)
H2B H -0.1307 -0.2208 0.6059
C1B C -0.01728(15) -0.5102(5) 0.1293(2)
C2B C -0.05565(15) -0.6054(5) 0.0832(2)
C3B C -0.06259(15) -0.5535(5) 0.0103(2)
H3B H -0.0451 -0.4647 -0.0074
C4B C -0.09666(16) -0.6383(5) -0.0358(2)
C5B C -0.14719(16) -0.7323(5) -0.1256(2)
H4B H -0.1621 -0.7469 -0.1728
C6B C -0.12750(15) -0.7607(5) -0.0079(2)
C7B C -0.12001(17) -0.8157(5) 0.0645(2)
H5B H -0.1393 -0.9011 0.0824
C8B C -0.08310(15) -0.7411(5) 0.1100(2)
C9B C -0.07337(15) -0.8108(5) 0.1859(2)
C10B C -0.04665(16) -0.4520(5) 0.3540(2)
C11B C -0.09230(15) -0.3660(5) 0.3879(2)
C12B C -0.09316(16) -0.3417(5) 0.4656(2)
H6B H -0.0671 -0.3828 0.4967
C13B C -0.13486(15) -0.2531(5) 0.4943(2)
C14B C -0.18989(17) -0.1083(6) 0.5598(2)
H7B H -0.2051 -0.0565 0.6004
C15B C -0.17414(16) -0.1914(5) 0.4476(2)
C16B C -0.17455(16) -0.2234(5) 0.3709(2)
H8B H -0.2019 -0.1879 0.3405
C17B C -0.13330(16) -0.3090(5) 0.3409(2)
C18B C -0.13527(16) -0.3427(5) 0.2578(2)
O9 O 0.25405(17) -0.4131(5) 0.1986(2)
H9 H 0.2783 -0.4267 0.2310
H10 H 0.2453 -0.5016 0.1791
O10 O 0.6994(3) -0.4720(11) 0.1826(4)
H11 H 0.7197 -0.4929 0.2193
H12 H 0.7124 -0.4417 0.1410
O11 O 0.7500 -0.7500 0.6088(8)
H13? H 0.7741 -0.7754 0.5779
H14? H 0.7578 -0.7283 0.6540
loop_
_geom_bond_atom_site_label_1
_geom_bond_atom_site_label_2
_geom_bond_site_symmetry_1
_geom_bond_site_symmetry_2
Ho1 O1 1_555 1_555
Ag1 N3 1_555 1_555
O1 C1 1_555 1_555
O2 C1 1_555 1_555
O3 Ho1 1_555 1_555
O4 C9 1_555 1_555
O5 Ho1 1_555 1_555
O6 Ho1 1_555 1_555
O7 C18 1_555 1_555
O8 C18 1_555 1_555
N1 H1 1_555 1_555
N2 C5 1_555 1_555
N3 C14 1_555 1_555
N4 H2 1_555 1_555
C1 C2 1_555 1_555
C2 C3 1_555 1_555
C3 H3 1_555 1_555
C4 N1 1_555 1_555
C5 N1 1_555 1_555
H4 C5 1_555 1_555
C6 N2 1_555 1_555
C7 C6 1_555 1_555
H5 C7 1_555 1_555
C8 C2 1_555 1_555
C9 O3 1_555 1_555
C10 O5 1_555 1_555
C11 C10 1_555 1_555
C12 C11 1_555 1_555
H6 C12 1_555 1_555
C13 N4 1_555 1_555
C14 N4 1_555 1_555
H7 C14 1_555 1_555
C15 N3 1_555 1_555
C16 C15 1_555 1_555
H8 C16 1_555 1_555
C17 C11 1_555 1_555
C18 C17 1_555 1_555
O9 H9 1_555 1_555
H10 O9 1_555 1_555
O10 H11 1_555 1_555
H12 O10 1_555 1_555
Ho1B O4 1_555 1_555
Ho1B_2 O2 1_555 1_555
Ho1_2 O4B 1_555 1_555
Ag1E N2B 1_555 1_555
Ag1G N2 1_555 1_555
Ag1B N2E 1_555 1_555
O1B Ho1B 1_555 1_555
O1B_2 Ho1B_2 1_555 1_555
O2B Ho1 1_555 1_555
O3B Ho1B 1_555 1_555
O3B_2 Ho1B_2 1_555 1_555
O4B C9B 1_555 1_555
O4B_2 Ho1 1_555 1_555
O4_2 Ho1B_2 1_555 1_555
O5B Ho1B 1_555 1_555
O5B_2 Ho1B_2 1_555 1_555
O6B Ho1 1_555 1_555
O6B_2 Ho1B_2 1_555 1_555
O7B Ho1 1_555 1_555
O8B C18B 1_555 1_555
N1B H1B 1_555 1_555
N2B C5B 1_555 1_555
N2G Ag1 1_555 1_555
N3B Ag1B 1_555 1_555
N4B H2B 1_555 1_555
C1B O1B 1_555 1_555
C2B C1B 1_555 1_555
C3B C2B 1_555 1_555
H3B C3B 1_555 1_555
C4B N1B 1_555 1_555
C5B N1B 1_555 1_555
H4B C5B 1_555 1_555
C6B N2B 1_555 1_555
C7B C6B 1_555 1_555
H5B C7B 1_555 1_555
C8B C2B 1_555 1_555
C9B O3B 1_555 1_555
C10B O5B 1_555 1_555
C11B C10B 1_555 1_555
C12B C11B 1_555 1_555
H6B C12B 1_555 1_555
C13B N4B 1_555 1_555
C14B N3B 1_555 1_555
H7B C14B 1_555 1_555
C15B N3B 1_555 1_555
C16B C15B 1_555 1_555
H8B C16B 1_555 1_555
C17B C11B 1_555 1_555
C18B O7B 1_555 1_555
O6 C10 1_555 1_555
O6 Ho1B_2 1_555 1_555
O7 Ho1B_2 1_555 1_555
C3 C4 1_555 1_555
C4 C6 1_555 1_555
C7 C8 1_555 1_555
C8 C9 1_555 1_555
C12 C13 1_555 1_555
C13 C15 1_555 1_555
C16 C17 1_555 1_555
Ho1B O6B 1_555 1_555
O2B C1B 1_555 1_555
O6B C10B 1_555 1_555
N4B C14B 1_555 1_555
C3B C4B 1_555 1_555
C4B C6B 1_555 1_555
C7B C8B 1_555 1_555
C8B C9B 1_555 1_555
C12B C13B 1_555 1_555
C13B C15B 1_555 1_555
C16B C17B 1_555 1_555
C17B C18B 1_555 1_555

#END
