
#######################################################################
#
#                 Cambridge Crystallographic Data Centre
#                                CCDC 
#
#######################################################################
#
# If this CIF has been generated from an entry in the Cambridge 
# Structural Database, then it will include bibliographic, chemical, 
# crystal, experimental, refinement or atomic coordinate data resulting 
# from the CCDC's data processing and validation procedures.
#
#######################################################################

data_BASTAS
_symmetry_cell_setting           orthorhombic
_symmetry_space_group_name_H-M   'P c c n'
_symmetry_Int_Tables_number      56
_space_group_name_Hall           '-P 2ab 2ac'
loop_
_symmetry_equiv_pos_site_id
_symmetry_equiv_pos_as_xyz
1 x,y,z
2 1/2-x,1/2-y,z
3 -x,1/2+y,1/2-z
4 1/2+x,-y,1/2-z
5 -x,-y,-z
6 1/2+x,1/2+y,-z
7 x,1/2-y,1/2+z
8 1/2-x,y,1/2+z
_cell_length_a                   25.287(5)
_cell_length_b                   8.5525(17)
_cell_length_c                   17.827(4)
_cell_angle_alpha                90
_cell_angle_beta                 90
_cell_angle_gamma                90
_cell_volume                     3855.39
loop_
_atom_site_label
_atom_site_type_symbol
_atom_site_fract_x
_atom_site_fract_y
_atom_site_fract_z
O1 O 0.02063(14) -0.0774(5) -0.3402(2)
O2 O -0.03151(15) 0.0886(5) -0.2108(2)
O3 O -0.02660(17) -0.0618(5) -0.1114(2)
C1 C -0.0479(2) 0.0493(7) -0.1452(3)
C2 C -0.0936(2) 0.1350(7) -0.1116(3)
C3 C -0.0566(2) -0.1053(7) -0.4178(3)
O4 O -0.02476(16) 0.1347(5) -0.3725(2)
C4 C -0.0181(2) -0.0098(7) -0.3719(3)
O5 O -0.06118(15) -0.2223(5) -0.2610(2)
C5 C -0.0746(2) -0.3085(7) -0.3149(4)
C6 C -0.0840(2) -0.2400(7) -0.3906(3)
C7 C -0.1209(2) -0.3146(7) -0.4366(4)
H1 H -0.1404 -0.3991 -0.4189
Gd1 Gd 0.023620(10) -0.16435(3) -0.216920(15)
Ag1 Ag -0.273100(19) 0.53877(6) -0.04865(3)
O6 O 0.11211(16) -0.2467(5) -0.2146(2)
C8 C -0.1757(2) 0.2798(8) -0.1292(4)
H2 H -0.2029 0.3166 -0.1596
N1 N -0.11028(19) -0.1263(6) -0.6116(3)
H3 H -0.0966 -0.0622 -0.6433
C9 C -0.1753(2) 0.3104(7) -0.0526(3)
N2 N -0.1608(2) -0.3139(6) -0.5664(3)
C10 C 0.1374(2) -0.3397(7) -0.2583(4)
C11 C -0.1477(2) -0.2319(8) -0.6261(4)
H4 H -0.1629 -0.2460 -0.6731
C12 C -0.0946(2) 0.1592(7) -0.0351(3)
H5 H -0.0686 0.1176 -0.0040
C13 C -0.0633(2) -0.0543(7) -0.4905(3)
H6 H -0.0455 0.0335 -0.5081
O7 O 0.1652(2) -0.4467(6) -0.2351(3)
C14 C -0.1348(2) 0.1936(7) -0.1588(3)
N3 N -0.2089(2) 0.4018(6) -0.0092(3)
C15 C -0.1279(2) -0.2609(7) -0.5091(4)
C16 C -0.0975(2) -0.1385(7) -0.5368(3)
C17 C -0.1362(2) 0.2486(7) -0.0057(3)
C18 C -0.1909(3) 0.3918(8) 0.0597(4)
H9 H -0.2063 0.4426 0.1003
O10 O -0.08098(17) -0.4541(5) -0.3085(3)
N4 N -0.1483(2) 0.3011(6) 0.0651(3)
H12 H -0.1314 0.2793 0.1056
O1B O -0.02063(14) -0.5774(5) -0.1598(2)
O1B_2 O -0.02063(14) 0.4226(5) -0.1598(2)
O2B O 0.03151(15) -0.4114(5) -0.2892(2)
O2B_2 O 0.03151(15) 0.5886(5) -0.2892(2)
O3B O 0.02660(17) -0.5618(5) -0.3886(2)
O3B_2 O 0.02660(17) 0.4382(5) -0.3886(2)
C1B C 0.0479(2) -0.4507(7) -0.3548(3)
C2B C 0.0936(2) -0.3650(7) -0.3884(3)
C3B C 0.0566(2) -0.6053(7) -0.0822(3)
O4B O 0.02476(16) -0.3653(5) -0.1275(2)
C4B C 0.0181(2) -0.5098(7) -0.1281(3)
O5B O 0.06118(15) -0.7223(5) -0.2390(2)
O5B_2 O 0.06118(15) 0.2777(5) -0.2390(2)
C5B C 0.0746(2) -0.8085(7) -0.1851(4)
C6B C 0.0840(2) -0.7400(7) -0.1094(3)
C7B C 0.1209(2) -0.8146(7) -0.0634(4)
H1B H 0.1404 -0.8991 -0.0811
Gd1B Gd -0.023620(10) -0.66435(3) -0.283080(15)
Gd1_2 Gd 0.023620(10) -1.16435(3) -0.216920(15)
Gd1B_2 Gd -0.023620(10) 0.33565(3) -0.283080(15)
Ag1G Ag -0.226900(19) -0.46123(6) -0.54865(3)
Ag1E Ag 0.226900(19) -0.96123(6) 0.04865(3)
Ag1B Ag 0.273100(19) 0.03877(6) -0.45135(3)
O6B O -0.11211(16) 0.2533(5) -0.2854(2)
C8B C 0.1757(2) -0.2202(8) -0.3708(4)
H2B H 0.2029 -0.1834 -0.3404
N1B N 0.11028(19) -0.6263(6) 0.1116(3)
H3B H 0.0966 -0.5622 0.1433
C9B C 0.1753(2) -0.1896(7) -0.4474(3)
N2G N -0.3392(2) 0.6861(6) -0.0664(3)
N2B N 0.1608(2) -0.8139(6) 0.0664(3)
N2E N 0.3392(2) 0.1861(6) -0.4336(3)
C10B C -0.1374(2) 0.1603(7) -0.2417(4)
C11B C 0.1477(2) -0.7319(8) 0.1261(4)
H4B H 0.1629 -0.7460 0.1731
C12B C 0.0946(2) -0.3408(7) -0.4649(3)
H5B H 0.0686 -0.3824 -0.4960
C13B C 0.0633(2) -0.5543(7) -0.0095(3)
H6B H 0.0455 -0.4665 0.0081
O7B O -0.1652(2) 0.0533(6) -0.2649(3)
C14B C 0.1348(2) -0.3064(7) -0.3412(3)
N3B N 0.2089(2) -0.0982(6) -0.4908(3)
C15B C 0.1279(2) -0.7609(7) 0.0091(4)
C16B C 0.0975(2) -0.6385(7) 0.0368(3)
C17B C 0.1362(2) -0.2514(7) -0.4943(3)
C18B C 0.1909(3) -0.1082(8) -0.5597(4)
H9B H 0.2063 -0.0574 -0.6003
O10B O 0.08098(17) -0.9541(5) -0.1915(3)
O10B_2 O 0.08098(17) 0.0459(5) -0.1915(3)
O10_2 O -0.08098(17) 0.5459(5) -0.3085(3)
N4B N 0.1483(2) -0.1989(6) -0.5651(3)
H12B H 0.1314 -0.2207 -0.6056
O8 O -0.2457(3) -0.4117(9) -0.7025(4)
H7 H -0.2690 -0.3711 -0.7308
H8 H -0.2541 -0.4445 -0.6591
O9 O -0.2029(3) -0.5378(10) -0.3211(5)
H10 H -0.2290 -0.5598 -0.2929
H11 H -0.1720 -0.5316 -0.3027
O11 O -0.7500 -0.7500 -0.619(3)
H13? H -0.7661 -0.7252 -0.6592
H14? H -0.7668 -0.7929 -0.5833
loop_
_geom_bond_atom_site_label_1
_geom_bond_atom_site_label_2
_geom_bond_site_symmetry_1
_geom_bond_site_symmetry_2
O1 C4 1_555 1_555
O2 C1 1_555 1_555
O3 C1 1_555 1_555
C1 C2 1_555 1_555
C2 C12 1_555 1_555
C3 C4 1_555 1_555
O4 C4 1_555 1_555
O5 C5 1_555 1_555
C5 C6 1_555 1_555
C6 C3 1_555 1_555
C7 C6 1_555 1_555
H1 C7 1_555 1_555
Gd1 O1 1_555 1_555
Ag1 N3 1_555 1_555
O6 Gd1 1_555 1_555
C8 H2 1_555 1_555
N1 H3 1_555 1_555
C9 C8 1_555 1_555
N2 C11 1_555 1_555
C10 O6 1_555 1_555
C11 N1 1_555 1_555
H4 C11 1_555 1_555
C12 H5 1_555 1_555
C13 C3 1_555 1_555
H6 C13 1_555 1_555
O7 C10 1_555 1_555
C14 C2 1_555 1_555
N3 C9 1_555 1_555
C15 C7 1_555 1_555
C16 N1 1_555 1_555
O8 H7 1_555 1_555
H8 O8 1_555 1_555
C17 C9 1_555 1_555
C18 N3 1_555 1_555
H9 C18 1_555 1_555
O9 H10 1_555 1_555
H11 O9 1_555 1_555
O10 C5 1_555 1_555
N4 C17 1_555 1_555
H12 N4 1_555 1_555
O1B C4B 1_555 1_555
O1B_2 Gd1B_2 1_555 1_555
O2B Gd1 1_555 1_555
O2B_2 Gd1B_2 1_555 1_555
O3B C1B 1_555 1_555
O3B_2 Gd1B_2 1_555 1_555
C1B O2B 1_555 1_555
C2B C1B 1_555 1_555
C3B C4B 1_555 1_555
O4B Gd1 1_555 1_555
C4B O4B 1_555 1_555
O5B C5B 1_555 1_555
O5B_2 Gd1B_2 1_555 1_555
C5B C6B 1_555 1_555
C6B C3B 1_555 1_555
C7B C6B 1_555 1_555
H1B C7B 1_555 1_555
Gd1B O10 1_555 1_555
Gd1_2 O10B 1_555 1_555
Gd1B_2 O2 1_555 1_555
Ag1G N2 1_555 1_555
Ag1E N2B 1_555 1_555
Ag1B N2E 1_555 1_555
O6B Gd1B_2 1_555 1_555
C8B H2B 1_555 1_555
N1B H3B 1_555 1_555
C9B C8B 1_555 1_555
N2G Ag1 1_555 1_555
N2B C11B 1_555 1_555
C10B C14 1_555 1_555
C11B N1B 1_555 1_555
H4B C11B 1_555 1_555
C12B C2B 1_555 1_555
H5B C12B 1_555 1_555
C13B C3B 1_555 1_555
H6B C13B 1_555 1_555
O7B C10B 1_555 1_555
C14B C10 1_555 1_555
N3B Ag1B 1_555 1_555
C15B C7B 1_555 1_555
C16B N1B 1_555 1_555
C17B C9B 1_555 1_555
C18B N3B 1_555 1_555
H9B C18B 1_555 1_555
O10B C5B 1_555 1_555
O10B_2 Gd1 1_555 1_555
O10_2 Gd1B_2 1_555 1_555
N4B C17B 1_555 1_555
H12B N4B 1_555 1_555
O2 Gd1 1_555 1_555
O3 Gd1 1_555 1_555
O4 Gd1B_2 1_555 1_555
O5 Gd1 1_555 1_555
C8 C14 1_555 1_555
N2 C15 1_555 1_555
C12 C17 1_555 1_555
C13 C16 1_555 1_555
C15 C16 1_555 1_555
C18 N4 1_555 1_555
O1B Gd1B 1_555 1_555
O2B Gd1B 1_555 1_555
O3B Gd1B 1_555 1_555
C2B C14B 1_555 1_555
O5B Gd1B 1_555 1_555
O6B C10B 1_555 1_555
C8B C14B 1_555 1_555
C9B N3B 1_555 1_555
N2B C15B 1_555 1_555
C12B C17B 1_555 1_555
C13B C16B 1_555 1_555
C15B C16B 1_555 1_555
C18B N4B 1_555 1_555

#END
