
#######################################################################
#
#                 Cambridge Crystallographic Data Centre
#                                CCDC 
#
#######################################################################
#
# If this CIF has been generated from an entry in the Cambridge 
# Structural Database, then it will include bibliographic, chemical, 
# crystal, experimental, refinement or atomic coordinate data resulting 
# from the CCDC's data processing and validation procedures.
#
#######################################################################

data_BAXFIR02
_symmetry_cell_setting           monoclinic
_symmetry_space_group_name_H-M   'P 21/n'
_symmetry_Int_Tables_number      14
_space_group_name_Hall           '-P 2yn'
loop_
_symmetry_equiv_pos_site_id
_symmetry_equiv_pos_as_xyz
1 x,y,z
2 1/2-x,1/2+y,1/2-z
3 -x,-y,-z
4 1/2+x,1/2-y,1/2+z
_cell_length_a                   8.0306(3)
_cell_length_b                   19.4080(4)
_cell_length_c                   8.8862(4)
_cell_angle_alpha                90
_cell_angle_beta                 92.816(6)
_cell_angle_gamma                90
_cell_volume                     1383.31
loop_
_atom_site_label
_atom_site_type_symbol
_atom_site_fract_x
_atom_site_fract_y
_atom_site_fract_z
Fe1 Fe 0.0000 0.0000 0.0000
N1 N -0.1362(7) 0.0801(3) 0.0840(6)
N2 N -0.3056(7) 0.0863(3) 0.0698(6)
N3 N -0.2038(8) 0.1783(3) 0.1633(6)
N4 N -0.1746(7) 0.2434(4) 0.2239(6)
N5 N -0.3067(7) 0.2745(4) 0.2224(6)
N6 N -0.2795(8) 0.3381(3) 0.2823(6)
N7 N -0.3540(7) 0.4291(3) 0.3956(6)
N8 N -0.1835(7) 0.4252(3) 0.4045(6)
N9 N 0.1545(5) 0.0036(3) 0.1928(5)
N10 N 0.0792(5) 0.0049(3) 0.3317(5)
N11 N 0.3444(5) 0.0025(3) 0.3682(5)
N12 N 0.5018(5) -0.0001(3) 0.4306(4)
C1 C -0.0783(9) 0.1346(4) 0.1412(8)
H1 H 0.0339 0.1433 0.1646
C2 C -0.3432(9) 0.1450(5) 0.1187(8)
H2 H -0.4509 0.1623 0.1230
C3 C -0.4073(8) 0.3768(4) 0.3214(7)
H3 H -0.5190 0.3672 0.2979
C4 C -0.1435(9) 0.3698(4) 0.3397(8)
H4 H -0.0351 0.3537 0.3331
C5 C 0.3138(7) 0.0027(4) 0.2194(6)
H5 H 0.3937 0.0022 0.1471
C6 C 0.1948(7) 0.0037(4) 0.4337(7)
H6 H 0.1799 0.0036 0.5369
Fe1_2 Fe 1.0000 0.0000 1.0000
Fe1A Fe -0.5000 0.5000 0.5000
Fe1A_2 Fe 0.5000 -0.5000 -0.5000
N1B N 0.1362(7) -0.0801(3) -0.0840(6)
N2B N 0.3056(7) -0.0863(3) -0.0698(6)
N3B N 0.2038(8) -0.1783(3) -0.1633(6)
N4B N 0.1746(7) -0.2434(4) -0.2239(6)
N5B N 0.3067(7) -0.2745(4) -0.2224(6)
N6B N 0.2795(8) -0.3381(3) -0.2823(6)
N7B N 0.3540(7) -0.4291(3) -0.3956(6)
N7A N -0.1460(7) -0.0709(3) 0.1044(6)
N7C N 0.1460(7) 0.0709(3) -0.1044(6)
N8B N 0.1835(7) -0.4252(3) -0.4045(6)
N9B N 0.8455(5) -0.0036(3) 0.8072(5)
N9B_2 N -0.1545(5) -0.0036(3) -0.1928(5)
N10B N 0.9208(5) -0.0049(3) 0.6683(5)
N11B N 0.6556(5) -0.0025(3) 0.6318(5)
N12B N 0.4982(5) 0.0001(3) 0.5694(4)
C1B C 0.0783(9) -0.1346(4) -0.1412(8)
H1B H -0.0339 -0.1433 -0.1646
C2B C 0.3432(9) -0.1450(5) -0.1187(8)
H2B H 0.4509 -0.1623 -0.1230
C3B C 0.4073(8) -0.3768(4) -0.3214(7)
H3B H 0.5190 -0.3672 -0.2979
C4B C 0.1435(9) -0.3698(4) -0.3397(8)
H4B H 0.0351 -0.3537 -0.3331
C5B C 0.6862(7) -0.0027(4) 0.7806(6)
H5B H 0.6063 -0.0022 0.8529
C6B C 0.8052(7) -0.0037(4) 0.5663(7)
H6B H 0.8201 -0.0036 0.4631
Cl1 Cl -0.7801(3) 0.30841(15) 0.0873(3)
O1 O -0.7758(5) 0.3247(3) 0.2414(6)
O2 O -0.6417(8) 0.3360(3) 0.0206(7)
O3 O -0.9260(10) 0.3345(5) 0.0218(8)
O4 O -0.7833(10) 0.2399(4) 0.0660(7)
O5 O -0.7120(12) 0.1664(5) 0.3479(14)
H7 H -0.7511 0.1910 0.2660
H8 H -0.6089 0.1790 0.3989
loop_
_geom_bond_atom_site_label_1
_geom_bond_atom_site_label_2
_geom_bond_site_symmetry_1
_geom_bond_site_symmetry_2
Fe1 N1 1_555 1_555
N1 N2 1_555 1_555
N2 C2 1_555 1_555
N3 N4 1_555 1_555
N4 N5 1_555 1_555
N5 N6 1_555 1_555
N6 C3 1_555 1_555
N7 N8 1_555 1_555
N8 C4 1_555 1_555
N9 Fe1 1_555 1_555
N10 N9 1_555 1_555
N11 N12 1_555 1_555
N12 N12B 1_555 1_555
C1 N1 1_555 1_555
H1 C1 1_555 1_555
C2 N3 1_555 1_555
H2 C2 1_555 1_555
C3 N7 1_555 1_555
H3 C3 1_555 1_555
C4 N6 1_555 1_555
H4 C4 1_555 1_555
C5 N9 1_555 1_555
H5 C5 1_555 1_555
C6 N10 1_555 1_555
H6 C6 1_555 1_555
Cl1 O1 1_555 1_555
O2 Cl1 1_555 1_555
O3 Cl1 1_555 1_555
O4 Cl1 1_555 1_555
O5 H7 1_555 1_555
H8 O5 1_555 1_555
Fe1_2 N9B 1_555 1_555
Fe1A N7 1_555 1_555
Fe1A_2 N7B 1_555 1_555
N1B Fe1 1_555 1_555
N2B N1B 1_555 1_555
N3B N4B 1_555 1_555
N4B N5B 1_555 1_555
N5B N6B 1_555 1_555
N6B C3B 1_555 1_555
N7B N8B 1_555 1_555
N7A Fe1 1_555 1_555
N7C Fe1 1_555 1_555
N8B C4B 1_555 1_555
N9B N10B 1_555 1_555
N9B_2 Fe1 1_555 1_555
N10B C6B 1_555 1_555
N11B N12B 1_555 1_555
C1B N1B 1_555 1_555
H1B C1B 1_555 1_555
C2B N2B 1_555 1_555
H2B C2B 1_555 1_555
C3B N7B 1_555 1_555
H3B C3B 1_555 1_555
C4B N6B 1_555 1_555
H4B C4B 1_555 1_555
C5B N9B 1_555 1_555
H5B C5B 1_555 1_555
C6B N11B 1_555 1_555
H6B C6B 1_555 1_555
N3 C1 1_555 1_555
N11 C5 1_555 1_555
N11 C6 1_555 1_555
N3B C1B 1_555 1_555
N3B C2B 1_555 1_555
N11B C5B 1_555 1_555

#END
