
#######################################################################
#
#                 Cambridge Crystallographic Data Centre
#                                CCDC 
#
#######################################################################
#
# If this CIF has been generated from an entry in the Cambridge 
# Structural Database, then it will include bibliographic, chemical, 
# crystal, experimental, refinement or atomic coordinate data resulting 
# from the CCDC's data processing and validation procedures.
#
#######################################################################

data_BAXTAW
_symmetry_cell_setting           monoclinic
_symmetry_space_group_name_H-M   'P 21/c'
_symmetry_Int_Tables_number      14
_space_group_name_Hall           '-P 2ybc'
loop_
_symmetry_equiv_pos_site_id
_symmetry_equiv_pos_as_xyz
1 x,y,z
2 x,1/2-y,1/2+z
3 -x,-y,-z
4 -x,1/2+y,1/2-z
_cell_length_a                   23.166(1)
_cell_length_b                   10.0492(4)
_cell_length_c                   7.7264(3)
_cell_angle_alpha                90
_cell_angle_beta                 98.379(1)
_cell_angle_gamma                90
_cell_volume                     1779.5
loop_
_atom_site_label
_atom_site_type_symbol
_atom_site_fract_x
_atom_site_fract_y
_atom_site_fract_z
Fe1 Fe 0.0000 0.0000 0.0000
F1 F -0.27777(12) -0.1232(3) -0.3887(4)
O1 O -0.08520(14) -0.0738(3) -0.0210(4)
O2 O 0.02028(15) -0.1466(3) 0.1850(4)
O3 O 0.01976(14) -0.3474(3) 0.3037(4)
N1 N -0.11740(17) -0.4750(4) -0.0494(5)
N2 N -0.30219(18) -0.3886(5) -0.4291(6)
N3 N -0.4109(2) -0.5089(6) -0.5670(7)
H1 H -0.4404 -0.5154 -0.6563
H2 H -0.4182 -0.5657 -0.4828
C1 C -0.0945(2) -0.1974(5) -0.0191(6)
C2 C -0.14761(19) -0.2508(5) -0.1203(6)
C3 C -0.1581(2) -0.3870(5) -0.1387(6)
C4 C -0.0705(2) -0.4265(5) 0.0529(6)
H3 H -0.0452 -0.4877 0.1142
C5 C -0.0564(2) -0.2949(5) 0.0752(6)
C6 C -0.0020(2) -0.2607(5) 0.1966(6)
C7 C -0.1252(2) -0.6210(5) -0.0610(7)
H4 H -0.0882 -0.6638 -0.0205
H5 H -0.1367 -0.6455 -0.1826
C8 C -0.1701(3) -0.6722(6) 0.0442(9)
H6 H -0.1733 -0.7671 0.0315
H7 H -0.2072 -0.6320 0.0031
H8 H -0.1586 -0.6503 0.1652
C9 C -0.2090(2) -0.4342(5) -0.2406(6)
H9 H -0.2151 -0.5254 -0.2526
C10 C -0.2502(2) -0.3471(5) -0.3236(6)
C11 C -0.2384(2) -0.2105(5) -0.3019(6)
C12 C -0.1897(2) -0.1627(5) -0.2071(6)
H10 H -0.1836 -0.0713 -0.1984
C13 C -0.3043(2) -0.5287(6) -0.4832(8)
H11 H -0.3095 -0.5851 -0.3848
H12 H -0.2679 -0.5533 -0.5230
C14 C -0.3547(3) -0.5478(7) -0.6298(8)
H13 H -0.3487 -0.4933 -0.7293
H14 H -0.3566 -0.6401 -0.6667
C15 C -0.4088(2) -0.3721(7) -0.4975(8)
H15 H -0.4439 -0.3542 -0.4470
H16 H -0.4071 -0.3094 -0.5921
C16 C -0.3564(2) -0.3535(6) -0.3606(8)
H17 H -0.3543 -0.2615 -0.3222
H18 H -0.3602 -0.4090 -0.2602
F1B F 0.27777(12) 0.1232(3) 0.3887(4)
O1B O 0.08520(14) 0.0738(3) 0.0210(4)
O2B O -0.02028(15) 0.1466(3) -0.1850(4)
O3B O -0.01976(14) 0.3474(3) -0.3037(4)
N1B N 0.11740(17) 0.4750(4) 0.0494(5)
N2B N 0.30219(18) 0.3886(5) 0.4291(6)
N3B N 0.4109(2) 0.5089(6) 0.5670(7)
H1B H 0.4404 0.5154 0.6563
H2B H 0.4182 0.5657 0.4828
C1B C 0.0945(2) 0.1974(5) 0.0191(6)
C2B C 0.14761(19) 0.2508(5) 0.1203(6)
C3B C 0.1581(2) 0.3870(5) 0.1387(6)
C4B C 0.0705(2) 0.4265(5) -0.0529(6)
H3B H 0.0452 0.4877 -0.1142
C5B C 0.0564(2) 0.2949(5) -0.0752(6)
C6B C 0.0020(2) 0.2607(5) -0.1966(6)
C7B C 0.1252(2) 0.6210(5) 0.0610(7)
H4B H 0.0882 0.6638 0.0205
H5B H 0.1367 0.6455 0.1826
C8B C 0.1701(3) 0.6722(6) -0.0442(9)
H6B H 0.1733 0.7671 -0.0315
H7B H 0.2072 0.6320 -0.0031
H8B H 0.1586 0.6503 -0.1652
C9B C 0.2090(2) 0.4342(5) 0.2406(6)
H9B H 0.2151 0.5254 0.2526
C10B C 0.2502(2) 0.3471(5) 0.3236(6)
C11B C 0.2384(2) 0.2105(5) 0.3019(6)
C12B C 0.1897(2) 0.1627(5) 0.2071(6)
H10B H 0.1836 0.0713 0.1984
C13B C 0.3043(2) 0.5287(6) 0.4832(8)
H11B H 0.3095 0.5851 0.3848
H12B H 0.2679 0.5533 0.5230
C14B C 0.3547(3) 0.5478(7) 0.6298(8)
H13B H 0.3487 0.4933 0.7293
H14B H 0.3566 0.6401 0.6667
C15B C 0.4088(2) 0.3721(7) 0.4975(8)
H15B H 0.4439 0.3542 0.4470
H16B H 0.4071 0.3094 0.5921
C16B C 0.3564(2) 0.3535(6) 0.3606(8)
H17B H 0.3543 0.2615 0.3222
H18B H 0.3602 0.4090 0.2602
O3A O 0.01976(14) -0.1526(3) -0.1963(4)
O3C O -0.01976(14) 0.1526(3) 0.1963(4)
Fe1A Fe 0.0000 -0.5000 0.5000
Fe1A_2 Fe 0.0000 0.5000 -0.5000
S1 S 0.5000 0.0000 0.5000
O5 O 0.5023(4) 0.0738(13) 0.6626(13)
O7 O 0.4363(8) 0.049(2) 0.482(2)
O5B O 0.4977(4) -0.0738(13) 0.3374(13)
O7B O 0.5637(8) -0.049(2) 0.518(2)
O4 O 0.4321(2) 0.6870(5) 0.3204(7)
H19 H 0.3965 0.6388 0.2665
H20 H 0.4596 0.6853 0.2230
O6? O 0.4873(7) 0.0745(17) 0.3605(18)
O8? O 0.4632(10) -0.1131(17) 0.5144(19)
loop_
_geom_bond_atom_site_label_1
_geom_bond_atom_site_label_2
_geom_bond_site_symmetry_1
_geom_bond_site_symmetry_2
Fe1 O1 1_555 1_555
F1 C11 1_555 1_555
O1 C1 1_555 1_555
O2 Fe1 1_555 1_555
O3 C6 1_555 1_555
N1 C3 1_555 1_555
N2 C10 1_555 1_555
N3 H1 1_555 1_555
H2 N3 1_555 1_555
C1 C2 1_555 1_555
C2 C3 1_555 1_555
C3 C9 1_555 1_555
C4 N1 1_555 1_555
H3 C4 1_555 1_555
C5 C1 1_555 1_555
C6 O2 1_555 1_555
C7 N1 1_555 1_555
H4 C7 1_555 1_555
H5 C7 1_555 1_555
C8 C7 1_555 1_555
H6 C8 1_555 1_555
H7 C8 1_555 1_555
H8 C8 1_555 1_555
C9 H9 1_555 1_555
C10 C9 1_555 1_555
C11 C10 1_555 1_555
C12 C2 1_555 1_555
H10 C12 1_555 1_555
C13 N2 1_555 1_555
H11 C13 1_555 1_555
H12 C13 1_555 1_555
C14 N3 1_555 1_555
H13 C14 1_555 1_555
H14 C14 1_555 1_555
C15 N3 1_555 1_555
H15 C15 1_555 1_555
H16 C15 1_555 1_555
C16 N2 1_555 1_555
H17 C16 1_555 1_555
H18 C16 1_555 1_555
S1 O5 1_555 1_555
O4 H19 1_555 1_555
H20 O4 1_555 1_555
O7 S1 1_555 1_555
O5B S1 1_555 1_555
O7B S1 1_555 1_555
F1B C11B 1_555 1_555
O1B Fe1 1_555 1_555
O2B Fe1 1_555 1_555
O3B C6B 1_555 1_555
N1B C3B 1_555 1_555
N2B C10B 1_555 1_555
N3B H1B 1_555 1_555
H2B N3B 1_555 1_555
C1B O1B 1_555 1_555
C2B C1B 1_555 1_555
C3B C2B 1_555 1_555
C4B N1B 1_555 1_555
H3B C4B 1_555 1_555
C5B C1B 1_555 1_555
C6B O2B 1_555 1_555
C7B N1B 1_555 1_555
H4B C7B 1_555 1_555
H5B C7B 1_555 1_555
C8B C7B 1_555 1_555
H6B C8B 1_555 1_555
H7B C8B 1_555 1_555
H8B C8B 1_555 1_555
C9B C3B 1_555 1_555
H9B C9B 1_555 1_555
C10B C9B 1_555 1_555
C11B C10B 1_555 1_555
C12B C2B 1_555 1_555
H10B C12B 1_555 1_555
C13B N2B 1_555 1_555
H11B C13B 1_555 1_555
H12B C13B 1_555 1_555
C14B N3B 1_555 1_555
H13B C14B 1_555 1_555
H14B C14B 1_555 1_555
C15B N3B 1_555 1_555
H15B C15B 1_555 1_555
H16B C15B 1_555 1_555
C16B N2B 1_555 1_555
H17B C16B 1_555 1_555
H18B C16B 1_555 1_555
O3A Fe1 1_555 1_555
O3C Fe1 1_555 1_555
Fe1A O3 1_555 1_555
Fe1A_2 O3B 1_555 1_555
C4 C5 1_555 1_555
C5 C6 1_555 1_555
C11 C12 1_555 1_555
C13 C14 1_555 1_555
C15 C16 1_555 1_555
C4B C5B 1_555 1_555
C5B C6B 1_555 1_555
C11B C12B 1_555 1_555
C13B C14B 1_555 1_555
C15B C16B 1_555 1_555

#END
