
#######################################################################
#
#                 Cambridge Crystallographic Data Centre
#                                CCDC 
#
#######################################################################
#
# If this CIF has been generated from an entry in the Cambridge 
# Structural Database, then it will include bibliographic, chemical, 
# crystal, experimental, refinement or atomic coordinate data resulting 
# from the CCDC's data processing and validation procedures.
#
#######################################################################

data_BEPBAB
_symmetry_cell_setting           triclinic
_symmetry_space_group_name_H-M   'P -1'
_symmetry_Int_Tables_number      2
_space_group_name_Hall           '-P 1'
loop_
_symmetry_equiv_pos_site_id
_symmetry_equiv_pos_as_xyz
1 x,y,z
2 -x,-y,-z
_cell_length_a                   9.4930(19)
_cell_length_b                   11.242(2)
_cell_length_c                   11.270(2)
_cell_angle_alpha                82.89(3)
_cell_angle_beta                 83.80(3)
_cell_angle_gamma                77.68(3)
_cell_volume                     1161.87
loop_
_atom_site_label
_atom_site_type_symbol
_atom_site_fract_x
_atom_site_fract_y
_atom_site_fract_z
Ca1 Ca 0.97459(8) 0.33006(7) 0.97779(6)
C1 C 0.5997(4) 0.3942(3) 0.8485(3)
C2 C 0.4813(4) 0.3835(3) 0.7856(3)
C3 C 0.3474(4) 0.3771(3) 0.8507(3)
C4 C 0.5012(4) 0.3680(3) 0.6604(3)
C5 C 0.3885(4) 0.3408(3) 0.6007(3)
H1 H 0.3011 0.3334 0.6440
C6 C 0.4063(4) 0.3254(3) 0.4821(3)
H2 H 0.3313 0.3067 0.4459
C7 C 0.5379(4) 0.3374(3) 0.4120(3)
C8 C 0.6499(4) 0.3637(3) 0.4715(3)
H3 H 0.7374 0.3711 0.4284
C9 C 0.6319(4) 0.3785(3) 0.5911(3)
H4 H 0.7074 0.3958 0.6277
C10 C 0.5573(4) 0.3230(3) 0.2879(3)
C11 C 0.4436(4) 0.3008(4) 0.2265(3)
C12 C 0.6898(4) 0.3266(3) 0.2186(3)
C13 C 1.0224(4) 0.3329(3) 0.4503(3)
C14 C 1.0162(4) 0.2395(3) 0.5443(3)
C15 C 1.0133(4) 0.2710(3) 0.6626(3)
C16 C 1.0069(4) 0.0894(3) 0.4039(3)
H5 H 1.0113 0.1496 0.3399
C17 C 1.0081(4) 0.1188(3) 0.5229(3)
C18 C 1.0006(4) 0.0248(3) 0.6176(3)
H6 H 1.0008 0.0418 0.6962
N1 N 0.6997(4) 0.3992(3) 0.8969(3)
N2 N 0.2359(3) 0.3707(3) 0.8982(3)
N3 N 0.3499(4) 0.2839(4) 0.1797(3)
N4 N 0.7985(3) 0.3273(3) 0.1611(3)
N5 N 1.0100(4) 0.2956(3) 0.7592(3)
N6 N 1.0258(4) 0.4057(3) 0.3698(3)
O1 O 0.9336(2) 0.5451(2) 0.88556(18)
H7 H 0.9828 0.5422 0.8179
H8 H 0.8486 0.5842 0.8729
O2 O 0.9065(3) 0.1424(2) 0.9680(2)
H9 H 0.8337 0.1438 0.9296
H10 H 0.9068 0.0834 1.0230
O3 O 1.1337(3) 0.1787(2) 1.0945(2)
H11 H 1.1762 0.1125 1.0661
H12 H 1.1944 0.2154 1.1166
C13A C 0.9776(4) -0.3329(3) 0.5497(3)
C14A C 0.9838(4) -0.2395(3) 0.4557(3)
C15A C 0.9867(4) -0.2710(3) 0.3374(3)
C16A C 0.9931(4) -0.0894(3) 0.5961(3)
H5A H 0.9887 -0.1496 0.6601
C17A C 0.9919(4) -0.1188(3) 0.4771(3)
C18A C 0.9994(4) -0.0248(3) 0.3824(3)
H6A H 0.9992 -0.0418 0.3038
N5A N 0.9900(4) -0.2956(3) 0.2408(3)
N6A N 0.9742(4) -0.4057(3) 0.6302(3)
Ca1A Ca 1.02541(8) -0.33006(7) 0.02221(6)
C1A C 1.4003(4) -0.3942(3) 0.1515(3)
C2A C 1.5187(4) -0.3835(3) 0.2144(3)
C3A C 1.6526(4) -0.3771(3) 0.1493(3)
C4A C 1.4988(4) -0.3680(3) 0.3396(3)
C5A C 1.6115(4) -0.3408(3) 0.3993(3)
H1A H 1.6989 -0.3334 0.3560
C6A C 1.5937(4) -0.3254(3) 0.5179(3)
H2A H 1.6687 -0.3067 0.5541
C7A C 1.4621(4) -0.3374(3) 0.5880(3)
C8A C 1.3501(4) -0.3637(3) 0.5285(3)
H3A H 1.2626 -0.3711 0.5716
C9A C 1.3681(4) -0.3785(3) 0.4089(3)
H4A H 1.2926 -0.3958 0.3723
C10A C 1.4427(4) -0.3230(3) 0.7121(3)
C11A C 1.5564(4) -0.3008(4) 0.7735(3)
C12A C 1.3102(4) -0.3266(3) 0.7814(3)
N1A N 1.3003(4) -0.3992(3) 0.1031(3)
N2A N 1.7641(3) -0.3707(3) 0.1018(3)
N3A N 1.6501(4) -0.2839(4) 0.8203(3)
N4A N 1.2015(3) -0.3273(3) 0.8389(3)
O1A O 1.0664(2) -0.5451(2) 0.11444(18)
H7A H 1.0172 -0.5422 0.1821
H8A H 1.1514 -0.5842 0.1271
O2A O 1.0935(3) -0.1424(2) 0.0320(2)
H9A H 1.1663 -0.1438 0.0704
H10A H 1.0932 -0.0834 -0.0230
O3A O 0.8663(3) -0.1787(2) -0.0945(2)
H11A H 0.8238 -0.1125 -0.0661
H12A H 0.8056 -0.2154 -0.1166
Ca1_2 Ca -0.02541(8) 0.33006(7) 0.97779(6)
Ca1_3 Ca 0.97459(8) -0.66994(7) -0.02221(6)
Ca1_4 Ca 0.97459(8) 0.33006(7) -0.02221(6)
Ca1A_2 Ca 1.02541(8) -0.33006(7) 1.02221(6)
Ca1A_3 Ca 1.02541(8) 0.66994(7) 1.02221(6)
Ca1A_4 Ca 2.02541(8) -0.33006(7) 0.02221(6)
N2_2 N 1.2359(3) 0.3707(3) 0.8982(3)
N2A_2 N 0.7641(3) -0.3707(3) 0.1018(3)
N4_2 N 0.7985(3) 0.3273(3) 1.1611(3)
N4A_2 N 1.2015(3) -0.3273(3) -0.1611(3)
O1_2 O 0.9336(2) -0.4549(2) -0.11444(18)
O1A_2 O 1.0664(2) 0.4549(2) 1.11444(18)
C19 C 0.6045(5) 0.0712(4) 0.7910(4)
C20 C 0.4874(4) 0.0396(4) 0.7443(3)
C21 C 0.3638(6) 0.0282(4) 0.8230(4)
C22 C 0.6164(4) 0.0328(4) 0.5424(3)
H13 H 0.6946 0.0550 0.5706
C23 C 0.4948(4) 0.0191(3) 0.6223(3)
C24 C 0.3781(4) -0.0143(4) 0.5754(3)
H14 H 0.2962 -0.0239 0.6258
N7 N 0.7018(5) 0.0977(4) 0.8257(4)
N8 N 0.2604(6) 0.0174(5) 0.8829(4)
C19A C 0.3955(5) -0.0712(4) 0.2090(4)
C20A C 0.5126(4) -0.0396(4) 0.2557(3)
C21A C 0.6362(6) -0.0282(4) 0.1770(4)
C22A C 0.3836(4) -0.0328(4) 0.4576(3)
H13A H 0.3054 -0.0550 0.4294
C23A C 0.5052(4) -0.0191(3) 0.3777(3)
C24A C 0.6219(4) 0.0143(4) 0.4246(3)
H14A H 0.7038 0.0239 0.3742
N7A N 0.2982(5) -0.0977(4) 0.1743(4)
N8A N 0.7396(6) -0.0174(5) 0.1171(4)
loop_
_geom_bond_atom_site_label_1
_geom_bond_atom_site_label_2
_geom_bond_site_symmetry_1
_geom_bond_site_symmetry_2
Ca1 N1 1_555 1_555
C1 C2 1_555 1_555
C2 C3 1_555 1_555
C3 N2 1_555 1_555
C4 C2 1_555 1_555
C5 C4 1_555 1_555
H1 C5 1_555 1_555
C6 C5 1_555 1_555
H2 C6 1_555 1_555
C7 C6 1_555 1_555
C8 C7 1_555 1_555
H3 C8 1_555 1_555
C9 C4 1_555 1_555
H4 C9 1_555 1_555
C10 C7 1_555 1_555
C11 C10 1_555 1_555
C12 C10 1_555 1_555
C13 C14 1_555 1_555
C14 C15 1_555 1_555
C15 N5 1_555 1_555
C16 H5 1_555 1_555
C17 C14 1_555 1_555
C18 C17 1_555 1_555
H6 C18 1_555 1_555
N1 C1 1_555 1_555
N2 Ca1_2 1_555 1_555
N3 C11 1_555 1_555
N4 C12 1_555 1_555
N5 Ca1 1_555 1_555
N6 C13 1_555 1_555
O1 Ca1 1_555 1_555
H7 O1 1_555 1_555
H8 O1 1_555 1_555
O2 Ca1 1_555 1_555
H9 O2 1_555 1_555
H10 O2 1_555 1_555
O3 Ca1 1_555 1_555
H11 O3 1_555 1_555
H12 O3 1_555 1_555
C19 C20 1_555 1_555
C20 C21 1_555 1_555
C21 N8 1_555 1_555
C22 H13 1_555 1_555
C23 C20 1_555 1_555
C24 C23 1_555 1_555
H14 C24 1_555 1_555
N7 C19 1_555 1_555
C13A C14A 1_555 1_555
C14A C15A 1_555 1_555
C15A N5A 1_555 1_555
C16A C18 1_555 1_555
H5A C16A 1_555 1_555
C17A C14A 1_555 1_555
C18A C16 1_555 1_555
H6A C18A 1_555 1_555
N5A Ca1A 1_555 1_555
N6A C13A 1_555 1_555
Ca1A N1A 1_555 1_555
C1A C2A 1_555 1_555
C2A C3A 1_555 1_555
C3A N2A 1_555 1_555
C4A C2A 1_555 1_555
C5A C4A 1_555 1_555
H1A C5A 1_555 1_555
C6A C5A 1_555 1_555
H2A C6A 1_555 1_555
C7A C6A 1_555 1_555
C8A C7A 1_555 1_555
H3A C8A 1_555 1_555
C9A C4A 1_555 1_555
H4A C9A 1_555 1_555
C10A C7A 1_555 1_555
C11A C10A 1_555 1_555
C12A C10A 1_555 1_555
N1A C1A 1_555 1_555
N2A Ca1A_4 1_555 1_555
N3A C11A 1_555 1_555
N4A C12A 1_555 1_555
O1A Ca1A 1_555 1_555
H7A O1A 1_555 1_555
H8A O1A 1_555 1_555
O2A Ca1A 1_555 1_555
H9A O2A 1_555 1_555
H10A O2A 1_555 1_555
O3A Ca1A 1_555 1_555
H11A O3A 1_555 1_555
H12A O3A 1_555 1_555
Ca1_3 O1A 1_555 1_555
Ca1_4 N4 1_555 1_555
Ca1A_2 N4A 1_555 1_555
Ca1A_3 O1 1_555 1_555
N2_2 Ca1 1_555 1_555
N2A_2 Ca1A 1_555 1_555
N4_2 Ca1 1_555 1_555
N4A_2 Ca1A 1_555 1_555
O1_2 Ca1A 1_555 1_555
O1A_2 Ca1 1_555 1_555
C19A C20A 1_555 1_555
C20A C21A 1_555 1_555
C21A N8A 1_555 1_555
C22A C24 1_555 1_555
H13A C22A 1_555 1_555
C23A C20A 1_555 1_555
C24A C22 1_555 1_555
H14A C24A 1_555 1_555
N7A C19A 1_555 1_555
C8 C9 1_555 1_555
C16 C17 1_555 1_555
C22 C23 1_555 1_555
C16A C17A 1_555 1_555
C17A C18A 1_555 1_555
C8A C9A 1_555 1_555
Ca1_3 O1_2 1_555 1_555
Ca1A_3 O1A_2 1_555 1_555
C22A C23A 1_555 1_555
C23A C24A 1_555 1_555

#END
