
#######################################################################
#
#                 Cambridge Crystallographic Data Centre
#                                CCDC 
#
#######################################################################
#
# If this CIF has been generated from an entry in the Cambridge 
# Structural Database, then it will include bibliographic, chemical, 
# crystal, experimental, refinement or atomic coordinate data resulting 
# from the CCDC's data processing and validation procedures.
#
#######################################################################

data_BEPPAP
_symmetry_cell_setting           hexagonal
_symmetry_space_group_name_H-M   'P 61'
_symmetry_Int_Tables_number      169
_space_group_name_Hall           'P 61'
loop_
_symmetry_equiv_pos_site_id
_symmetry_equiv_pos_as_xyz
1 x,y,z
2 x-y,x,1/6+z
3 -y,x-y,1/3+z
4 -x,-y,1/2+z
5 -x+y,-x,2/3+z
6 y,-x+y,5/6+z
_cell_length_a                   17.4587(2)
_cell_length_b                   17.4587(2)
_cell_length_c                   10.24475(14)
_cell_angle_alpha                90
_cell_angle_beta                 90
_cell_angle_gamma                120
_cell_volume                     2704.31
loop_
_atom_site_label
_atom_site_type_symbol
_atom_site_fract_x
_atom_site_fract_y
_atom_site_fract_z
Zn1 Zn 0.54190(3) 0.07503(2) 0.15431(4)
Cl1 Cl 0.68751(7) 0.12589(8) 0.17027(15)
N1 N 0.45120(19) -0.05763(18) 0.1229(3)
H1 H 0.4645 -0.0741 0.0458
O1 O 0.50886(17) 0.02240(14) 0.3512(2)
N2 N 0.16469(18) -0.33841(27) 0.0322(3)
C1 C 0.5349(4) -0.1280(3) 0.1978(4)
H2 H 0.5214 -0.1634 0.1203
H3 H 0.5422 -0.1590 0.2699
H4 H 0.5887 -0.0729 0.1847
C2 C 0.4595(3) -0.1101(2) 0.2270(3)
H5 H 0.4041 -0.1666 0.2340
C3 C 0.2147(3) -0.2063(4) 0.1570(4)
H6 H 0.2043 -0.1767 0.2239
C4 C 0.1538(2) -0.2931(4) 0.1298(4)
H7 H 0.1031 -0.3216 0.1808
C5 C 0.4770(2) -0.0601(2) 0.3558(3)
C6 C 0.2920(3) -0.1632(4) 0.0837(4)
C7 C 0.3039(2) -0.2109(4) -0.0171(4)
H8 H 0.3548 -0.1846 -0.0680
C8 C 0.2391(2) -0.2970(4) -0.0391(4)
H9 H 0.2471 -0.3280 -0.1065
O2 O 0.4608(2) -0.10549(17) 0.4580(2)
C9 C 0.3624(2) -0.0685(2) 0.1122(4)
H10 H 0.3624 -0.0306 0.0429
H11 H 0.3480 -0.0497 0.1931
Zn1C Zn 0.45810(3) -0.07503(2) 0.65431(4)
Zn1E Zn 0.07503(2) -0.46687(4) -0.01236(4)
N2A N 0.50310(32) 0.16469(18) 0.1989(3)
O2C O 0.5392(2) 0.10549(17) -0.0420(2)
O3 O 0.2801(5) -0.0526(4) 0.4105(5)
O4 O 0.2495(19) 0.060(2) 0.022(2)
loop_
_geom_bond_atom_site_label_1
_geom_bond_atom_site_label_2
_geom_bond_site_symmetry_1
_geom_bond_site_symmetry_2
Zn1 Cl1 1_555 1_555
N1 Zn1 1_555 1_555
H1 N1 1_555 1_555
O1 Zn1 1_555 1_555
N2 C4 1_555 1_555
C1 H2 1_555 1_555
H3 C1 1_555 1_555
H4 C1 1_555 1_555
C2 N1 1_555 1_555
H5 C2 1_555 1_555
C3 H6 1_555 1_555
C4 C3 1_555 1_555
H7 C4 1_555 1_555
C5 O1 1_555 1_555
C6 C3 1_555 1_555
C7 C6 1_555 1_555
H8 C7 1_555 1_555
C8 N2 1_555 1_555
H9 C8 1_555 1_555
O2 C5 1_555 1_555
C9 N1 1_555 1_555
H10 C9 1_555 1_555
H11 C9 1_555 1_555
Zn1C O2 1_555 1_555
Zn1E N2 1_555 1_555
N2A Zn1 1_555 1_555
O2C Zn1 1_555 1_555
C1 C2 1_555 1_555
C2 C5 1_555 1_555
C6 C9 1_555 1_555
C7 C8 1_555 1_555

#END
