
#######################################################################
#
#                 Cambridge Crystallographic Data Centre
#                                CCDC 
#
#######################################################################
#
# If this CIF has been generated from an entry in the Cambridge 
# Structural Database, then it will include bibliographic, chemical, 
# crystal, experimental, refinement or atomic coordinate data resulting 
# from the CCDC's data processing and validation procedures.
#
#######################################################################

data_BEPVAV
_symmetry_cell_setting           triclinic
_symmetry_space_group_name_H-M   'P -1'
_symmetry_Int_Tables_number      2
_space_group_name_Hall           '-P 1'
loop_
_symmetry_equiv_pos_site_id
_symmetry_equiv_pos_as_xyz
1 x,y,z
2 -x,-y,-z
_cell_length_a                   11.3700(4)
_cell_length_b                   11.4274(5)
_cell_length_c                   12.1912(6)
_cell_angle_alpha                67.952(4)
_cell_angle_beta                 87.743(3)
_cell_angle_gamma                69.803(3)
_cell_volume                     1370.45
loop_
_atom_site_label
_atom_site_type_symbol
_atom_site_fract_x
_atom_site_fract_y
_atom_site_fract_z
Cu1 Cu 0.68489(4) 0.36753(4) -0.27502(4)
N1 N 1.2778(3) 0.2265(3) 0.9275(3)
C1 C 1.1074(6) 0.5040(5) 0.6507(5)
H1 H 1.0858 0.5855 0.6683
H2 H 1.0338 0.5070 0.6090
H3 H 1.1769 0.4996 0.6004
Cu2 Cu 0.62899(4) -0.18390(4) 0.41948(4)
N2 N 1.2612(3) 0.3385(3) 0.8269(3)
H4 H 1.3170 0.3781 0.8047
C2 C 1.1468(4) 0.3816(4) 0.7647(4)
Cu3 Cu 0.45180(4) 0.12349(4) 0.01006(4)
N3 N 0.8408(3) 0.2273(3) 0.6964(3)
C3 C 1.0866(4) 0.2943(4) 0.8307(4)
C4 C 1.1735(4) 0.1994(4) 0.9312(4)
N4 N 0.6304(3) 0.0901(3) 0.3590(4)
H5 H 0.6092 0.1094 0.2839
N5 N 0.6537(3) -0.0318(3) 0.4494(3)
C5 C 1.1573(4) 0.0843(5) 1.0289(4)
H6 H 1.2310 0.0395 1.0882
H7 H 1.1486 0.0200 0.9975
H8 H 1.0816 0.1165 1.0661
N6 N 0.5650(3) -0.0870(3) 0.2528(3)
C6 C 0.9603(4) 0.2992(5) 0.7978(5)
H9 H 0.9094 0.3940 0.7475
H10 H 0.9189 0.2732 0.8715
N7 N 0.5313(3) 0.2547(3) -0.0843(3)
C7 C 0.9573(4) 0.2122(4) 0.7335(4)
N8 N 0.6735(3) 0.5380(3) -0.3937(3)
C8 C 1.0649(4) 0.1204(4) 0.7141(5)
H11 H 1.1465 0.1119 0.7393
C9 C 1.0493(5) 0.0426(5) 0.6574(5)
H12 H 1.1209 -0.0221 0.6438
C10 C 0.9317(4) 0.0577(5) 0.6206(6)
H13 H 0.9209 0.0040 0.5810
C11 C 0.8279(4) 0.1516(4) 0.6412(5)
C12 C 0.6914(4) 0.1780(5) 0.6043(6)
H14 H 0.6512 0.1432 0.6769
H15 H 0.6463 0.2769 0.5667
C13 C 0.6294(6) 0.3201(5) 0.3175(7)
H16 H 0.7092 0.3207 0.2842
H17 H 0.6049 0.3818 0.3595
H18 H 0.5638 0.3496 0.2531
C14 C 0.6454(4) 0.1787(4) 0.4036(5)
C15 C 0.6743(4) 0.1164(5) 0.5207(5)
C16 C 0.6794(4) -0.0164(4) 0.5469(5)
C17 C 0.7120(4) -0.1297(5) 0.6638(5)
H19 H 0.6935 -0.2050 0.6580
H20 H 0.6623 -0.1004 0.7224
H21 H 0.8019 -0.1592 0.6887
C18 C 0.5227(3) -0.0144(3) 0.1585(3)
C19 C 0.5890(4) 0.3052(3) -0.1544(4)
C20 C 0.6596(3) 0.6416(4) -0.4671(4)
Cu1_2 Cu 0.68489(4) 0.36753(4) 0.72498(4)
N1_2 N 0.2778(3) 0.2265(3) -0.0725(3)
Cu2_2 Cu 0.62899(4) 0.81610(4) -0.58052(4)
Cu3_2 Cu 1.45180(4) 0.12349(4) 1.01006(4)
N3_2 N 0.8408(3) 0.2273(3) -0.3036(3)
C20_2 C 0.6596(3) -0.3584(4) 0.5329(4)
O1 O 0.7020(7) 0.1664(8) 0.1318(7)
N9 N 0.0873(13) 0.6576(10) -0.1209(10)
C21 C 0.215(3) 0.4552(10) 0.0665(10)
H22 H 0.3054 0.4366 0.0782
H23 H 0.2024 0.3784 0.0576
H24 H 0.1749 0.4689 0.1356
C22 C 0.158(3) 0.5771(10) -0.0408(10)
loop_
_geom_bond_atom_site_label_1
_geom_bond_atom_site_label_2
_geom_bond_site_symmetry_1
_geom_bond_site_symmetry_2
Cu1 N8 1_555 1_555
N1 N2 1_555 1_555
C1 H1 1_555 1_555
H2 C1 1_555 1_555
H3 C1 1_555 1_555
Cu2 N5 1_555 1_555
N2 H4 1_555 1_555
C2 C1 1_555 1_555
Cu3 N7 1_555 1_555
N3 C7 1_555 1_555
C3 C2 1_555 1_555
C4 N1 1_555 1_555
N4 H5 1_555 1_555
N5 N4 1_555 1_555
C5 C4 1_555 1_555
H6 C5 1_555 1_555
H7 C5 1_555 1_555
H8 C5 1_555 1_555
N6 Cu2 1_555 1_555
C6 C3 1_555 1_555
H9 C6 1_555 1_555
H10 C6 1_555 1_555
N7 C19 1_555 1_555
C7 C6 1_555 1_555
N8 C20 1_555 1_555
C8 C7 1_555 1_555
H11 C8 1_555 1_555
C9 C8 1_555 1_555
H12 C9 1_555 1_555
C10 C9 1_555 1_555
H13 C10 1_555 1_555
C11 N3 1_555 1_555
C12 C11 1_555 1_555
H14 C12 1_555 1_555
H15 C12 1_555 1_555
C13 H16 1_555 1_555
H17 C13 1_555 1_555
H18 C13 1_555 1_555
C14 N4 1_555 1_555
C15 C12 1_555 1_555
C16 N5 1_555 1_555
C17 C16 1_555 1_555
H19 C17 1_555 1_555
H20 C17 1_555 1_555
H21 C17 1_555 1_555
C18 Cu3 1_555 1_555
C19 Cu1 1_555 1_555
C20 Cu2_2 1_555 1_555
N9 C22 1_555 1_555
C21 H22 1_555 1_555
H23 C21 1_555 1_555
H24 C21 1_555 1_555
C22 C21 1_555 1_555
Cu1_2 N3 1_555 1_555
N1_2 Cu3 1_555 1_555
Cu3_2 N1 1_555 1_555
N3_2 Cu1 1_555 1_555
C20_2 Cu2 1_555 1_555
N2 C2 1_555 1_555
C3 C4 1_555 1_555
N6 C18 1_555 1_555
C10 C11 1_555 1_555
C13 C14 1_555 1_555
C14 C15 1_555 1_555
C15 C16 1_555 1_555

#END
