
#######################################################################
#
#                 Cambridge Crystallographic Data Centre
#                                CCDC 
#
#######################################################################
#
# If this CIF has been generated from an entry in the Cambridge 
# Structural Database, then it will include bibliographic, chemical, 
# crystal, experimental, refinement or atomic coordinate data resulting 
# from the CCDC's data processing and validation procedures.
#
#######################################################################

data_BEPVOJ
_symmetry_cell_setting           triclinic
_symmetry_space_group_name_H-M   'P -1'
_symmetry_Int_Tables_number      2
_space_group_name_Hall           '-P 1'
loop_
_symmetry_equiv_pos_site_id
_symmetry_equiv_pos_as_xyz
1 x,y,z
2 -x,-y,-z
_cell_length_a                   11.5152(3)
_cell_length_b                   11.3120(4)
_cell_length_c                   12.6953(4)
_cell_angle_alpha                114.171(3)
_cell_angle_beta                 91.497(3)
_cell_angle_gamma                68.347(3)
_cell_volume                     1386.93
loop_
_atom_site_label
_atom_site_type_symbol
_atom_site_fract_x
_atom_site_fract_y
_atom_site_fract_z
Cu1 Cu 1.11949(2) -0.17140(2) -0.40603(2)
N1 N 1.77149(16) 0.23978(18) -0.89787(15)
C1 C 1.5916(2) 0.5339(3) -0.6224(2)
H1 H 1.6535 0.5239 -0.5689
H2 H 1.5103 0.5467 -0.5878
H3 H 1.5814 0.6160 -0.6363
Cu2 Cu 0.94181(2) 0.13464(3) 0.00869(2)
N2 N 1.74984(16) 0.35833(19) -0.79804(16)
H4 H 1.8035 0.3997 -0.7771
C2 C 1.6363(2) 0.4055(2) -0.7345(2)
Cu3 Cu 1.18194(2) 0.36024(2) 0.28921(2)
N3 N 1.34428(15) 0.21531(17) -0.69300(15)
C3 C 1.58182(19) 0.3120(2) -0.7978(2)
N4 N 1.12964(15) 0.10101(17) -0.37094(16)
H5 H 1.1078 0.1328 -0.2955
C4 C 1.6688(2) 0.2116(2) -0.8984(2)
N5 N 1.15039(16) -0.03312(18) -0.45053(16)
C5 C 1.6599(2) 0.0861(3) -0.9950(3)
H6 H 1.7356 0.0375 -1.0536
H7 H 1.5849 0.1160 -1.0311
H8 H 1.6533 0.0221 -0.9640
N6 N 1.05413(17) -0.05960(18) -0.24308(15)
C6 C 1.4553(2) 0.3168(2) -0.7642(2)
H9 H 1.4120 0.2982 -0.8340
H10 H 1.4039 0.4136 -0.7055
N7 N 1.02602(16) 0.25937(19) 0.10563(16)
C7 C 1.45813(19) 0.2148(2) -0.7151(2)
N8 N 1.16389(16) 0.5339(2) 0.41813(17)
C8 C 1.5658(2) 0.1271(3) -0.6927(3)
H11 H 1.6459 0.1263 -0.7101
C9 C 1.5564(2) 0.0412(3) -0.6454(3)
H12 H 1.6292 -0.0171 -0.6268
C10 C 1.4385(2) 0.0408(3) -0.6249(3)
H13 H 1.4301 -0.0198 -0.5941
C11 C 1.3347(2) 0.1287(2) -0.6497(2)
C12 C 1.2022(2) 0.1358(3) -0.6313(2)
H14 H 1.1415 0.2336 -0.6099
H15 H 1.1846 0.0746 -0.7062
C13 C 1.1320(2) 0.3294(2) -0.3499(3)
H16 H 1.0528 0.3820 -0.2954
H17 H 1.1309 0.3729 -0.4028
H18 H 1.2032 0.3308 -0.3061
C14 C 1.14619(19) 0.1779(2) -0.4203(2)
C15 C 1.1785(2) 0.0924(2) -0.5392(2)
C16 C 1.18092(19) -0.0377(2) -0.55325(19)
C17 C 1.2103(2) -0.1688(3) -0.6636(2)
H19 H 1.3000 -0.2079 -0.6949
H20 H 1.1588 -0.1466 -0.7209
H21 H 1.1914 -0.2380 -0.6476
C18 C 1.01102(19) 0.0070(2) -0.14624(19)
C19 C 1.08652(19) 0.3021(2) 0.17254(18)
C20 C 1.14982(19) 0.6436(2) 0.48843(19)
Cu1_2 Cu 1.11949(2) 0.82860(2) 0.59397(2)
N1_2 N 0.77149(16) 0.23978(18) 0.10213(15)
Cu2_2 Cu 1.94181(2) 0.13464(3) -0.99131(2)
Cu3_2 Cu 1.18194(2) 0.36024(2) -0.71079(2)
N3_2 N 1.34428(15) 0.21531(17) 0.30700(15)
C20_2 C 1.14982(19) -0.3564(2) -0.51157(19)
O1 O 1.1154(3) 0.2545(3) -0.1212(2)
O2 O 0.8383(3) 0.5151(4) 0.0301(3)
C21 C 0.6094(6) 0.6266(9) 0.0573(9)
H22 H 0.5732 0.5923 0.1021
H23 H 0.5461 0.6650 0.0142
H24 H 0.6354 0.7007 0.1108
C22 C 0.7344(8) 0.4942(6) -0.0361(5)
H25 H 0.7317 0.4018 -0.0529
H26 H 0.7414 0.5022 -0.1103
loop_
_geom_bond_atom_site_label_1
_geom_bond_atom_site_label_2
_geom_bond_site_symmetry_1
_geom_bond_site_symmetry_2
Cu1 N5 1_555 1_555
N1 N2 1_555 1_555
C1 H1 1_555 1_555
H2 C1 1_555 1_555
H3 C1 1_555 1_555
Cu2 N7 1_555 1_555
N2 H4 1_555 1_555
C2 C1 1_555 1_555
Cu3 N8 1_555 1_555
N3 C7 1_555 1_555
C3 C2 1_555 1_555
N4 H5 1_555 1_555
C4 N1 1_555 1_555
N5 N4 1_555 1_555
C5 C4 1_555 1_555
H6 C5 1_555 1_555
H7 C5 1_555 1_555
H8 C5 1_555 1_555
N6 Cu1 1_555 1_555
C6 C3 1_555 1_555
H9 C6 1_555 1_555
H10 C6 1_555 1_555
N7 C19 1_555 1_555
C7 C6 1_555 1_555
N8 C20 1_555 1_555
C8 C7 1_555 1_555
H11 C8 1_555 1_555
C9 C8 1_555 1_555
H12 C9 1_555 1_555
C10 C9 1_555 1_555
H13 C10 1_555 1_555
C11 N3 1_555 1_555
C12 C11 1_555 1_555
H14 C12 1_555 1_555
H15 C12 1_555 1_555
C13 H16 1_555 1_555
H17 C13 1_555 1_555
H18 C13 1_555 1_555
C14 N4 1_555 1_555
C15 C12 1_555 1_555
C16 N5 1_555 1_555
C17 C16 1_555 1_555
H19 C17 1_555 1_555
H20 C17 1_555 1_555
H21 C17 1_555 1_555
C18 Cu2 1_555 1_555
C19 Cu3 1_555 1_555
C20 Cu1_2 1_555 1_555
O2 C22 1_555 1_555
C21 H22 1_555 1_555
H23 C21 1_555 1_555
H24 C21 1_555 1_555
C22 C21 1_555 1_555
H25 C22 1_555 1_555
H26 C22 1_555 1_555
N1_2 Cu2 1_555 1_555
Cu2_2 N1 1_555 1_555
Cu3_2 N3 1_555 1_555
N3_2 Cu3 1_555 1_555
C20_2 Cu1 1_555 1_555
N2 C2 1_555 1_555
C3 C4 1_555 1_555
N6 C18 1_555 1_555
C10 C11 1_555 1_555
C13 C14 1_555 1_555
C14 C15 1_555 1_555
C15 C16 1_555 1_555

#END
