
#######################################################################
#
#                 Cambridge Crystallographic Data Centre
#                                CCDC 
#
#######################################################################
#
# If this CIF has been generated from an entry in the Cambridge 
# Structural Database, then it will include bibliographic, chemical, 
# crystal, experimental, refinement or atomic coordinate data resulting 
# from the CCDC's data processing and validation procedures.
#
#######################################################################

data_BERFIP
_symmetry_cell_setting           monoclinic
_symmetry_space_group_name_H-M   'C 2/c'
_symmetry_Int_Tables_number      15
_space_group_name_Hall           '-C 2yn'
loop_
_symmetry_equiv_pos_site_id
_symmetry_equiv_pos_as_xyz
1 x,y,z
2 -x,y,1/2-z
3 1/2+x,1/2+y,z
4 1/2-x,1/2+y,1/2-z
5 -x,-y,-z
6 x,-y,1/2+z
7 1/2-x,1/2-y,-z
8 1/2+x,1/2-y,1/2+z
_cell_length_a                   7.9770(9)
_cell_length_b                   16.763(2)
_cell_length_c                   15.8519(19)
_cell_angle_alpha                90
_cell_angle_beta                 100.788(2)
_cell_angle_gamma                90
_cell_volume                     2082.23
loop_
_atom_site_label
_atom_site_type_symbol
_atom_site_fract_x
_atom_site_fract_y
_atom_site_fract_z
Zn1 Zn 1.0000 0.06447(9) 0.2500
Zn2 Zn 0.57382(15) 0.17562(7) 0.50431(8)
C1 C 0.3042(12) 0.0950(6) 0.5014(6)
O1 O 0.4062(8) 0.0779(4) 0.4528(4)
O2 O 0.3325(8) 0.1528(4) 0.5518(4)
C2 C 0.0385(11) 0.0622(5) 0.5562(5)
H1 H 0.0654 0.1044 0.5945
C3 C 0.1070(11) -0.0184(5) 0.4419(5)
C4 C 0.1470(11) 0.0454(5) 0.4988(5)
N1 N 0.7387(9) 0.1709(4) 0.4237(4)
N2 N 0.6436(10) 0.0550(5) 0.3402(5)
H2 H 0.5578 0.0482 0.3652
H3 H 0.6606 0.0225 0.3006
C5 C 0.7522(11) 0.1169(5) 0.3633(5)
N3 N 0.8920(9) 0.1308(4) 0.3277(5)
C6 C 0.9620(11) 0.1964(5) 0.3688(5)
H4 H 1.0609 0.2204 0.3580
N4 N 0.8753(7) 0.2227(3) 0.4259(4)
O3 O 0.3909(7) 0.2406(3) 0.3992(4)
H5 H 0.3324 0.2408 0.4399
H6 H 0.3360 0.2717 0.3617
O4 O 0.3107(10) -0.1007(5) 0.3908(5)
C7 C 0.2110(13) -0.0423(6) 0.3758(6)
O5 O 0.1829(9) -0.0082(4) 0.3033(4)
C1D C -0.3042(12) -0.0950(6) 0.4986(6)
O1D O -0.4062(8) -0.0779(4) 0.5472(4)
O2D O -0.3325(8) -0.1528(4) 0.4482(4)
C2D C -0.0385(11) -0.0622(5) 0.4438(5)
H1D H -0.0654 -0.1044 0.4055
C3D C -0.1070(11) 0.0184(5) 0.5581(5)
C4D C -0.1470(11) -0.0454(5) 0.5012(5)
O4D O -0.3107(10) 0.1007(5) 0.6092(5)
C7D C -0.2110(13) 0.0423(6) 0.6242(6)
O5D O -0.1829(9) 0.0082(4) 0.6967(4)
Zn2A Zn 1.42618(15) 0.17562(7) -0.00431(8)
N1A N 1.2613(9) 0.1709(4) 0.0763(4)
N2A N 1.3564(10) 0.0550(5) 0.1598(5)
H2A H 1.4422 0.0482 0.1348
H3A H 1.3394 0.0225 0.1994
C5A C 1.2478(11) 0.1169(5) 0.1367(5)
N3A N 1.1080(9) 0.1308(4) 0.1723(5)
C6A C 1.0380(11) 0.1964(5) 0.1312(5)
H4A H 0.9391 0.2204 0.1420
N4A N 1.1247(7) 0.2227(3) 0.0741(4)
O3A O 1.6091(7) 0.2406(3) 0.1008(4)
H5A H 1.6676 0.2408 0.0601
H6A H 1.6640 0.2717 0.1383
Zn1_2 Zn 0.0000 0.06447(9) 0.2500
Zn1D Zn 0.0000 -0.06447(9) 0.7500
Zn2_2 Zn -0.42618(15) 0.17562(7) 0.50431(8)
Zn2D Zn -0.57382(15) -0.17562(7) 0.49569(8)
Zn2D_2 Zn 0.42618(15) -0.17562(7) 0.49569(8)
Zn2F Zn 0.92618(15) 0.32438(7) 0.49569(8)
Zn2G Zn 1.07382(15) 0.32438(7) 0.00431(8)
O1A O 1.5938(8) 0.0779(4) 0.0472(4)
O2A O 1.6675(8) 0.1528(4) -0.0518(4)
N4F N 0.6247(7) 0.2773(3) 0.5741(4)
N4G N 1.3753(7) 0.2773(3) -0.0741(4)
O4D_2 O 0.6893(10) 0.1007(5) 0.6092(5)
O4E O 1.3107(10) 0.1007(5) -0.1092(5)
O5_2 O 1.1829(9) -0.0082(4) 0.3033(4)
O5A O 0.8171(9) -0.0082(4) 0.1967(4)
O6 O 0.0000(7) 0.1909(3) 0.7500(4)
O7 O 0.151(6) 0.344(3) 0.269(4)
loop_
_geom_bond_atom_site_label_1
_geom_bond_atom_site_label_2
_geom_bond_site_symmetry_1
_geom_bond_site_symmetry_2
Zn1 N3 1_555 1_555
Zn2 O1 1_555 1_555
C1 O1 1_555 1_555
O2 Zn2 1_555 1_555
C2 H1 1_555 1_555
C3 C4 1_555 1_555
C4 C1 1_555 1_555
N1 Zn2 1_555 1_555
N2 H2 1_555 1_555
H3 N2 1_555 1_555
C5 N1 1_555 1_555
N3 C5 1_555 1_555
C6 N3 1_555 1_555
H4 C6 1_555 1_555
N4 N1 1_555 1_555
O3 Zn2 1_555 1_555
H5 O3 1_555 1_555
H6 O3 1_555 1_555
O4 C7 1_555 1_555
C7 C3 1_555 1_555
O5 C7 1_555 1_555
C1D O1D 1_555 1_555
O1D Zn2D 1_555 1_555
O2D C1D 1_555 1_555
C2D C3 1_555 1_555
H1D C2D 1_555 1_555
C3D C2 1_555 1_555
C4D C1D 1_555 1_555
O4D C7D 1_555 1_555
C7D C3D 1_555 1_555
O5D C7D 1_555 1_555
Zn2A N1A 1_555 1_555
N1A C5A 1_555 1_555
N2A H2A 1_555 1_555
H3A N2A 1_555 1_555
C5A N2A 1_555 1_555
N3A Zn1 1_555 1_555
C6A N3A 1_555 1_555
H4A C6A 1_555 1_555
N4A N1A 1_555 1_555
O3A Zn2A 1_555 1_555
H5A O3A 1_555 1_555
H6A O3A 1_555 1_555
Zn1_2 O5 1_555 1_555
Zn1D O5D 1_555 1_555
Zn2_2 O4D 1_555 1_555
Zn2D O2D 1_555 1_555
Zn2D_2 O4 1_555 1_555
Zn2F N4 1_555 1_555
Zn2G N4A 1_555 1_555
O1A Zn2A 1_555 1_555
O2A Zn2A 1_555 1_555
N4F Zn2 1_555 1_555
N4G Zn2A 1_555 1_555
O4D_2 Zn2 1_555 1_555
O4E Zn2A 1_555 1_555
O5_2 Zn1 1_555 1_555
O5A Zn1 1_555 1_555
C1 O2 1_555 1_555
C2 C4 1_555 1_555
N2 C5 1_555 1_555
C6 N4 1_555 1_555
C2D C4D 1_555 1_555
C3D C4D 1_555 1_555
C5A N3A 1_555 1_555
C6A N4A 1_555 1_555

#END
