
#######################################################################
#
#                 Cambridge Crystallographic Data Centre
#                                CCDC 
#
#######################################################################
#
# If this CIF has been generated from an entry in the Cambridge 
# Structural Database, then it will include bibliographic, chemical, 
# crystal, experimental, refinement or atomic coordinate data resulting 
# from the CCDC's data processing and validation procedures.
#
#######################################################################

data_BETZOR
_symmetry_cell_setting           monoclinic
_symmetry_space_group_name_H-M   'C 2/c'
_symmetry_Int_Tables_number      15
_space_group_name_Hall           '-C 2yn'
loop_
_symmetry_equiv_pos_site_id
_symmetry_equiv_pos_as_xyz
1 x,y,z
2 -x,y,1/2-z
3 1/2+x,1/2+y,z
4 1/2-x,1/2+y,1/2-z
5 -x,-y,-z
6 x,-y,1/2+z
7 1/2-x,1/2-y,-z
8 1/2+x,1/2-y,1/2+z
_cell_length_a                   40.229(8)
_cell_length_b                   21.504(4)
_cell_length_c                   15.251(3)
_cell_angle_alpha                90
_cell_angle_beta                 110.11(3)
_cell_angle_gamma                90
_cell_volume                     12389.1
loop_
_atom_site_label
_atom_site_type_symbol
_atom_site_fract_x
_atom_site_fract_y
_atom_site_fract_z
Mn1 Mn 0.233891(12) 0.457933(19) 0.63991(3)
Mn2 Mn 0.281795(12) 0.45287(2) 0.88798(3)
Mn3 Mn 0.466863(13) 0.07050(2) 0.98155(4)
O1 O 0.23551(6) 0.48374(10) 0.34738(14)
O2 O 0.20300(6) 0.48571(10) 0.19544(15)
O3 O 0.25778(5) 0.39486(10) 0.76268(12)
O4 O 0.27593(6) 0.47362(10) 1.18653(15)
O5 O 0.31321(6) 0.48844(10) 1.33250(14)
O6 O 0.21778(8) 0.51484(10) 0.51219(15)
O7 O 0.18974(6) 0.39605(9) 0.58671(13)
O8 O 0.23576(6) 0.09617(9) 0.42753(14)
O9 O 0.30204(6) 0.51117(9) 1.01209(13)
O10 O 0.24728(6) 0.10622(10) 1.04434(14)
O11 O 0.27591(6) 0.17357(10) 1.15674(14)
O12 O 0.32715(6) 0.39255(9) 0.94629(14)
O13 O 0.21320(6) 0.17519(10) 0.33088(14)
O14 O 0.47297(7) 0.17365(12) 0.9882(2)
O15 O 0.42273(6) 0.13734(10) 0.98964(17)
O16 O 0.02262(7) 0.44278(12) 0.5296(2)
O17 O 0.46891(9) 0.06444(16) 0.8394(2)
O18 O 0.07138(7) 0.49635(10) 0.55451(19)
O19 O 0.47623(7) 0.04400(14) 1.12787(19)
P1 P 0.34203(2) 0.33842(3) 1.00937(5)
P2 P 0.16956(2) 0.34706(3) 0.52107(5)
C1 C 0.18786(8) 0.40178(13) 0.38317(19)
H1 H 0.2096 0.4098 0.4322
C2 C 0.18265(8) 0.42433(13) 0.2932(2)
C3 C 0.15155(9) 0.40964(16) 0.2211(2)
H2 H 0.1479 0.4241 0.1596
C4 C 0.12563(10) 0.37381(18) 0.2385(2)
H3 H 0.1048 0.3625 0.1886
C5 C 0.20947(8) 0.46748(14) 0.2770(2)
C6 C 0.30361(8) 0.46191(13) 1.2532(2)
C7 C 0.32819(8) 0.41436(13) 1.2380(2)
C8 C 0.35553(10) 0.38864(17) 1.3119(2)
H4 H 0.3585 0.4000 1.3743
C9 C 0.37846(10) 0.3465(2) 1.2945(2)
H5 H 0.3968 0.3286 1.3454
C10 C 0.22120(8) 0.14939(13) 0.40833(19)
C11 C 0.19816(8) 0.24128(13) 0.4701(2)
H6 H 0.1927 0.2597 0.4102
C12 C 0.21349(8) 0.18279(13) 0.48673(19)
C13 C 0.22162(8) 0.15527(14) 0.5743(2)
H7 H 0.2320 0.1150 0.5857
C14 C 0.21438(8) 0.18742(14) 0.6448(2)
H8 H 0.2200 0.1688 0.7047
C15 C 0.19920(8) 0.24587(14) 0.6295(2)
H9 H 0.1946 0.2675 0.6784
C16 C 0.26682(8) 0.15333(13) 1.0749(2)
C17 C 0.28104(8) 0.18618(13) 1.0075(2)
C18 C 0.27297(8) 0.16498(14) 0.9159(2)
H10 H 0.2583 0.1295 0.8952
C19 C 0.30225(8) 0.23849(13) 1.0370(2)
H11 H 0.3079 0.2530 1.0992
C20 C 0.31520(8) 0.26966(13) 0.9756(2)
C21 C 0.30734(9) 0.24796(14) 0.8847(2)
H12 H 0.3164 0.2691 0.8431
C22 C 0.28639(8) 0.19587(14) 0.8547(2)
H13 H 0.2811 0.1811 0.7927
C23 C 0.32400(8) 0.39659(13) 1.1468(2)
H14 H 0.3048 0.4127 1.0961
C24 C 0.34761(8) 0.35559(14) 1.1296(2)
C25 C 0.37503(10) 0.32986(18) 1.2036(2)
H15 H 0.3911 0.3014 1.1922
C26 C 0.38523(8) 0.31879(14) 1.0074(2)
C27 C 0.39668(8) 0.25836(13) 1.0026(2)
H16 H 0.3813 0.2245 1.0005
C28 C 0.43083(9) 0.24694(14) 1.0010(2)
C29 C 0.45357(9) 0.29667(15) 1.0067(3)
H17 H 0.4770 0.2892 1.0079
C30 C 0.44210(10) 0.35749(16) 1.0108(3)
H18 H 0.4576 0.3914 1.0135
C31 C 0.40839(10) 0.36836(15) 1.0107(2)
H19 H 0.4007 0.4099 1.0130
C32 C 0.44302(9) 0.18179(15) 0.9934(2)
C33 C 0.05437(9) 0.44539(15) 0.5416(2)
C34 C 0.07400(8) 0.38730(14) 0.5367(2)
C35 C 0.10856(9) 0.39080(14) 0.5377(2)
H20 H 0.1200 0.4300 0.5439
C36 C 0.12655(8) 0.33666(14) 0.5297(2)
C37 C 0.10990(9) 0.27931(15) 0.5205(2)
H21 H 0.1219 0.2426 0.5139
C38 C 0.07520(9) 0.27604(15) 0.5210(3)
H22 H 0.0640 0.2367 0.5169
C39 C 0.05707(9) 0.32926(14) 0.5274(2)
H23 H 0.0333 0.3267 0.5257
C40 C 0.19069(8) 0.27302(14) 0.5402(2)
C41 C 0.16161(8) 0.36794(13) 0.4012(2)
C42 C 0.13033(9) 0.35467(16) 0.3286(2)
H24 H 0.1121 0.3323 0.3409
Mn1E Mn 0.233891(12) 0.542067(19) 0.13991(3)
Mn1E_2 Mn 0.233891(12) 0.542067(19) 1.13991(3)
Mn1F Mn 0.266109(12) 0.042067(19) 0.36009(3)
Mn2E Mn 0.281795(12) 0.54713(2) 0.38798(3)
Mn2E_2 Mn 0.281795(12) 0.54713(2) 1.38798(3)
Mn2F Mn 0.218205(12) 0.04713(2) 1.11202(3)
Mn3C Mn 0.033137(13) 0.57050(2) 0.51845(4)
Mn3G Mn -0.033137(13) 0.42950(2) 0.48155(4)
O1E O 0.23551(6) 0.51626(10) 0.84738(14)
O2E O 0.20300(6) 0.51429(10) 0.69544(15)
O4E O 0.27593(6) 0.52638(10) 0.68653(15)
O5E O 0.31321(6) 0.51156(10) 0.83250(14)
O8F O 0.26424(6) 0.40383(9) 0.57247(14)
O10F O 0.25272(6) 0.39378(10) 0.95566(14)
O16G O 0.52262(7) 0.05722(12) 1.0296(2)
O18C O 0.42862(7) -0.00365(10) 0.94549(19)
loop_
_geom_bond_atom_site_label_1
_geom_bond_atom_site_label_2
_geom_bond_site_symmetry_1
_geom_bond_site_symmetry_2
Mn1 O3 1_555 1_555
Mn2 O3 1_555 1_555
Mn3 O14 1_555 1_555
O1 C5 1_555 1_555
O2 C5 1_555 1_555
O4 C6 1_555 1_555
O5 C6 1_555 1_555
O6 Mn1 1_555 1_555
O7 Mn1 1_555 1_555
O8 C10 1_555 1_555
O9 Mn2 1_555 1_555
O10 C16 1_555 1_555
O11 C16 1_555 1_555
O12 Mn2 1_555 1_555
O13 C10 1_555 1_555
O14 C32 1_555 1_555
O15 Mn3 1_555 1_555
O16 C33 1_555 1_555
O17 Mn3 1_555 1_555
O18 C33 1_555 1_555
O19 Mn3 1_555 1_555
P1 O12 1_555 1_555
P2 O7 1_555 1_555
C1 H1 1_555 1_555
C2 C1 1_555 1_555
C3 C2 1_555 1_555
H2 C3 1_555 1_555
C4 C3 1_555 1_555
H3 C4 1_555 1_555
C5 C2 1_555 1_555
C6 C7 1_555 1_555
C7 C8 1_555 1_555
C8 H4 1_555 1_555
C9 C8 1_555 1_555
H5 C9 1_555 1_555
C10 C12 1_555 1_555
C11 H6 1_555 1_555
C12 C11 1_555 1_555
C13 C12 1_555 1_555
H7 C13 1_555 1_555
C14 C13 1_555 1_555
H8 C14 1_555 1_555
C15 C14 1_555 1_555
H9 C15 1_555 1_555
C16 C17 1_555 1_555
C17 C18 1_555 1_555
C18 H10 1_555 1_555
C19 C17 1_555 1_555
H11 C19 1_555 1_555
C20 P1 1_555 1_555
C21 C20 1_555 1_555
H12 C21 1_555 1_555
C22 C18 1_555 1_555
H13 C22 1_555 1_555
C23 C7 1_555 1_555
H14 C23 1_555 1_555
C24 P1 1_555 1_555
C25 C9 1_555 1_555
H15 C25 1_555 1_555
C26 P1 1_555 1_555
C27 C26 1_555 1_555
H16 C27 1_555 1_555
C28 C27 1_555 1_555
C29 C28 1_555 1_555
H17 C29 1_555 1_555
C30 C29 1_555 1_555
H18 C30 1_555 1_555
C31 C26 1_555 1_555
H19 C31 1_555 1_555
C32 O15 1_555 1_555
C33 C34 1_555 1_555
C34 C35 1_555 1_555
C35 H20 1_555 1_555
C36 P2 1_555 1_555
C37 C36 1_555 1_555
H21 C37 1_555 1_555
C38 C37 1_555 1_555
H22 C38 1_555 1_555
C39 C34 1_555 1_555
H23 C39 1_555 1_555
C40 P2 1_555 1_555
C41 P2 1_555 1_555
C42 C4 1_555 1_555
H24 C42 1_555 1_555
Mn1E O2 1_555 1_555
Mn1E_2 O4 1_555 1_555
Mn1F O8 1_555 1_555
Mn2E O1 1_555 1_555
Mn2E_2 O5 1_555 1_555
Mn2F O10 1_555 1_555
Mn3C O18 1_555 1_555
Mn3G O16 1_555 1_555
O1E Mn2 1_555 1_555
O2E Mn1 1_555 1_555
O4E Mn1 1_555 1_555
O5E Mn2 1_555 1_555
O8F Mn1 1_555 1_555
O10F Mn2 1_555 1_555
O16G Mn3 1_555 1_555
O18C Mn3 1_555 1_555
C1 C41 1_555 1_555
C11 C40 1_555 1_555
C15 C40 1_555 1_555
C19 C20 1_555 1_555
C21 C22 1_555 1_555
C23 C24 1_555 1_555
C24 C25 1_555 1_555
C28 C32 1_555 1_555
C30 C31 1_555 1_555
C35 C36 1_555 1_555
C38 C39 1_555 1_555
C41 C42 1_555 1_555

#END
