
#######################################################################
#
#                 Cambridge Crystallographic Data Centre
#                                CCDC 
#
#######################################################################
#
# If this CIF has been generated from an entry in the Cambridge 
# Structural Database, then it will include bibliographic, chemical, 
# crystal, experimental, refinement or atomic coordinate data resulting 
# from the CCDC's data processing and validation procedures.
#
#######################################################################

data_BEVQID
_symmetry_cell_setting           tetragonal
_symmetry_space_group_name_H-M   'I -4 m 2'
_symmetry_Int_Tables_number      119
_space_group_name_Hall           'I -4 -2'
loop_
_symmetry_equiv_pos_site_id
_symmetry_equiv_pos_as_xyz
1 x,y,z
2 y,-x,-z
3 -x,y,z
4 -x,-y,z
5 y,x,-z
6 -y,x,-z
7 x,-y,z
8 -y,-x,-z
9 1/2+x,1/2+y,1/2+z
10 1/2+y,1/2-x,1/2-z
11 1/2-x,1/2+y,1/2+z
12 1/2-x,1/2-y,1/2+z
13 1/2+y,1/2+x,1/2-z
14 1/2-y,1/2+x,1/2-z
15 1/2+x,1/2-y,1/2+z
16 1/2-y,1/2-x,1/2-z
_cell_length_a                   11.2362(4)
_cell_length_b                   11.2362(4)
_cell_length_c                   8.6084(3)
_cell_angle_alpha                90
_cell_angle_beta                 90
_cell_angle_gamma                90
_cell_volume                     1086.83
loop_
_atom_site_label
_atom_site_type_symbol
_atom_site_fract_x
_atom_site_fract_y
_atom_site_fract_z
Cd1 Cd 0.5000 0.5000 0.5000
Zr1 Zr 0.5000 0.0000 0.2500
Sr1 Sr 0.5000 0.5000 0.0000
O1 O 0.5000 0.3771(3) 0.256(1)
O2 O 0.5000 0.1857(4) 0.1848(5)
O3 O 0.5000 0.2968(6) 0.5622(8)
O4 O 0.5000 0.1117(4) 0.4629(5)
O5 O 0.2889(9) 0.5000 0.105(1)
H1 H 0.205(1) 0.5000 0.091(7)
H2 H 0.296(5) 0.5000 0.216(3)
C1 C 0.5000 0.2233(5) 0.4534(7)
C2 C 0.5000 0.2687(6) 0.2860(5)
O1A O 0.3771(3) 0.5000 0.744(1)
O2A O 0.1857(4) 0.5000 0.8152(5)
O3A O 0.2968(6) 0.5000 0.4378(8)
O4A O 0.1117(4) 0.5000 0.5371(5)
C1A C 0.2233(5) 0.5000 0.5466(7)
C2A C 0.2687(6) 0.5000 0.7140(5)
O1C O 0.5000 0.6229(3) 0.256(1)
O2C O 0.5000 0.8143(4) 0.1848(5)
O3C O 0.5000 0.7032(6) 0.5622(8)
O4C O 0.5000 0.8883(4) 0.4629(5)
C1C C 0.5000 0.7767(5) 0.4534(7)
C2C C 0.5000 0.7313(6) 0.2860(5)
O1E O 0.6229(3) 0.5000 0.744(1)
O2E O 0.8143(4) 0.5000 0.8152(5)
O3E O 0.7032(6) 0.5000 0.4378(8)
O4E O 0.8883(4) 0.5000 0.5371(5)
C1E C 0.7767(5) 0.5000 0.5466(7)
C2E C 0.7313(6) 0.5000 0.7140(5)
O5A O 0.5000 0.7111(9) -0.105(1)
H1A H 0.5000 0.795(1) -0.091(7)
H2A H 0.5000 0.704(5) -0.216(3)
O5B O 0.7111(9) 0.5000 0.105(1)
H1B H 0.795(1) 0.5000 0.091(7)
H2B H 0.704(5) 0.5000 0.216(3)
O5D O 0.5000 0.2889(9) -0.105(1)
H1D H 0.5000 0.205(1) -0.091(7)
H2D H 0.5000 0.296(5) -0.216(3)
O2C_2 O 0.5000 -0.1857(4) 0.1848(5)
O2I O 0.6857(4) 0.0000 0.3152(5)
O2M O 0.3143(4) 0.0000 0.3152(5)
O4C_2 O 0.5000 -0.1117(4) 0.4629(5)
O4I O 0.6117(4) 0.0000 0.0371(5)
O4M O 0.3883(4) 0.0000 0.0371(5)
O1A_2 O 0.3771(3) 0.5000 -0.256(1)
O1E_2 O 0.6229(3) 0.5000 -0.256(1)
Sr1_2 Sr 0.5000 0.5000 1.0000
Zr1A Zr 0.0000 0.5000 0.7500
Zr1_2 Zr 0.5000 1.0000 0.2500
Zr1A_2 Zr 1.0000 0.5000 0.7500
O6 O 0.5000 0.0000 0.7500
O7 O 0.753(2) -0.253(2) 0.7500
loop_
_geom_bond_atom_site_label_1
_geom_bond_atom_site_label_2
_geom_bond_site_symmetry_1
_geom_bond_site_symmetry_2
Cd1 O1 1_555 1_555
Zr1 O2 1_555 1_555
Sr1 O1 1_555 1_555
O1 C2 1_555 1_555
O2 C2 1_555 1_555
O3 Cd1 1_555 1_555
O4 Zr1 1_555 1_555
O5 Sr1 1_555 1_555
H1 O5 1_555 1_555
H2 O5 1_555 1_555
C1 O3 1_555 1_555
C2 C1 1_555 1_555
O1A Cd1 1_555 1_555
O2A C2A 1_555 1_555
O3A Cd1 1_555 1_555
O4A C1A 1_555 1_555
C1A O3A 1_555 1_555
C2A O1A 1_555 1_555
O1C Cd1 1_555 1_555
O2C C2C 1_555 1_555
O3C Cd1 1_555 1_555
O4C C1C 1_555 1_555
C1C O3C 1_555 1_555
C2C O1C 1_555 1_555
O1E Cd1 1_555 1_555
O2E C2E 1_555 1_555
O3E Cd1 1_555 1_555
O4E C1E 1_555 1_555
C1E O3E 1_555 1_555
C2E O1E 1_555 1_555
O5A Sr1 1_555 1_555
H1A O5A 1_555 1_555
H2A O5A 1_555 1_555
O5B Sr1 1_555 1_555
H1B O5B 1_555 1_555
H2B O5B 1_555 1_555
O5D Sr1 1_555 1_555
H1D O5D 1_555 1_555
H2D O5D 1_555 1_555
O2C_2 Zr1 1_555 1_555
O2I Zr1 1_555 1_555
O2M Zr1 1_555 1_555
O4C_2 Zr1 1_555 1_555
O4I Zr1 1_555 1_555
O4M Zr1 1_555 1_555
O1A_2 Sr1 1_555 1_555
O1E_2 Sr1 1_555 1_555
Sr1_2 O1A 1_555 1_555
Zr1A O2A 1_555 1_555
Zr1_2 O2C 1_555 1_555
Zr1A_2 O2E 1_555 1_555
Sr1 O1C 1_555 1_555
O4 C1 1_555 1_555
O4A Zr1A 1_555 1_555
C1A C2A 1_555 1_555
O4C Zr1_2 1_555 1_555
C1C C2C 1_555 1_555
O1E Sr1_2 1_555 1_555
O4E Zr1A_2 1_555 1_555
C1E C2E 1_555 1_555

#END
