
#######################################################################
#
#                 Cambridge Crystallographic Data Centre
#                                CCDC 
#
#######################################################################
#
# If this CIF has been generated from an entry in the Cambridge 
# Structural Database, then it will include bibliographic, chemical, 
# crystal, experimental, refinement or atomic coordinate data resulting 
# from the CCDC's data processing and validation procedures.
#
#######################################################################

data_BEXRUT
_symmetry_cell_setting           monoclinic
_symmetry_space_group_name_H-M   'P 21/c'
_symmetry_Int_Tables_number      14
_space_group_name_Hall           '-P 2ybc'
loop_
_symmetry_equiv_pos_site_id
_symmetry_equiv_pos_as_xyz
1 x,y,z
2 -x,1/2+y,1/2-z
3 -x,-y,-z
4 x,1/2-y,1/2+z
_cell_length_a                   12.4428(4)
_cell_length_b                   17.7483(6)
_cell_length_c                   12.2315(3)
_cell_angle_alpha                90
_cell_angle_beta                 112.5100(10)
_cell_angle_gamma                90
_cell_volume                     2495.39
loop_
_atom_site_label
_atom_site_type_symbol
_atom_site_fract_x
_atom_site_fract_y
_atom_site_fract_z
Ni1 Ni 0.5000 0.5000 0.0000
Ni2 Ni -0.06103(4) 0.70448(3) -0.15437(4)
O1 O 0.5056(2) 0.57614(14) -0.8710(2)
O2 O 0.3593(2) 0.54282(16) -0.8177(2)
C1 C 0.4465(3) 0.5829(2) -0.8081(3)
C2 C 0.4844(3) 0.6418(2) -0.7136(3)
C3 C 0.5832(3) 0.6854(2) -0.6962(3)
H1 H 0.6239 0.6787 -0.7472
C4 C 0.6230(3) 0.7382(2) -0.6059(3)
C5 C 0.5626(3) 0.7486(2) -0.5317(3)
H2 H 0.5894 0.7843 -0.4691
C6 C 0.4628(3) 0.7066(2) -0.5498(3)
C7 C 0.4252(3) 0.6531(2) -0.6395(3)
H3 H 0.3579 0.6240 -0.6502
C8 C 0.7312(3) 0.7817(2) -0.5873(3)
O3 O 0.7684(2) 0.82799(15) -0.5016(2)
O4 O 0.7778(2) 0.77017(16) -0.6609(2)
C9 C 0.3997(3) 0.7155(2) -0.4677(3)
H4 H 0.4112 0.7669 -0.4336
H5 H 0.3153 0.7067 -0.5103
O5 O 0.4488(2) 0.66042(16) -0.3766(2)
C10 C 0.3983(3) 0.6519(2) -0.2958(3)
C11 C 0.3037(3) 0.6909(2) -0.2948(3)
H6 H 0.2686 0.7294 -0.3512
C12 C 0.2605(3) 0.6722(2) -0.2081(3)
C13 C 0.3163(3) 0.6169(2) -0.1267(3)
H7 H 0.2859 0.6037 -0.0689
N1 N 0.4113(3) 0.58083(18) -0.1257(2)
C14 C 0.4498(3) 0.5982(2) -0.2102(3)
H8 H 0.5162 0.5724 -0.2115
C15 C 0.1537(3) 0.7107(2) -0.2071(3)
O6 O 0.1016(2) 0.67939(16) -0.1494(2)
O7 O 0.1243(2) 0.77141(16) -0.2656(2)
O8 O 0.3394(2) 0.46115(15) -0.0099(2)
H9 H 0.3385 0.4800 0.0602
H10 H 0.3125 0.4177 -0.0165
O9 O -0.1331(2) 0.64549(17) -0.3095(2)
H11 H -0.0906 0.6251 -0.3494
H12 H -0.1968 0.6143 -0.3273
O10 O -0.0747(2) 0.80236(16) -0.2503(2)
H13 H -0.1470 0.8072 -0.3135
H14 H -0.0151 0.8167 -0.2830
O11 O -0.0553(2) 0.61070(16) -0.0476(2)
H15 H -0.1086 0.6217 -0.0281
H16 H -0.0770 0.5636 -0.0807
O12 O 0.0174(3) 0.76485(17) -0.0023(2)
H17 H 0.0507 0.7434 0.0768
H18 H 0.0127 0.8145 0.0130
Ni2B Ni 1.06103(4) 0.29552(3) -0.84563(4)
O1B O 0.4944(2) 0.42386(14) -0.1290(2)
O2B O 0.6407(2) 0.45718(16) -0.1823(2)
C1B C 0.5535(3) 0.4171(2) -0.1919(3)
C2B C 0.5156(3) 0.3582(2) -0.2864(3)
C3B C 0.4168(3) 0.3146(2) -0.3038(3)
H1B H 0.3761 0.3213 -0.2528
C4B C 0.3770(3) 0.2618(2) -0.3941(3)
C5B C 0.4374(3) 0.2514(2) -0.4683(3)
H2B H 0.4106 0.2157 -0.5309
C6B C 0.5372(3) 0.2934(2) -0.4502(3)
C7B C 0.5748(3) 0.3469(2) -0.3605(3)
H3B H 0.6421 0.3760 -0.3498
C8B C 0.2688(3) 0.2183(2) -0.4127(3)
O3B O 0.2316(2) 0.17201(15) -0.4984(2)
O4B O 0.2222(2) 0.22983(16) -0.3391(2)
C9B C 0.6003(3) 0.2845(2) -0.5323(3)
H4B H 0.5888 0.2331 -0.5664
H5B H 0.6847 0.2933 -0.4897
O5B O 0.5512(2) 0.33958(16) -0.6234(2)
C10B C 0.6017(3) 0.3481(2) -0.7042(3)
C11B C 0.6963(3) 0.3091(2) -0.7052(3)
H6B H 0.7314 0.2706 -0.6488
C12B C 0.7395(3) 0.3278(2) -0.7919(3)
C13B C 0.6837(3) 0.3831(2) -0.8733(3)
H7B H 0.7141 0.3963 -0.9311
N1B N 0.5887(3) 0.41917(18) -0.8743(2)
C14B C 0.5502(3) 0.4018(2) -0.7898(3)
H8B H 0.4838 0.4276 -0.7885
C15B C 0.8463(3) 0.2893(2) -0.7929(3)
O6B O 0.8984(2) 0.32061(16) -0.8506(2)
O7B O 0.8757(2) 0.22859(16) -0.7344(2)
O9B O 1.1331(2) 0.35451(17) -0.6905(2)
H11B H 1.0906 0.3749 -0.6506
H12B H 1.1968 0.3857 -0.6727
O10B O 1.0747(2) 0.19764(16) -0.7497(2)
H13B H 1.1470 0.1928 -0.6865
H14B H 1.0151 0.1833 -0.7170
O11B O 1.0553(2) 0.38930(16) -0.9524(2)
H15B H 1.1086 0.3783 -0.9719
H16B H 1.0770 0.4364 -0.9193
O12B O 0.9826(3) 0.23515(17) -0.9977(2)
H17B H 0.9493 0.2566 -1.0768
H18B H 0.9873 0.1855 -1.0130
O8B O 0.6606(2) 0.53885(15) 0.0099(2)
H9B H 0.6615 0.5200 -0.0602
H10B H 0.6875 0.5823 0.0165
Ni1_2 Ni 0.5000 0.5000 -1.0000
Ni2A Ni 0.06103(4) 0.20448(3) -0.34563(4)
Ni2C Ni 0.93897(4) 0.79552(3) -0.65437(4)
O1_2 O 0.5056(2) 0.57614(14) 0.1290(2)
O4A O 1.2222(2) 0.27017(16) -0.8391(2)
O4C O -0.2222(2) 0.72983(16) -0.1609(2)
N1B_2 N 0.5887(3) 0.41917(18) 0.1257(2)
O13 O 0.0162(3) 0.90452(17) 0.0866(3)
C16 C 0.0925(5) 0.9610(4) 0.1289(6)
C17 C 0.0877(5) 1.0031(3) 0.2407(4)
H19 H 0.1641 1.0003 0.3058
H20 H 0.0293 0.9791 0.2648
H21 H 0.0668 1.0560 0.2209
N2 N 0.1636(5) 0.9777(3) 0.0831(5)
C18 C 0.1659(5) 0.9386(3) -0.0190(4)
H22 H 0.1138 0.8950 -0.0360
H23 H 0.2454 0.9215 -0.0033
H24 H 0.1403 0.9727 -0.0872
C19 C 0.2342(5) 1.0473(3) 0.1302(6)
H25 H 0.3010 1.0479 0.1064
H26 H 0.2619 1.0476 0.2168
H27 H 0.1859 1.0919 0.0983
O14 O 0.3359(3) 0.4378(2) 0.3607(3)
H28 H 0.3874 0.3984 0.3656
H29 H 0.3376 0.4695 0.2926
O15 O 0.1195(3) 0.5338(2) 0.1382(3)
H30 H 0.1961 0.5366 0.1526
H31 H 0.0637 0.5582 0.0792
loop_
_geom_bond_atom_site_label_1
_geom_bond_atom_site_label_2
_geom_bond_site_symmetry_1
_geom_bond_site_symmetry_2
Ni1 N1 1_555 1_555
Ni2 O6 1_555 1_555
O1 C1 1_555 1_555
O2 C1 1_555 1_555
C1 C2 1_555 1_555
C2 C3 1_555 1_555
C3 H1 1_555 1_555
C4 C3 1_555 1_555
C5 C4 1_555 1_555
H2 C5 1_555 1_555
C6 C5 1_555 1_555
C7 C2 1_555 1_555
H3 C7 1_555 1_555
C8 C4 1_555 1_555
O3 C8 1_555 1_555
O4 C8 1_555 1_555
C9 C6 1_555 1_555
H4 C9 1_555 1_555
H5 C9 1_555 1_555
O5 C9 1_555 1_555
C10 O5 1_555 1_555
C11 C10 1_555 1_555
H6 C11 1_555 1_555
C12 C11 1_555 1_555
C13 C12 1_555 1_555
H7 C13 1_555 1_555
N1 C13 1_555 1_555
C14 C10 1_555 1_555
H8 C14 1_555 1_555
C15 C12 1_555 1_555
O6 C15 1_555 1_555
O7 C15 1_555 1_555
O8 Ni1 1_555 1_555
H9 O8 1_555 1_555
H10 O8 1_555 1_555
O9 Ni2 1_555 1_555
H11 O9 1_555 1_555
H12 O9 1_555 1_555
O10 Ni2 1_555 1_555
H13 O10 1_555 1_555
H14 O10 1_555 1_555
O11 Ni2 1_555 1_555
H15 O11 1_555 1_555
H16 O11 1_555 1_555
O12 Ni2 1_555 1_555
H17 O12 1_555 1_555
H18 O12 1_555 1_555
O13 C16 1_555 1_555
C16 C17 1_555 1_555
C17 H19 1_555 1_555
H20 C17 1_555 1_555
H21 C17 1_555 1_555
N2 C16 1_555 1_555
C18 N2 1_555 1_555
H22 C18 1_555 1_555
H23 C18 1_555 1_555
H24 C18 1_555 1_555
C19 N2 1_555 1_555
H25 C19 1_555 1_555
H26 C19 1_555 1_555
H27 C19 1_555 1_555
O14 H28 1_555 1_555
H29 O14 1_555 1_555
O15 H30 1_555 1_555
H31 O15 1_555 1_555
Ni2B O6B 1_555 1_555
O1B Ni1 1_555 1_555
O2B C1B 1_555 1_555
C1B O1B 1_555 1_555
C2B C1B 1_555 1_555
C3B C2B 1_555 1_555
H1B C3B 1_555 1_555
C4B C3B 1_555 1_555
C5B C4B 1_555 1_555
H2B C5B 1_555 1_555
C6B C5B 1_555 1_555
C7B C2B 1_555 1_555
H3B C7B 1_555 1_555
C8B C4B 1_555 1_555
O3B C8B 1_555 1_555
O4B C8B 1_555 1_555
C9B C6B 1_555 1_555
H4B C9B 1_555 1_555
H5B C9B 1_555 1_555
O5B C9B 1_555 1_555
C10B O5B 1_555 1_555
C11B C10B 1_555 1_555
H6B C11B 1_555 1_555
C12B C11B 1_555 1_555
C13B C12B 1_555 1_555
H7B C13B 1_555 1_555
N1B C13B 1_555 1_555
C14B C10B 1_555 1_555
H8B C14B 1_555 1_555
C15B C12B 1_555 1_555
O6B C15B 1_555 1_555
O7B C15B 1_555 1_555
O9B Ni2B 1_555 1_555
H11B O9B 1_555 1_555
H12B O9B 1_555 1_555
O10B Ni2B 1_555 1_555
H13B O10B 1_555 1_555
H14B O10B 1_555 1_555
O11B Ni2B 1_555 1_555
H15B O11B 1_555 1_555
H16B O11B 1_555 1_555
O12B Ni2B 1_555 1_555
H17B O12B 1_555 1_555
H18B O12B 1_555 1_555
O8B Ni1 1_555 1_555
H9B O8B 1_555 1_555
H10B O8B 1_555 1_555
Ni1_2 O1 1_555 1_555
Ni2A O4B 1_555 1_555
Ni2C O4 1_555 1_555
O1_2 Ni1 1_555 1_555
O4A Ni2B 1_555 1_555
O4C Ni2 1_555 1_555
N1B_2 Ni1 1_555 1_555
C6 C7 1_555 1_555
N1 C14 1_555 1_555
C6B C7B 1_555 1_555
N1B C14B 1_555 1_555
N1B Ni1_2 1_555 1_555

#END
