
#######################################################################
#
#                 Cambridge Crystallographic Data Centre
#                                CCDC 
#
#######################################################################
#
# If this CIF has been generated from an entry in the Cambridge 
# Structural Database, then it will include bibliographic, chemical, 
# crystal, experimental, refinement or atomic coordinate data resulting 
# from the CCDC's data processing and validation procedures.
#
#######################################################################

data_BEXSEE
_symmetry_cell_setting           monoclinic
_symmetry_space_group_name_H-M   'P 21/c'
_symmetry_Int_Tables_number      14
_space_group_name_Hall           '-P 2ybc'
loop_
_symmetry_equiv_pos_site_id
_symmetry_equiv_pos_as_xyz
1 x,y,z
2 -x,1/2+y,1/2-z
3 -x,-y,-z
4 x,1/2-y,1/2+z
_cell_length_a                   12.5175(2)
_cell_length_b                   17.8600(3)
_cell_length_c                   12.3435(2)
_cell_angle_alpha                90
_cell_angle_beta                 112.6012(6)
_cell_angle_gamma                90
_cell_volume                     2547.62
loop_
_atom_site_label
_atom_site_type_symbol
_atom_site_fract_x
_atom_site_fract_y
_atom_site_fract_z
Co1 Co 1.0000 0.0000 0.5000
O1 O 1.16262(16) -0.03838(11) 0.50766(16)
H1 H 1.1523 -0.0220 0.4420
H2 H 1.1914 -0.0821 0.5209
O2 O 0.99822(16) 0.07750(11) 0.37195(15)
O3 O 1.14158(17) 0.04259(12) 0.31590(17)
C1 C 1.0555(2) 0.08329(15) 0.3079(2)
C2 C 1.0161(2) 0.14214(15) 0.2128(2)
C3 C 0.9184(2) 0.18521(16) 0.1973(2)
H3 H 0.8788 0.1787 0.2487
C4 C 0.8782(2) 0.23790(16) 0.1068(2)
C5 C 0.9386(2) 0.24859(16) 0.0332(2)
H4 H 0.9122 0.2845 -0.0281
C6 C 1.0377(2) 0.20640(15) 0.0502(2)
C7 C 1.0760(2) 0.15366(16) 0.1397(2)
H5 H 1.1436 0.1252 0.1512
C8 C 0.7716(2) 0.28265(16) 0.0907(2)
O4 O 0.73383(16) 0.32823(11) 0.00439(16)
O5 O 0.72582(17) 0.27172(12) 0.16384(16)
C9 C 1.1006(2) 0.21637(16) -0.0308(2)
H6 H 1.0888 0.2675 -0.0642
H7 H 1.1846 0.2077 0.0114
O6 O 1.05110(16) 0.16110(12) -0.12227(16)
C10 C 1.1018(2) 0.15274(16) -0.2018(2)
C11 C 1.0506(2) 0.09924(16) -0.2879(2)
H8 H 0.9843 0.0735 -0.2875
N1 N 1.09035(19) 0.08235(13) -0.37114(17)
C12 C 1.1844(2) 0.11884(16) -0.3707(2)
H9 H 1.2141 0.1066 -0.4287
C13 C 1.2397(2) 0.17380(16) -0.2885(2)
C14 C 1.1966(2) 0.19260(16) -0.2027(2)
H10 H 1.2309 0.2312 -0.1473
C15 C 1.3467(2) 0.21287(17) -0.2892(2)
O7 O 1.39737(17) 0.18194(12) -0.34791(17)
O8 O 1.37613(17) 0.27250(12) -0.23119(17)
Co2 Co 0.56249(3) 0.29553(2) 0.15740(3)
O9 O 0.55651(17) 0.39011(12) 0.04687(17)
H11 H 0.6115 0.3772 0.0202
H12 H 0.5691 0.4374 0.0743
O10 O 0.57802(17) 0.19632(12) 0.25733(17)
H13 H 0.6381 0.2007 0.3268
H14 H 0.5113 0.1985 0.2691
O11 O 0.63327(18) 0.35721(13) 0.31270(17)
H15 H 0.6989 0.3843 0.3343
H16 H 0.5835 0.3799 0.3387
O12 O 0.4843(2) 0.23410(13) 0.00340(18)
H17 H 0.5000 0.1856 -0.0028
H18 H 0.4565 0.2555 -0.0680
O2B O 1.00178(16) -0.07750(11) -0.37195(15)
O3B O 0.85842(17) -0.04259(12) -0.31590(17)
C1B C 0.9445(2) -0.08329(15) -0.3079(2)
C2B C 0.9839(2) -0.14214(15) -0.2128(2)
C3B C 1.0816(2) -0.18521(16) -0.1973(2)
H3B H 1.1212 -0.1787 -0.2487
C4B C 1.1218(2) -0.23790(16) -0.1068(2)
C5B C 1.0614(2) -0.24859(16) -0.0332(2)
H4B H 1.0878 -0.2845 0.0281
C6B C 0.9623(2) -0.20640(15) -0.0502(2)
C7B C 0.9240(2) -0.15366(16) -0.1397(2)
H5B H 0.8564 -0.1252 -0.1512
C8B C 1.2284(2) -0.28265(16) -0.0907(2)
O4B O 1.26617(16) -0.32823(11) -0.00439(16)
O5B O 1.27418(17) -0.27172(12) -0.16384(16)
C9B C 0.8994(2) -0.21637(16) 0.0308(2)
H6B H 0.9112 -0.2675 0.0642
H7B H 0.8154 -0.2077 -0.0114
O6B O 0.94890(16) -0.16110(12) 0.12227(16)
C10B C 0.8982(2) -0.15274(16) 0.2018(2)
C11B C 0.9494(2) -0.09924(16) 0.2879(2)
H8B H 1.0157 -0.0735 0.2875
N1B N 0.90965(19) -0.08235(13) 0.37114(17)
C12B C 0.8156(2) -0.11884(16) 0.3707(2)
H9B H 0.7859 -0.1066 0.4287
C13B C 0.7603(2) -0.17380(16) 0.2885(2)
C14B C 0.8034(2) -0.19260(16) 0.2027(2)
H10B H 0.7691 -0.2312 0.1473
C15B C 0.6533(2) -0.21287(17) 0.2892(2)
O7B O 0.60263(17) -0.18194(12) 0.34791(17)
O8B O 0.62387(17) -0.27250(12) 0.23119(17)
Co2B Co 1.43751(3) -0.29553(2) -0.15740(3)
O9B O 1.44349(17) -0.39011(12) -0.04687(17)
H11B H 1.3885 -0.3772 -0.0202
H12B H 1.4309 -0.4374 -0.0743
O10B O 1.42198(17) -0.19632(12) -0.25733(17)
H13B H 1.3619 -0.2007 -0.3268
H14B H 1.4887 -0.1985 -0.2691
O11B O 1.36673(18) -0.35721(13) -0.31270(17)
H15B H 1.3011 -0.3843 -0.3343
H16B H 1.4165 -0.3799 -0.3387
O12B O 1.5157(2) -0.23410(13) -0.00340(18)
H17B H 1.5000 -0.1856 0.0028
H18B H 1.5435 -0.2555 0.0680
O1B O 0.83738(16) 0.03838(11) 0.49234(16)
H1B H 0.8477 0.0220 0.5580
H2B H 0.8086 0.0821 0.4791
Co1_2 Co 1.0000 0.0000 -0.5000
O2B_2 O 1.00178(16) -0.07750(11) 0.62805(15)
N1_2 N 1.09035(19) 0.08235(13) 0.62886(17)
O7A O 1.60263(17) -0.31806(12) -0.15209(17)
O7C O 0.39737(17) 0.31806(12) 0.15209(17)
Co2A Co 0.43751(3) -0.20447(2) 0.34260(3)
Co2C Co 1.56249(3) 0.20447(2) -0.34260(3)
O13 O 0.8367(2) 0.06155(15) 0.8622(2)
H19 H 0.9070 0.0829 0.8944
H20 H 0.8344 0.0308 0.8037
O14 O 0.3813(2) 0.03328(16) 0.3615(2)
H21 H 0.3075 0.0488 0.3397
H22 H 0.4282 0.0654 0.4155
O15 O 0.4852(8) 0.4053(5) 0.4183(8)
C16 C 0.4102(4) 0.4592(3) 0.3715(4)
C17 C 0.4152(6) 0.5012(4) 0.2525(6)
H23 H 0.4290 0.5549 0.2678
H24 H 0.3415 0.4938 0.1861
H25 H 0.4781 0.4796 0.2339
N2 N 0.3327(3) 0.4783(2) 0.4179(3)
C18 C 0.3300(9) 0.4370(6) 0.5211(8)
H26 H 0.3842 0.3949 0.5391
H27 H 0.2516 0.4182 0.5036
H28 H 0.3523 0.4708 0.5888
C19 C 0.2584(5) 0.5433(3) 0.3803(5)
H29 H 0.3056 0.5888 0.4000
H30 H 0.2041 0.5440 0.4202
H31 H 0.2150 0.5410 0.2953
O16? O 0.4780(10) 0.4054(6) 0.4109(10)
C20? C 0.4052(10) 0.4455(7) 0.4195(11)
C21? C 0.3408(16) 0.4436(11) 0.5091(16)
H32? H 0.3617 0.3976 0.5558
H33? H 0.2569 0.4449 0.4650
H34? H 0.3643 0.4871 0.5612
N3? N 0.3668(10) 0.4996(7) 0.3346(10)
C22? C 0.4024(9) 0.5055(6) 0.2728(9)
H35? H 0.4366 0.4578 0.2634
H36? H 0.4626 0.5441 0.2983
H37? H 0.3421 0.5202 0.1977
C23? C 0.2800(10) 0.5562(7) 0.3366(10)
H38? H 0.2773 0.5973 0.2830
H39? H 0.3021 0.5758 0.4164
H40? H 0.2036 0.5326 0.3116
loop_
_geom_bond_atom_site_label_1
_geom_bond_atom_site_label_2
_geom_bond_site_symmetry_1
_geom_bond_site_symmetry_2
Co1 O1 1_555 1_555
O1 H1 1_555 1_555
H2 O1 1_555 1_555
O2 Co1 1_555 1_555
O3 C1 1_555 1_555
C1 O2 1_555 1_555
C2 C1 1_555 1_555
C3 C2 1_555 1_555
H3 C3 1_555 1_555
C4 C3 1_555 1_555
C5 C4 1_555 1_555
H4 C5 1_555 1_555
C6 C5 1_555 1_555
C7 C2 1_555 1_555
H5 C7 1_555 1_555
C8 C4 1_555 1_555
O4 C8 1_555 1_555
O5 C8 1_555 1_555
C9 C6 1_555 1_555
H6 C9 1_555 1_555
H7 C9 1_555 1_555
O6 C9 1_555 1_555
C10 O6 1_555 1_555
C11 C10 1_555 1_555
H8 C11 1_555 1_555
N1 C11 1_555 1_555
C12 N1 1_555 1_555
H9 C12 1_555 1_555
C13 C12 1_555 1_555
C14 C10 1_555 1_555
H10 C14 1_555 1_555
C15 C13 1_555 1_555
O7 C15 1_555 1_555
O8 C15 1_555 1_555
Co2 O5 1_555 1_555
O9 Co2 1_555 1_555
H11 O9 1_555 1_555
H12 O9 1_555 1_555
O10 Co2 1_555 1_555
H13 O10 1_555 1_555
H14 O10 1_555 1_555
O11 Co2 1_555 1_555
H15 O11 1_555 1_555
H16 O11 1_555 1_555
O12 Co2 1_555 1_555
H17 O12 1_555 1_555
H18 O12 1_555 1_555
O13 H19 1_555 1_555
H20 O13 1_555 1_555
O14 H21 1_555 1_555
H22 O14 1_555 1_555
O15 C16 1_555 1_555
C16 C17 1_555 1_555
C17 H23 1_555 1_555
H24 C17 1_555 1_555
H25 C17 1_555 1_555
N2 C16 1_555 1_555
C18 N2 1_555 1_555
H26 C18 1_555 1_555
H27 C18 1_555 1_555
H28 C18 1_555 1_555
C19 N2 1_555 1_555
H29 C19 1_555 1_555
H30 C19 1_555 1_555
H31 C19 1_555 1_555
O2B C1B 1_555 1_555
O3B C1B 1_555 1_555
C1B C2B 1_555 1_555
C2B C3B 1_555 1_555
C3B H3B 1_555 1_555
C4B C3B 1_555 1_555
C5B C4B 1_555 1_555
H4B C5B 1_555 1_555
C6B C5B 1_555 1_555
C7B C2B 1_555 1_555
H5B C7B 1_555 1_555
C8B C4B 1_555 1_555
O4B C8B 1_555 1_555
O5B C8B 1_555 1_555
C9B C6B 1_555 1_555
H6B C9B 1_555 1_555
H7B C9B 1_555 1_555
O6B C9B 1_555 1_555
C10B O6B 1_555 1_555
C11B C10B 1_555 1_555
H8B C11B 1_555 1_555
N1B Co1 1_555 1_555
C12B N1B 1_555 1_555
H9B C12B 1_555 1_555
C13B C12B 1_555 1_555
C14B C10B 1_555 1_555
H10B C14B 1_555 1_555
C15B C13B 1_555 1_555
O7B C15B 1_555 1_555
O8B C15B 1_555 1_555
Co2B O5B 1_555 1_555
O9B Co2B 1_555 1_555
H11B O9B 1_555 1_555
H12B O9B 1_555 1_555
O10B Co2B 1_555 1_555
H13B O10B 1_555 1_555
H14B O10B 1_555 1_555
O11B Co2B 1_555 1_555
H15B O11B 1_555 1_555
H16B O11B 1_555 1_555
O12B Co2B 1_555 1_555
H17B O12B 1_555 1_555
H18B O12B 1_555 1_555
O1B Co1 1_555 1_555
H1B O1B 1_555 1_555
H2B O1B 1_555 1_555
Co1_2 N1 1_555 1_555
O2B_2 Co1 1_555 1_555
N1_2 Co1 1_555 1_555
O7A Co2B 1_555 1_555
O7C Co2 1_555 1_555
Co2A O7B 1_555 1_555
Co2C O7 1_555 1_555
C6 C7 1_555 1_555
C13 C14 1_555 1_555
O2B Co1_2 1_555 1_555
C6B C7B 1_555 1_555
C11B N1B 1_555 1_555
C13B C14B 1_555 1_555

#END
