
#######################################################################
#
#                 Cambridge Crystallographic Data Centre
#                                CCDC 
#
#######################################################################
#
# If this CIF has been generated from an entry in the Cambridge 
# Structural Database, then it will include bibliographic, chemical, 
# crystal, experimental, refinement or atomic coordinate data resulting 
# from the CCDC's data processing and validation procedures.
#
#######################################################################

data_BEXSAA
_symmetry_cell_setting           monoclinic
_symmetry_space_group_name_H-M   'P 21/c'
_symmetry_Int_Tables_number      14
_space_group_name_Hall           '-P 2ybc'
loop_
_symmetry_equiv_pos_site_id
_symmetry_equiv_pos_as_xyz
1 x,y,z
2 -x,1/2+y,1/2-z
3 -x,-y,-z
4 x,1/2-y,1/2+z
_cell_length_a                   12.6630(14)
_cell_length_b                   18.189(2)
_cell_length_c                   12.5528(14)
_cell_angle_alpha                90
_cell_angle_beta                 113.388(5)
_cell_angle_gamma                90
_cell_volume                     2653.7
loop_
_atom_site_label
_atom_site_type_symbol
_atom_site_fract_x
_atom_site_fract_y
_atom_site_fract_z
Mn1 Mn -0.07290(4) -0.20909(3) 0.32266(5)
Mn2 Mn 0.5000 0.0000 0.5000
O1 O 0.76137(19) -0.27077(14) -0.1734(2)
O2 O 0.75408(16) -0.32849(11) -0.01997(17)
C1 C 0.7166(2) -0.28273(16) -0.1025(3)
C2 C 0.6097(2) -0.23879(15) -0.1188(2)
C3 C 0.5693(2) -0.18832(15) -0.2090(2)
H1 H 0.6086 -0.1825 -0.2591
C4 C 0.4720(2) -0.14610(15) -0.2269(2)
C5 C 0.4337(2) -0.08884(15) -0.3217(2)
O3 O 0.34542(18) -0.05075(13) -0.3346(2)
O4 O 0.49435(17) -0.08164(11) -0.37900(17)
C6 C 0.4139(2) -0.15565(15) -0.1539(2)
H2 H 0.3464 -0.1278 -0.1668
C7 C 0.4538(2) -0.20556(15) -0.0624(2)
C8 C 0.5518(2) -0.24758(15) -0.0457(2)
H3 H 0.5789 -0.2823 0.0159
C9 C 0.3915(2) -0.21303(15) 0.0173(2)
H4 H 0.3084 -0.2030 -0.0251
H5 H 0.4010 -0.2633 0.0501
O5 O 0.44330(16) -0.15915(11) 0.10894(16)
C10 C 0.3915(2) -0.14971(15) 0.1847(2)
C11 C 0.2944(2) -0.18663(16) 0.1822(2)
H6 H 0.2588 -0.2234 0.1255
C12 C 0.2502(2) -0.16869(16) 0.2645(2)
C13 C 0.1425(3) -0.20567(19) 0.2614(3)
O6 O 0.0985(2) -0.18359(19) 0.3285(3)
O7 O 0.1039(2) -0.25836(14) 0.1910(2)
C14 C 0.3070(2) -0.11590(16) 0.3481(2)
H7 H 0.2770 -0.1039 0.4043
N1 N 0.4023(2) -0.08127(13) 0.35248(19)
C15 C 0.4434(2) -0.09749(15) 0.2720(2)
H8 H 0.5102 -0.0726 0.2742
O8 O 0.66649(16) -0.03946(11) 0.50721(16)
H9 H 0.6809 -0.0114 0.4556
H10 H 0.6981 -0.0840 0.5089
O9 O -0.0607(2) -0.11792(18) 0.4415(3)
H11 H -0.1026 -0.1277 0.4833
H12 H 0.0107 -0.1069 0.4928
O10 O 0.0051(3) -0.2889(2) 0.4620(3)
H13 H 0.0542 -0.2594 0.5171
H14 H 0.0474 -0.3248 0.4489
O11 O -0.09155(19) -0.30327(14) 0.2075(2)
H15 H -0.1507 -0.3090 0.1383
H16 H -0.0277 -0.3046 0.1926
O12 O -0.1478(3) -0.1430(2) 0.1713(3)
C16 C -0.2329(10) -0.1068(7) 0.1490(10)
C17 C -0.1777(11) -0.1174(7) 0.0825(11)
Mn1B Mn 1.07290(4) 0.20909(3) -0.32266(5)
O1B O 0.23863(19) 0.27077(14) 0.1734(2)
O2B O 0.24592(16) 0.32849(11) 0.01997(17)
C1B C 0.2834(2) 0.28273(16) 0.1025(3)
C2B C 0.3903(2) 0.23879(15) 0.1188(2)
C3B C 0.4307(2) 0.18832(15) 0.2090(2)
H1B H 0.3914 0.1825 0.2591
C4B C 0.5280(2) 0.14610(15) 0.2269(2)
C5B C 0.5663(2) 0.08884(15) 0.3217(2)
O3B O 0.65458(18) 0.05075(13) 0.3346(2)
O4B O 0.50565(17) 0.08164(11) 0.37900(17)
C6B C 0.5861(2) 0.15565(15) 0.1539(2)
H2B H 0.6536 0.1278 0.1668
C7B C 0.5462(2) 0.20556(15) 0.0624(2)
C8B C 0.4482(2) 0.24758(15) 0.0457(2)
H3B H 0.4211 0.2823 -0.0159
C9B C 0.6085(2) 0.21303(15) -0.0173(2)
H4B H 0.6916 0.2030 0.0251
H5B H 0.5990 0.2633 -0.0501
O5B O 0.55670(16) 0.15915(11) -0.10894(16)
C10B C 0.6085(2) 0.14971(15) -0.1847(2)
C11B C 0.7056(2) 0.18663(16) -0.1822(2)
H6B H 0.7412 0.2234 -0.1255
C12B C 0.7498(2) 0.16869(16) -0.2645(2)
C13B C 0.8575(3) 0.20567(19) -0.2614(3)
O6B O 0.9015(2) 0.18359(19) -0.3285(3)
O7B O 0.8961(2) 0.25836(14) -0.1910(2)
C14B C 0.6930(2) 0.11590(16) -0.3481(2)
H7B H 0.7230 0.1039 -0.4043
N1B N 0.5977(2) 0.08127(13) -0.35248(19)
C15B C 0.5566(2) 0.09749(15) -0.2720(2)
H8B H 0.4898 0.0726 -0.2742
O9B O 1.0607(2) 0.11792(18) -0.4415(3)
H11B H 1.1026 0.1277 -0.4833
H12B H 0.9893 0.1069 -0.4928
O10B O 0.9949(3) 0.2889(2) -0.4620(3)
H13B H 0.9458 0.2594 -0.5171
H14B H 0.9526 0.3248 -0.4489
O11B O 1.09155(19) 0.30327(14) -0.2075(2)
H15B H 1.1507 0.3090 -0.1383
H16B H 1.0277 0.3046 -0.1926
O12B O 1.1478(3) 0.1430(2) -0.1713(3)
C16B C 1.2329(10) 0.1068(7) -0.1490(10)
C17B C 1.1777(11) 0.1174(7) -0.0825(11)
O8B O 0.33351(16) 0.03946(11) 0.49279(16)
H9B H 0.3191 0.0114 0.5444
H10B H 0.3019 0.0840 0.4911
Mn1A Mn 0.07290(4) 0.29091(3) 0.17734(5)
Mn1C Mn 0.92710(4) -0.29091(3) -0.17734(5)
Mn2_2 Mn 0.5000 0.0000 -0.5000
O1A O 1.23863(19) 0.22923(14) -0.3266(2)
O1C O -0.23863(19) -0.22923(14) 0.3266(2)
O4_2 O 0.49435(17) -0.08164(11) 0.62100(17)
N1B_2 N 0.5977(2) 0.08127(13) 0.64752(19)
loop_
_geom_bond_atom_site_label_1
_geom_bond_atom_site_label_2
_geom_bond_site_symmetry_1
_geom_bond_site_symmetry_2
Mn1 O6 1_555 1_555
Mn2 N1 1_555 1_555
O1 C1 1_555 1_555
O2 C1 1_555 1_555
C1 C2 1_555 1_555
C2 C3 1_555 1_555
C3 H1 1_555 1_555
C4 C3 1_555 1_555
C5 C4 1_555 1_555
O3 C5 1_555 1_555
O4 C5 1_555 1_555
C6 C4 1_555 1_555
H2 C6 1_555 1_555
C7 C6 1_555 1_555
C8 C2 1_555 1_555
H3 C8 1_555 1_555
C9 C7 1_555 1_555
H4 C9 1_555 1_555
H5 C9 1_555 1_555
O5 C9 1_555 1_555
C10 O5 1_555 1_555
C11 C10 1_555 1_555
H6 C11 1_555 1_555
C12 C11 1_555 1_555
C13 C12 1_555 1_555
O6 C13 1_555 1_555
O7 C13 1_555 1_555
C14 C12 1_555 1_555
H7 C14 1_555 1_555
N1 C14 1_555 1_555
C15 C10 1_555 1_555
H8 C15 1_555 1_555
O8 Mn2 1_555 1_555
H9 O8 1_555 1_555
H10 O8 1_555 1_555
O9 Mn1 1_555 1_555
H11 O9 1_555 1_555
H12 O9 1_555 1_555
O10 Mn1 1_555 1_555
H13 O10 1_555 1_555
H14 O10 1_555 1_555
O11 Mn1 1_555 1_555
H15 O11 1_555 1_555
H16 O11 1_555 1_555
O12 Mn1 1_555 1_555
C16 O12 1_555 1_555
C17 O12 1_555 1_555
Mn1B O6B 1_555 1_555
O1B C1B 1_555 1_555
O2B C1B 1_555 1_555
C1B C2B 1_555 1_555
C2B C3B 1_555 1_555
C3B H1B 1_555 1_555
C4B C3B 1_555 1_555
C5B C4B 1_555 1_555
O3B C5B 1_555 1_555
O4B Mn2 1_555 1_555
C6B C4B 1_555 1_555
H2B C6B 1_555 1_555
C7B C6B 1_555 1_555
C8B C2B 1_555 1_555
H3B C8B 1_555 1_555
C9B C7B 1_555 1_555
H4B C9B 1_555 1_555
H5B C9B 1_555 1_555
O5B C9B 1_555 1_555
C10B O5B 1_555 1_555
C11B C10B 1_555 1_555
H6B C11B 1_555 1_555
C12B C11B 1_555 1_555
C13B C12B 1_555 1_555
O6B C13B 1_555 1_555
O7B C13B 1_555 1_555
C14B C12B 1_555 1_555
H7B C14B 1_555 1_555
N1B C14B 1_555 1_555
C15B C10B 1_555 1_555
H8B C15B 1_555 1_555
O9B Mn1B 1_555 1_555
H11B O9B 1_555 1_555
H12B O9B 1_555 1_555
O10B Mn1B 1_555 1_555
H13B O10B 1_555 1_555
H14B O10B 1_555 1_555
O11B Mn1B 1_555 1_555
H15B O11B 1_555 1_555
H16B O11B 1_555 1_555
O12B Mn1B 1_555 1_555
C16B O12B 1_555 1_555
C17B O12B 1_555 1_555
O8B Mn2 1_555 1_555
H9B O8B 1_555 1_555
H10B O8B 1_555 1_555
Mn1A O1B 1_555 1_555
Mn1C O1 1_555 1_555
Mn2_2 O4 1_555 1_555
O1A Mn1B 1_555 1_555
O1C Mn1 1_555 1_555
O4_2 Mn2 1_555 1_555
N1B_2 Mn2 1_555 1_555
C7 C8 1_555 1_555
N1 C15 1_555 1_555
C16 C17 1_555 1_555
C5B O4B 1_555 1_555
C7B C8B 1_555 1_555
N1B C15B 1_555 1_555
N1B Mn2_2 1_555 1_555
C16B C17B 1_555 1_555

#END
