
#######################################################################
#
#                 Cambridge Crystallographic Data Centre
#                                CCDC 
#
#######################################################################
#
# If this CIF has been generated from an entry in the Cambridge 
# Structural Database, then it will include bibliographic, chemical, 
# crystal, experimental, refinement or atomic coordinate data resulting 
# from the CCDC's data processing and validation procedures.
#
#######################################################################

data_BEXTUV
_symmetry_cell_setting           monoclinic
_symmetry_space_group_name_H-M   'C 2/c'
_symmetry_Int_Tables_number      15
_space_group_name_Hall           '-C 2yn'
loop_
_symmetry_equiv_pos_site_id
_symmetry_equiv_pos_as_xyz
1 x,y,z
2 -x,y,1/2-z
3 1/2+x,1/2+y,z
4 1/2-x,1/2+y,1/2-z
5 -x,-y,-z
6 x,-y,1/2+z
7 1/2-x,1/2-y,-z
8 1/2+x,1/2-y,1/2+z
_cell_length_a                   16.8383(5)
_cell_length_b                   14.7317(4)
_cell_length_c                   11.9247(4)
_cell_angle_alpha                90
_cell_angle_beta                 117.3793(12)
_cell_angle_gamma                90
_cell_volume                     2626.65
loop_
_atom_site_label
_atom_site_type_symbol
_atom_site_fract_x
_atom_site_fract_y
_atom_site_fract_z
Mn1 Mn 0.40242(2) -0.17630(3) 0.59732(4)
O1 O 0.29414(14) -0.09786(16) 0.5905(2)
O2 O 0.35702(14) 0.00462(18) 0.7426(2)
C1 C 0.29135(19) -0.0271(2) 0.6479(3)
C2 C 0.20321(18) 0.0215(2) 0.5959(3)
C3 C 0.18707(18) 0.0873(2) 0.6666(3)
H1 H 0.2309 0.1001 0.7506
C4 C 0.10555(18) 0.1346(2) 0.6130(3)
C5 C 0.08358(19) 0.2065(2) 0.6835(3)
O3 O 0.13456(14) 0.21846(16) 0.7992(2)
O4 O 0.01406(15) 0.25016(18) 0.6213(2)
C6 C 0.04309(19) 0.1150(3) 0.4893(3)
H2 H -0.0117 0.1476 0.4520
C7 C 0.0589(2) 0.0497(3) 0.4205(3)
C8 C 0.13872(19) 0.0023(2) 0.4729(3)
H3 H 0.1496 -0.0433 0.4253
O5 O -0.0051(3) 0.0630(4) 0.2938(4)
C9 C 0.0126(4) 0.0109(5) 0.2059(5)
H4 H 0.0048 -0.0558 0.2135
H5 H 0.0730 0.0228 0.2177
O6 O 0.5000 -0.08200(19) 0.7500
H6 H 0.5359 -0.0342 0.7528
H7 H 0.4808 -0.0629 0.8046
O7 O 0.31506(13) -0.25280(16) 0.42767(19)
H8 H 0.2588 -0.2289 0.3862
H9 H 0.3071 -0.3027 0.4672
O8 O 0.4200(2) -0.0816(2) 0.4708(2)
H10 H 0.3979 -0.0554 0.3931
H11 H 0.4610 -0.0368 0.5130
O1A O -0.29414(14) -0.09786(16) -0.0905(2)
O2A O -0.35702(14) 0.00462(18) -0.2426(2)
C1A C -0.29135(19) -0.0271(2) -0.1479(3)
C2A C -0.20321(18) 0.0215(2) -0.0959(3)
C3A C -0.18707(18) 0.0873(2) -0.1666(3)
H1A H -0.2309 0.1001 -0.2506
C4A C -0.10555(18) 0.1346(2) -0.1130(3)
C5A C -0.08358(19) 0.2065(2) -0.1835(3)
O3A O -0.13456(14) 0.21846(16) -0.2992(2)
O4A O -0.01406(15) 0.25016(18) -0.1213(2)
C6A C -0.04309(19) 0.1150(3) 0.0107(3)
H2A H 0.0117 0.1476 0.0480
C7A C -0.0589(2) 0.0497(3) 0.0795(3)
C8A C -0.13872(19) 0.0023(2) 0.0271(3)
H3A H -0.1496 -0.0433 0.0747
O5A O 0.0051(3) 0.0630(4) 0.2062(4)
C9A C -0.0126(4) 0.0109(5) 0.2941(5)
H4A H -0.0048 -0.0558 0.2865
H5A H -0.0730 0.0228 0.2823
H6A H 0.4641 -0.0342 0.7472
H7A H 0.5192 -0.0629 0.6954
Mn1A Mn -0.40242(2) -0.17630(3) -0.09732(4)
O7A O -0.31506(13) -0.25280(16) 0.07233(19)
H8A H -0.2588 -0.2289 0.1138
H9A H -0.3071 -0.3027 0.0328
O8A O -0.4200(2) -0.0816(2) 0.0292(2)
H10A H -0.3979 -0.0554 0.1069
H11A H -0.4610 -0.0368 -0.0130
Mn1A_2 Mn 0.59758(2) -0.17630(3) 0.90268(4)
Mn1B Mn -0.09758(2) 0.32370(3) -0.40268(4)
Mn1B_2 Mn -0.09758(2) 0.32370(3) 0.59732(4)
Mn1C Mn 0.09758(2) 0.32370(3) -0.09732(4)
Mn1C_2 Mn 0.09758(2) 0.32370(3) 0.90268(4)
O3B O -0.36544(14) -0.28154(16) -0.2008(2)
O3C O 0.36544(14) -0.28154(16) 0.7008(2)
O4B O 0.51406(15) -0.24984(18) 0.6213(2)
O4C O -0.51406(15) -0.24984(18) -0.1213(2)
O6_2 O -0.5000 -0.08200(19) -0.2500
loop_
_geom_bond_atom_site_label_1
_geom_bond_atom_site_label_2
_geom_bond_site_symmetry_1
_geom_bond_site_symmetry_2
Mn1 O1 1_555 1_555
O1 C1 1_555 1_555
O2 C1 1_555 1_555
C1 C2 1_555 1_555
C2 C3 1_555 1_555
C3 H1 1_555 1_555
C4 C3 1_555 1_555
C5 C4 1_555 1_555
O3 C5 1_555 1_555
O4 C5 1_555 1_555
C6 C4 1_555 1_555
H2 C6 1_555 1_555
C7 C6 1_555 1_555
C8 C2 1_555 1_555
H3 C8 1_555 1_555
O5 C7 1_555 1_555
C9 H4 1_555 1_555
H5 C9 1_555 1_555
O6 Mn1 1_555 1_555
H6 O6 1_555 1_555
H7 O6 1_555 1_555
O7 Mn1 1_555 1_555
H8 O7 1_555 1_555
H9 O7 1_555 1_555
O8 Mn1 1_555 1_555
H10 O8 1_555 1_555
H11 O8 1_555 1_555
O1A C1A 1_555 1_555
O2A C1A 1_555 1_555
C1A C2A 1_555 1_555
C2A C3A 1_555 1_555
C3A H1A 1_555 1_555
C4A C3A 1_555 1_555
C5A C4A 1_555 1_555
O3A C5A 1_555 1_555
O4A C5A 1_555 1_555
C6A C4A 1_555 1_555
H2A C6A 1_555 1_555
C7A C9 1_555 1_555
C8A C2A 1_555 1_555
H3A C8A 1_555 1_555
O5A O5 1_555 1_555
C9A C7 1_555 1_555
H4A C9A 1_555 1_555
H5A O5 1_555 1_555
H6A O6 1_555 1_555
H7A O6 1_555 1_555
Mn1A O1A 1_555 1_555
O7A Mn1A 1_555 1_555
H8A O7A 1_555 1_555
H9A O7A 1_555 1_555
O8A Mn1A 1_555 1_555
H10A O8A 1_555 1_555
H11A O8A 1_555 1_555
Mn1A_2 O6 1_555 1_555
Mn1B O3A 1_555 1_555
Mn1B_2 O4 1_555 1_555
Mn1C O4A 1_555 1_555
Mn1C_2 O3 1_555 1_555
O3B Mn1A 1_555 1_555
O3C Mn1 1_555 1_555
O4B Mn1 1_555 1_555
O4C Mn1A 1_555 1_555
O6_2 Mn1A 1_555 1_555
C7 C8 1_555 1_555
C9 C9A 1_555 1_555
H5 O5A 1_555 1_555
C6A C7A 1_555 1_555
C7A C8A 1_555 1_555
C7A O5A 1_555 1_555
C9A H5A 1_555 1_555

#END
