
#######################################################################
#
#                 Cambridge Crystallographic Data Centre
#                                CCDC 
#
#######################################################################
#
# If this CIF has been generated from an entry in the Cambridge 
# Structural Database, then it will include bibliographic, chemical, 
# crystal, experimental, refinement or atomic coordinate data resulting 
# from the CCDC's data processing and validation procedures.
#
#######################################################################

data_BEXVAD
_symmetry_cell_setting           monoclinic
_symmetry_space_group_name_H-M   'C 2/c'
_symmetry_Int_Tables_number      15
_space_group_name_Hall           '-C 2yn'
loop_
_symmetry_equiv_pos_site_id
_symmetry_equiv_pos_as_xyz
1 x,y,z
2 -x,y,1/2-z
3 1/2+x,1/2+y,z
4 1/2-x,1/2+y,1/2-z
5 -x,-y,-z
6 x,-y,1/2+z
7 1/2-x,1/2-y,-z
8 1/2+x,1/2-y,1/2+z
_cell_length_a                   16.8167(3)
_cell_length_b                   14.2636(3)
_cell_length_c                   12.0070(3)
_cell_angle_alpha                90
_cell_angle_beta                 118.4686(9)
_cell_angle_gamma                90
_cell_volume                     2531.82
loop_
_atom_site_label
_atom_site_type_symbol
_atom_site_fract_x
_atom_site_fract_y
_atom_site_fract_z
Co1 Co 0.40322(2) -0.17301(3) 0.59902(4)
O1 O 0.29843(16) -0.09397(18) 0.5858(3)
O2 O 0.36117(16) 0.00405(19) 0.7501(2)
C1 C 0.2957(2) -0.0256(2) 0.6503(3)
C2 C 0.2056(2) 0.0240(2) 0.5984(3)
C3 C 0.1883(2) 0.0898(2) 0.6688(3)
H1 H 0.2325 0.1030 0.7535
C4 C 0.1047(2) 0.1369(2) 0.6142(3)
C5 C 0.0792(2) 0.2103(2) 0.6824(3)
O3 O 0.12989(17) 0.22675(17) 0.7970(2)
O4 O 0.00576(18) 0.2477(2) 0.6147(3)
C6 C 0.0412(2) 0.1168(3) 0.4894(3)
H2 H -0.0150 0.1490 0.4513
C7 C 0.0591(2) 0.0509(3) 0.4207(3)
C8 C 0.1412(2) 0.0042(3) 0.4742(3)
H3 H 0.1535 -0.0411 0.4264
O5 O -0.0042(3) 0.0650(4) 0.2893(4)
C9 C 0.0145(5) 0.0111(6) 0.2056(6)
H4 H 0.0067 -0.0556 0.2131
H5 H 0.0748 0.0230 0.2173
O6 O 0.5000 -0.0860(2) 0.7500
H6 H 0.5359 -0.0383 0.7528
H7 H 0.4808 -0.0669 0.8046
O7 O 0.31630(14) -0.24962(17) 0.4370(2)
H8 H 0.2601 -0.2257 0.3956
H9 H 0.3083 -0.2995 0.4765
O8 O 0.4250(3) -0.0804(3) 0.4794(3)
H10 H 0.4029 -0.0542 0.4016
H11 H 0.4660 -0.0356 0.5215
O1A O -0.29843(16) -0.09397(18) -0.0858(3)
O2A O -0.36117(16) 0.00405(19) -0.2501(2)
C1A C -0.2957(2) -0.0256(2) -0.1503(3)
C2A C -0.2056(2) 0.0240(2) -0.0984(3)
C3A C -0.1883(2) 0.0898(2) -0.1688(3)
H1A H -0.2325 0.1030 -0.2535
C4A C -0.1047(2) 0.1369(2) -0.1142(3)
C5A C -0.0792(2) 0.2103(2) -0.1824(3)
O3A O -0.12989(17) 0.22675(17) -0.2970(2)
O4A O -0.00576(18) 0.2477(2) -0.1147(3)
C6A C -0.0412(2) 0.1168(3) 0.0106(3)
H2A H 0.0150 0.1490 0.0487
C7A C -0.0591(2) 0.0509(3) 0.0793(3)
C8A C -0.1412(2) 0.0042(3) 0.0258(3)
H3A H -0.1535 -0.0411 0.0736
O5A O 0.0042(3) 0.0650(4) 0.2107(4)
C9A C -0.0145(5) 0.0111(6) 0.2944(6)
H4A H -0.0067 -0.0556 0.2869
H5A H -0.0748 0.0230 0.2827
H6A H 0.4641 -0.0383 0.7472
H7A H 0.5192 -0.0669 0.6954
Co1A Co -0.40322(2) -0.17301(3) -0.09902(4)
O7A O -0.31630(14) -0.24962(17) 0.0630(2)
H8A H -0.2601 -0.2257 0.1044
H9A H -0.3083 -0.2995 0.0235
O8A O -0.4250(3) -0.0804(3) 0.0206(3)
H10A H -0.4029 -0.0542 0.0984
H11A H -0.4660 -0.0356 -0.0215
Co1A_2 Co 0.59678(2) -0.17301(3) 0.90098(4)
Co1B Co -0.09678(2) 0.32699(3) -0.40098(4)
Co1B_2 Co -0.09678(2) 0.32699(3) 0.59902(4)
Co1C Co 0.09678(2) 0.32699(3) -0.09902(4)
Co1C_2 Co 0.09678(2) 0.32699(3) 0.90098(4)
O3B O -0.37011(17) -0.27325(17) -0.2030(2)
O3C O 0.37011(17) -0.27325(17) 0.7030(2)
O4B O 0.50576(18) -0.2523(2) 0.6147(3)
O4C O -0.50576(18) -0.2523(2) -0.1147(3)
O6_2 O -0.5000 -0.0860(2) -0.2500
loop_
_geom_bond_atom_site_label_1
_geom_bond_atom_site_label_2
_geom_bond_site_symmetry_1
_geom_bond_site_symmetry_2
Co1 O1 1_555 1_555
O1 C1 1_555 1_555
O2 C1 1_555 1_555
C1 C2 1_555 1_555
C2 C3 1_555 1_555
C3 H1 1_555 1_555
C4 C3 1_555 1_555
C5 C4 1_555 1_555
O3 C5 1_555 1_555
O4 C5 1_555 1_555
C6 C4 1_555 1_555
H2 C6 1_555 1_555
C7 C6 1_555 1_555
C8 C2 1_555 1_555
H3 C8 1_555 1_555
O5 C7 1_555 1_555
C9 H4 1_555 1_555
H5 C9 1_555 1_555
O6 Co1 1_555 1_555
H6 O6 1_555 1_555
H7 O6 1_555 1_555
O7 Co1 1_555 1_555
H8 O7 1_555 1_555
H9 O7 1_555 1_555
O8 Co1 1_555 1_555
H10 O8 1_555 1_555
H11 O8 1_555 1_555
O1A C1A 1_555 1_555
O2A C1A 1_555 1_555
C1A C2A 1_555 1_555
C2A C3A 1_555 1_555
C3A H1A 1_555 1_555
C4A C3A 1_555 1_555
C5A C4A 1_555 1_555
O3A C5A 1_555 1_555
O4A C5A 1_555 1_555
C6A C4A 1_555 1_555
H2A C6A 1_555 1_555
C7A C9 1_555 1_555
C8A C2A 1_555 1_555
H3A C8A 1_555 1_555
O5A O5 1_555 1_555
C9A C7 1_555 1_555
H4A C9A 1_555 1_555
H5A O5 1_555 1_555
H6A O6 1_555 1_555
H7A O6 1_555 1_555
Co1A O1A 1_555 1_555
O7A Co1A 1_555 1_555
H8A O7A 1_555 1_555
H9A O7A 1_555 1_555
O8A Co1A 1_555 1_555
H10A O8A 1_555 1_555
H11A O8A 1_555 1_555
Co1A_2 O6 1_555 1_555
Co1B O3A 1_555 1_555
Co1B_2 O4 1_555 1_555
Co1C O4A 1_555 1_555
Co1C_2 O3 1_555 1_555
O3B Co1A 1_555 1_555
O3C Co1 1_555 1_555
O4B Co1 1_555 1_555
O4C Co1A 1_555 1_555
O6_2 Co1A 1_555 1_555
C7 C8 1_555 1_555
C9 C9A 1_555 1_555
H5 O5A 1_555 1_555
C6A C7A 1_555 1_555
C7A C8A 1_555 1_555
C7A O5A 1_555 1_555
C9A H5A 1_555 1_555

#END
