
#######################################################################
#
#                 Cambridge Crystallographic Data Centre
#                                CCDC 
#
#######################################################################
#
# If this CIF has been generated from an entry in the Cambridge 
# Structural Database, then it will include bibliographic, chemical, 
# crystal, experimental, refinement or atomic coordinate data resulting 
# from the CCDC's data processing and validation procedures.
#
#######################################################################

data_BEZYIQ
_symmetry_cell_setting           triclinic
_symmetry_space_group_name_H-M   'P -1'
_symmetry_Int_Tables_number      2
_space_group_name_Hall           '-P 1'
loop_
_symmetry_equiv_pos_site_id
_symmetry_equiv_pos_as_xyz
1 x,y,z
2 -x,-y,-z
_cell_length_a                   7.998(3)
_cell_length_b                   10.016(5)
_cell_length_c                   10.586(5)
_cell_angle_alpha                64.715(18)
_cell_angle_beta                 85.217(17)
_cell_angle_gamma                83.671(17)
_cell_volume                     761.482
loop_
_atom_site_label
_atom_site_type_symbol
_atom_site_fract_x
_atom_site_fract_y
_atom_site_fract_z
Fe1 Fe 0.63728(3) 0.76637(3) 0.13578(3)
O1 O 0.18107(18) -0.13544(15) 0.54553(14)
O2 O 0.63872(17) 0.55694(14) 0.13882(14)
O3 O 0.45993(17) 0.59238(15) 0.29287(14)
O4 O 0.58371(17) -0.07179(14) 0.20057(14)
O5 O 0.56928(16) 0.14070(14) 0.00710(13)
O6 O 0.82758(19) 0.67644(17) 0.29427(16)
H1 H 0.818(3) 0.590(3) 0.359(3)
H2 H 0.922(3) 0.669(3) 0.265(3)
N1 N 0.22617(18) 0.08157(17) 0.55318(15)
H3 H 0.2030 0.1329 0.6032
N2 N -0.17339(19) -0.17394(18) 0.96690(16)
C1 C 0.3285(2) 0.1465(2) 0.43043(18)
C2 C 0.3713(2) 0.2900(2) 0.39375(19)
H4 H 0.3326 0.3399 0.4508
C3 C 0.4707(2) 0.36029(19) 0.27347(18)
C4 C 0.5240(2) 0.28959(19) 0.18694(18)
H5 H 0.5867 0.3396 0.1023
C5 C 0.4846(2) 0.14586(19) 0.22584(18)
C6 C 0.3897(2) 0.07249(19) 0.34808(18)
H6 H 0.3668 -0.0274 0.3753
C7 C 0.1600(2) -0.0508(2) 0.60216(18)
C8 C -0.1397(2) -0.0327(2) 0.8937(2)
H7 H -0.1933 0.0393 0.9230
C9 C -0.0304(2) 0.0138(2) 0.7771(2)
H8 H -0.0108 0.1156 0.7276
C10 C 0.0499(2) -0.0902(2) 0.73389(18)
C11 C 0.0165(2) -0.2374(2) 0.8093(2)
H9 H 0.0691 -0.3116 0.7824
C12 C -0.0949(2) -0.2744(2) 0.9245(2)
H10 H -0.1167 -0.3754 0.9757
C13 C 0.5255(2) 0.5112(2) 0.23464(18)
C14 C 0.5494(2) 0.0664(2) 0.13657(18)
Fe1_2 Fe -0.36272(3) -0.23363(3) 1.13578(3)
Fe1_3 Fe 0.63728(3) -0.23363(3) 0.13578(3)
Fe1A Fe 0.36272(3) 0.23363(3) -0.13578(3)
O4_2 O 0.58371(17) 0.92821(14) 0.20057(14)
O5A O 0.43072(16) 0.85930(14) -0.00710(13)
N2_2 N 0.82661(19) 0.82606(18) -0.03310(16)
O7 O 0.7828(2) 0.3999(2) 0.49829(19)
H11 H 0.795(4) 0.329(4) 0.477(3)
H12 H 0.702(4) 0.400(3) 0.541(3)
O8 O 0.8580(2) 0.3356(2) 0.8303(2)
H13 H 0.821(4) 0.288(4) 0.927(4)
H14 H 0.776(4) 0.374(4) 0.760(3)
loop_
_geom_bond_atom_site_label_1
_geom_bond_atom_site_label_2
_geom_bond_site_symmetry_1
_geom_bond_site_symmetry_2
Fe1 O2 1_555 1_555
O1 C7 1_555 1_555
O2 C13 1_555 1_555
O3 Fe1 1_555 1_555
O4 C14 1_555 1_555
O5 C14 1_555 1_555
O6 Fe1 1_555 1_555
H1 O6 1_555 1_555
H2 O6 1_555 1_555
N1 H3 1_555 1_555
N2 C8 1_555 1_555
C1 N1 1_555 1_555
C2 C1 1_555 1_555
H4 C2 1_555 1_555
C3 C2 1_555 1_555
C4 C3 1_555 1_555
H5 C4 1_555 1_555
C5 C4 1_555 1_555
C6 C1 1_555 1_555
H6 C6 1_555 1_555
C7 N1 1_555 1_555
C8 H7 1_555 1_555
C9 C8 1_555 1_555
H8 C9 1_555 1_555
C10 C7 1_555 1_555
C11 C10 1_555 1_555
H9 C11 1_555 1_555
C12 N2 1_555 1_555
H10 C12 1_555 1_555
C13 O3 1_555 1_555
C14 C5 1_555 1_555
O7 H11 1_555 1_555
H12 O7 1_555 1_555
O8 H13 1_555 1_555
H14 O8 1_555 1_555
Fe1_2 N2 1_555 1_555
Fe1_3 O4 1_555 1_555
Fe1A O5 1_555 1_555
O4_2 Fe1 1_555 1_555
O5A Fe1 1_555 1_555
N2_2 Fe1 1_555 1_555
C3 C13 1_555 1_555
C5 C6 1_555 1_555
C9 C10 1_555 1_555
C11 C12 1_555 1_555

#END
