
#######################################################################
#
#                 Cambridge Crystallographic Data Centre
#                                CCDC 
#
#######################################################################
#
# If this CIF has been generated from an entry in the Cambridge 
# Structural Database, then it will include bibliographic, chemical, 
# crystal, experimental, refinement or atomic coordinate data resulting 
# from the CCDC's data processing and validation procedures.
#
#######################################################################

data_BIQVII
_symmetry_cell_setting           monoclinic
_symmetry_space_group_name_H-M   'C 2/c'
_symmetry_Int_Tables_number      15
_space_group_name_Hall           '-C 2yn'
loop_
_symmetry_equiv_pos_site_id
_symmetry_equiv_pos_as_xyz
1 x,y,z
2 -x,y,1/2-z
3 1/2+x,1/2+y,z
4 1/2-x,1/2+y,1/2-z
5 -x,-y,-z
6 x,-y,1/2+z
7 1/2-x,1/2-y,-z
8 1/2+x,1/2-y,1/2+z
_cell_length_a                   29.349(7)
_cell_length_b                   10.144(3)
_cell_length_c                   18.028(5)
_cell_angle_alpha                90
_cell_angle_beta                 104.217(3)
_cell_angle_gamma                90
_cell_volume                     5202.84
loop_
_atom_site_label
_atom_site_type_symbol
_atom_site_fract_x
_atom_site_fract_y
_atom_site_fract_z
C1 C 0.91336(11) 0.2098(3) 0.2220(2)
C2 C 0.56996(11) 0.3870(3) 0.0799(2)
C3 C 0.86082(11) 0.2192(3) 0.20814(19)
C4 C 0.84038(11) 0.2826(3) 0.25975(19)
H1 H 0.8590 0.3133 0.3059
C5 C 0.79187(11) 0.3004(3) 0.24246(18)
C6 C 0.76896(11) 0.3760(4) 0.29232(18)
C7 C 0.69451(11) 0.3531(3) 0.19860(18)
C8 C 0.64777(10) 0.3868(3) 0.17694(18)
H2 H 0.6344 0.4384 0.2086
C9 C 0.62064(11) 0.3423(3) 0.10642(19)
C10 C 0.64012(11) 0.2627(3) 0.05925(19)
H3 H 0.6218 0.2331 0.0126
C11 C 0.68756(11) 0.2277(3) 0.08280(18)
C12 C 0.70959(11) 0.1439(3) 0.03497(19)
C13 C 0.78497(11) 0.1806(3) 0.12496(18)
C14 C 0.83306(11) 0.1677(3) 0.14025(19)
H4 H 0.8469 0.1251 0.1057
C15 C 0.76409(11) 0.2493(3) 0.17419(18)
C16 C 0.71462(11) 0.2751(3) 0.15213(18)
C17 C 0.91388(11) -0.1175(4) 0.1292(2)
C18 C 0.86508(11) -0.1615(3) 0.08847(19)
C19 C 0.84408(11) -0.1151(3) 0.01507(19)
H5 H 0.8608 -0.0612 -0.0106
C20 C 0.79848(11) -0.1497(3) -0.01888(18)
C21 C 0.73209(11) -0.1302(4) -0.1285(2)
C22 C 0.70507(11) -0.2175(3) -0.09034(18)
C23 C 0.77375(11) -0.2328(3) 0.01806(19)
C24 C 0.84040(11) -0.2445(3) 0.12610(19)
H6 H 0.8544 -0.2745 0.1752
Ce1 Ce 0.996630(6) 0.12684(2) 0.118857(10)
O1 O 0.92928(8) 0.1895(3) 0.16457(14)
O2 O 0.93773(8) 0.2252(2) 0.28922(14)
O3 O 0.54863(8) 0.3614(3) 0.01265(13)
O4 O 0.55252(8) 0.4479(3) 0.12623(14)
O5 O 0.78837(8) 0.4199(2) 0.35444(14)
O6 O 0.68998(8) 0.0882(2) -0.02283(14)
O7 O 0.93964(8) -0.0657(2) 0.09016(13)
O8 O 0.92552(8) -0.1329(3) 0.20019(14)
O9 O 0.71762(8) -0.0836(2) -0.19144(14)
O10 O 0.77765(7) -0.0991(2) -0.09080(13)
O11 O 1.05244(11) 0.2035(3) 0.03973(18)
O12 O 0.98166(12) 0.3674(3) 0.0951(2)
O13 O 1.00000(5) 0.01302(14) 0.25000(8)
O14 O 0.75813(5) 0.12946(14) 0.05712(8)
O15 O 0.72142(5) 0.39838(14) 0.26849(8)
H7 H 1.0231 -0.0373 0.2603
H8 H 1.0542(13) 0.164(3) -0.0006(15)
H9 H 1.0721(12) 0.265(3) 0.048(2)
H10 H 1.0035(11) 0.418(3) 0.096(3)
H11 H 0.9597(12) 0.404(4) 0.108(2)
C17F C 0.58612(11) -0.3825(4) -0.1292(2)
C18F C 0.63492(11) -0.3385(3) -0.08847(19)
C19F C 0.65592(11) -0.3849(3) -0.01507(19)
H5F H 0.6392 -0.4388 0.0106
C20F C 0.70152(11) -0.3503(3) 0.01888(18)
C21F C 0.76791(11) -0.3698(4) 0.1285(2)
C22F C 0.79493(11) -0.2825(3) 0.09034(18)
C23F C 0.72625(11) -0.2672(3) -0.01806(19)
C24F C 0.65960(11) -0.2555(3) -0.12610(19)
H6F H 0.6456 -0.2255 -0.1752
O7F O 0.56036(8) -0.4343(2) -0.09016(13)
O8F O 0.57448(8) -0.3671(3) -0.20019(14)
O9F O 0.78238(8) -0.4164(2) 0.19144(14)
O10F O 0.72235(7) -0.4009(2) 0.09080(13)
H7A H 0.9769 -0.0373 0.2397
C1A C 1.08664(11) 0.2098(3) 0.2780(2)
C2A C 1.43004(11) 0.3870(3) 0.4201(2)
C3A C 1.13918(11) 0.2192(3) 0.29186(19)
C4A C 1.15962(11) 0.2826(3) 0.24025(19)
H1A H 1.1410 0.3133 0.1941
C5A C 1.20813(11) 0.3004(3) 0.25754(18)
C6A C 1.23104(11) 0.3760(4) 0.20768(18)
C7A C 1.30549(11) 0.3531(3) 0.30140(18)
C8A C 1.35223(10) 0.3868(3) 0.32306(18)
H2A H 1.3656 0.4384 0.2914
C9A C 1.37936(11) 0.3423(3) 0.39358(19)
C10A C 1.35988(11) 0.2627(3) 0.44075(19)
H3A H 1.3782 0.2331 0.4874
C11A C 1.31244(11) 0.2277(3) 0.41720(18)
C12A C 1.29041(11) 0.1439(3) 0.46503(19)
C13A C 1.21503(11) 0.1806(3) 0.37504(18)
C14A C 1.16694(11) 0.1677(3) 0.35975(19)
H4A H 1.1531 0.1251 0.3943
C15A C 1.23591(11) 0.2493(3) 0.32581(18)
C16A C 1.28538(11) 0.2751(3) 0.34787(18)
Ce1A Ce 1.003370(6) 0.12684(2) 0.381143(10)
O1A O 1.07072(8) 0.1895(3) 0.33543(14)
O2A O 1.06227(8) 0.2252(2) 0.21078(14)
O3A O 1.45137(8) 0.3614(3) 0.48735(13)
O4A O 1.44748(8) 0.4479(3) 0.37377(14)
O5A O 1.21163(8) 0.4199(2) 0.14556(14)
O6A O 1.31002(8) 0.0882(2) 0.52283(14)
O11A O 0.94756(11) 0.2035(3) 0.46027(18)
O12A O 1.01834(12) 0.3674(3) 0.4049(2)
O14A O 1.24187(5) 0.12946(14) 0.44288(8)
O15A O 1.27858(5) 0.39838(14) 0.23151(8)
H8A H 0.9458(13) 0.164(3) 0.5006(15)
H9A H 0.9279(12) 0.265(3) 0.452(2)
H10A H 0.9965(11) 0.418(3) 0.404(3)
H11A H 1.0403(12) 0.404(4) 0.392(2)
Ce1B Ce 0.496630(6) 0.62684(2) 0.118857(10)
Ce1C Ce 1.503370(6) 0.62684(2) 0.381143(10)
Ce1F Ce 0.503370(6) -0.62684(2) -0.118857(10)
Ce1F_2 Ce 0.503370(6) 0.37316(2) -0.118857(10)
Ce1G Ce 1.496630(6) 0.37316(2) 0.618857(10)
O3F O 0.95137(8) 0.1386(3) -0.01265(13)
O3G O 1.04863(8) 0.1386(3) 0.51265(13)
O4B O 1.05252(8) -0.0521(3) 0.12623(14)
O4C O 0.94748(8) -0.0521(3) 0.37377(14)
O7A O 1.06036(8) -0.0657(2) 0.40984(13)
O16 O 0.11635(13) 0.4108(4) 0.0478(2)
H12 H 0.116(3) 0.449(7) 0.006(3)
H13 H 0.100(2) 0.453(6) 0.073(3)
O17 O 0.04398(13) 0.5641(3) 0.0840(2)
H14 H 0.0258 0.5850 0.0975
H15 H 0.0682 0.6205 0.0887
O18 O 0.90231(14) 0.4960(4) 0.1136(3)
H16 H 0.879(3) 0.446(12) 0.113(9)
H17 H 0.9186(19) 0.532(6) 0.154(2)
O19 O 0.94715(5) 0.62009(14) 0.25468(8)
H18 H 0.9650 0.5622 0.2400
H19 H 0.9571 0.6362 0.3029
loop_
_geom_bond_atom_site_label_1
_geom_bond_atom_site_label_2
_geom_bond_site_symmetry_1
_geom_bond_site_symmetry_2
C1 C3 1_555 1_555
C2 C9 1_555 1_555
C3 C4 1_555 1_555
C4 H1 1_555 1_555
C5 C4 1_555 1_555
C6 C5 1_555 1_555
C7 C8 1_555 1_555
C8 H2 1_555 1_555
C9 C8 1_555 1_555
C10 C9 1_555 1_555
H3 C10 1_555 1_555
C11 C10 1_555 1_555
C12 C11 1_555 1_555
C13 C14 1_555 1_555
C14 C3 1_555 1_555
H4 C14 1_555 1_555
C15 C5 1_555 1_555
C16 C7 1_555 1_555
C17 C18 1_555 1_555
C18 C19 1_555 1_555
C19 H5 1_555 1_555
C20 C19 1_555 1_555
C21 C22 1_555 1_555
C22 C23F 1_555 1_555
C23 C20 1_555 1_555
C24 C18 1_555 1_555
H6 C24 1_555 1_555
Ce1 O1 1_555 1_555
O1 C1 1_555 1_555
O2 C1 1_555 1_555
O3 C2 1_555 1_555
O4 C2 1_555 1_555
O5 C6 1_555 1_555
O6 C12 1_555 1_555
O7 C17 1_555 1_555
O8 C17 1_555 1_555
O9 C21 1_555 1_555
O10 C20 1_555 1_555
O11 Ce1 1_555 1_555
O12 Ce1 1_555 1_555
O13 Ce1 1_555 1_555
O14 C12 1_555 1_555
O15 C6 1_555 1_555
H7 O13 1_555 1_555
H8 O11 1_555 1_555
H9 O11 1_555 1_555
H10 O12 1_555 1_555
H11 O12 1_555 1_555
O16 H12 1_555 1_555
H13 O16 1_555 1_555
O17 H14 1_555 1_555
H15 O17 1_555 1_555
O18 H16 1_555 1_555
H17 O18 1_555 1_555
O19 H18 1_555 1_555
H19 O19 1_555 1_555
C17F C18F 1_555 1_555
C18F C19F 1_555 1_555
C19F H5F 1_555 1_555
C20F C19F 1_555 1_555
C21F C22F 1_555 1_555
C22F C23 1_555 1_555
C23F C23 1_555 1_555
C24F C22 1_555 1_555
H6F C24F 1_555 1_555
O7F C17F 1_555 1_555
O8F C17F 1_555 1_555
O9F C21F 1_555 1_555
O10F C20F 1_555 1_555
H7A O13 1_555 1_555
C1A C3A 1_555 1_555
C2A C9A 1_555 1_555
C3A C4A 1_555 1_555
C4A H1A 1_555 1_555
C5A C4A 1_555 1_555
C6A C5A 1_555 1_555
C7A C8A 1_555 1_555
C8A H2A 1_555 1_555
C9A C8A 1_555 1_555
C10A C9A 1_555 1_555
H3A C10A 1_555 1_555
C11A C10A 1_555 1_555
C12A C11A 1_555 1_555
C13A C14A 1_555 1_555
C14A C3A 1_555 1_555
H4A C14A 1_555 1_555
C15A C5A 1_555 1_555
C16A C7A 1_555 1_555
Ce1A O2 1_555 1_555
O1A C1A 1_555 1_555
O2A Ce1 1_555 1_555
O3A C2A 1_555 1_555
O4A C2A 1_555 1_555
O5A C6A 1_555 1_555
O6A C12A 1_555 1_555
O11A Ce1A 1_555 1_555
O12A Ce1A 1_555 1_555
O14A C12A 1_555 1_555
O15A C6A 1_555 1_555
H8A O11A 1_555 1_555
H9A O11A 1_555 1_555
H10A O12A 1_555 1_555
H11A O12A 1_555 1_555
Ce1B O4 1_555 1_555
Ce1C O4A 1_555 1_555
Ce1F O7F 1_555 1_555
Ce1F_2 O3 1_555 1_555
Ce1G O3A 1_555 1_555
O3F Ce1 1_555 1_555
O3G Ce1A 1_555 1_555
O4B Ce1 1_555 1_555
O4C Ce1A 1_555 1_555
O7A Ce1A 1_555 1_555
C7 O15 1_555 1_555
C11 C16 1_555 1_555
C13 C15 1_555 1_555
C13 O14 1_555 1_555
C15 C16 1_555 1_555
C21 O10 1_555 1_555
C24 C22F 1_555 1_555
Ce1 O7 1_555 1_555
O13 Ce1A 1_555 1_555
C18F C24F 1_555 1_555
C20F C23F 1_555 1_555
C21F O10F 1_555 1_555
C1A O2A 1_555 1_555
C7A O15A 1_555 1_555
C11A C16A 1_555 1_555
C13A C15A 1_555 1_555
C13A O14A 1_555 1_555
C15A C16A 1_555 1_555
Ce1A O1A 1_555 1_555

#END
