
#######################################################################
#
#                 Cambridge Crystallographic Data Centre
#                                CCDC 
#
#######################################################################
#
# If this CIF has been generated from an entry in the Cambridge 
# Structural Database, then it will include bibliographic, chemical, 
# crystal, experimental, refinement or atomic coordinate data resulting 
# from the CCDC's data processing and validation procedures.
#
#######################################################################

data_BIRMUM
_symmetry_cell_setting           monoclinic
_symmetry_space_group_name_H-M   'P 21/c'
_symmetry_Int_Tables_number      14
_space_group_name_Hall           '-P 2ybc'
loop_
_symmetry_equiv_pos_site_id
_symmetry_equiv_pos_as_xyz
1 x,y,z
2 -x,1/2+y,1/2-z
3 -x,-y,-z
4 x,1/2-y,1/2+z
_cell_length_a                   21.075(2)
_cell_length_b                   7.0239(7)
_cell_length_c                   31.990(3)
_cell_angle_alpha                90
_cell_angle_beta                 104.356(2)
_cell_angle_gamma                90
_cell_volume                     4587.57
loop_
_atom_site_label
_atom_site_type_symbol
_atom_site_fract_x
_atom_site_fract_y
_atom_site_fract_z
Mn1 Mn 0.30068(3) 1.11129(9) 0.250539(19)
Mn2 Mn 0.24495(3) 1.60247(9) 0.232685(19)
O1 O 0.34489(16) 1.0157(5) 0.20062(10)
O2 O 0.20951(15) 1.1347(4) 0.20509(9)
O3 O 0.33549(15) 1.4060(4) 0.23780(9)
O4 O 0.27833(15) 0.7630(4) 0.18550(9)
O5 O 0.20653(17) 0.0359(5) -0.22117(10)
C1 C 0.1346(3) 0.0800(7) -0.15901(14)
H1 H 0.1155 0.0062 -0.1830
C2 C 0.3215(2) 0.8736(6) 0.17817(13)
C3 C 0.2923(2) 0.5820(7) 0.03045(13)
O6 O 0.19827(16) 1.4267(4) 0.17720(9)
O7 O 0.38471(16) 1.0169(5) 0.30199(10)
C4 C 0.3480(2) 0.8274(6) 0.13973(13)
C5 C 0.1915(2) 0.1801(7) -0.15762(13)
O8 O 0.30899(16) 0.7995(5) 0.28008(9)
C6 C 0.4107(2) 0.8827(7) 0.13917(14)
H2 H 0.4359 0.9540 0.1617
C7 C 0.5357(2) 0.8501(7) 0.48701(14)
C8 C 0.3585(2) 0.8629(7) 0.30764(13)
N1 N 0.42608(19) 1.4047(6) 0.21191(13)
C9 C 0.4710(2) 0.8879(7) 0.46343(13)
C10 C 0.3827(2) 0.7586(7) 0.34904(13)
C11 C 0.2656(2) 0.3993(7) 0.03157(14)
C12 C 0.3327(2) 0.6797(7) 0.06925(14)
C13 C 0.1924(2) 0.2989(7) -0.08658(14)
C14 C 0.2496(2) 0.5911(7) -0.04803(14)
C15 C -0.0370(2) 1.3796(7) 0.02015(15)
C16 C 0.0308(2) 1.3681(7) 0.03094(14)
C17 C 0.3096(2) 0.7240(7) 0.10517(13)
H3 H 0.2679 0.6844 0.1063
C18 C 0.1876(2) 1.2526(6) 0.17448(14)
C19 C 0.2249(2) 0.4068(7) -0.04709(14)
C20 C 0.1060(3) 0.0903(8) -0.12437(16)
H4 H 0.0675 0.0239 -0.1252
C21 C 0.2193(2) 0.2895(7) -0.12201(13)
H5 H 0.2570 0.3588 -0.1217
C22 C 0.4176(2) 0.8618(7) 0.38482(13)
H6 H 0.4272 0.9895 0.3818
C23 C 0.1098(2) 1.2992(7) 0.10148(13)
H7 H 0.1151 1.4299 0.1055
C24 C 0.3972(3) 0.7327(7) 0.07003(15)
H8 H 0.4144 0.7013 0.0468
C25 C 0.0676(2) 1.2314(7) 0.06426(14)
C26 C 0.2822(2) 0.6735(7) -0.00967(14)
H9 H 0.2985 0.7962 -0.0104
C27 C 0.1447(2) 1.1749(6) 0.13328(14)
C28 C 0.2227(2) 0.1717(7) -0.19501(13)
C29 C 0.3634(2) 1.4151(6) 0.20724(15)
H10 H 0.3371 1.4304 0.1794
C30 C 0.4378(2) 0.7738(7) 0.42485(13)
C31 C 0.5626(2) 0.9633(7) 0.52294(14)
H11 H 0.6052 0.9378 0.5386
C32 C 0.4242(2) 0.5800(7) 0.42766(15)
H12 H 0.4382 0.5182 0.4541
C33 C 0.1347(3) 0.1995(8) -0.08848(15)
H13 H 0.1152 0.2062 -0.0655
C34 C 0.3698(2) 0.5674(7) 0.35284(15)
H14 H 0.3471 0.4990 0.3289
C35 C -0.0659(2) 1.5125(7) -0.01103(15)
H15 H -0.1114 1.5210 -0.0188
C36 C 0.3908(2) 0.4785(7) 0.39227(16)
H16 H 0.3822 0.3498 0.3950
C37 C 0.0969(3) 0.9117(8) 0.08825(18)
H17 H 0.0929 0.7812 0.0834
C38 C 0.0613(3) 1.0375(8) 0.05828(17)
H18 H 0.0325 0.9903 0.0336
C39 C 0.5783(3) 0.7043(8) 0.47273(16)
H19 H 0.5603 0.5797 0.4741
H20 H 0.6217 0.7095 0.4913
H21 H 0.5802 0.7307 0.4436
C40 C 0.2332(2) 0.3162(7) -0.00710(14)
H22 H 0.2162 0.1944 -0.0065
C41 C 0.4355(3) 0.8306(7) 0.10459(15)
H23 H 0.4784 0.8620 0.1047
C42 C 0.1386(3) 0.9815(7) 0.12568(16)
H24 H 0.1627 0.8970 0.1459
C43 C 0.2745(3) 0.2838(9) 0.07238(16)
H25 H 0.2610 0.1549 0.0652
H26 H 0.2483 0.3375 0.0901
H27 H 0.3197 0.2857 0.0879
C44 C 0.2397(3) 0.7136(8) -0.08887(16)
H28 H 0.2378 0.8454 -0.0814
H29 H 0.1996 0.6779 -0.1089
H30 H 0.2757 0.6940 -0.1018
O9 O 0.16512(16) 1.7949(5) 0.22709(11)
H31 H 0.1312 1.8264 0.2350
H32 H 0.1727 1.8817 0.2103
C45 C 0.4554(3) 1.4044(8) 0.17489(17)
H33 H 0.4740 1.2814 0.1723
H34 H 0.4892 1.4994 0.1790
H35 H 0.4223 1.4320 0.1490
C46 C 0.4681(3) 1.3715(11) 0.2547(2)
H36 H 0.4578 1.4615 0.2746
H37 H 0.5131 1.3864 0.2539
H38 H 0.4612 1.2446 0.2638
C47 C -0.0804(3) 1.2614(10) 0.0413(2)
H39 H -0.0677 1.2808 0.0719
H40 H -0.0758 1.1292 0.0350
H41 H -0.1252 1.2993 0.0303
O10 O 0.26405(16) 0.2965(5) -0.19730(9)
O2B O -0.20951(15) 1.8653(4) -0.20509(9)
O6B O -0.19827(16) 1.5733(4) -0.17720(9)
C15B C 0.0370(2) 1.6204(7) -0.02015(15)
C16B C -0.0308(2) 1.6319(7) -0.03094(14)
C18B C -0.1876(2) 1.7474(6) -0.17448(14)
C23B C -0.1098(2) 1.7008(7) -0.10148(13)
H7B H -0.1151 1.5701 -0.1055
C25B C -0.0676(2) 1.7686(7) -0.06426(14)
C27B C -0.1447(2) 1.8251(6) -0.13328(14)
C35B C 0.0659(2) 1.4875(7) 0.01103(15)
H15B H 0.1114 1.4790 0.0188
C37B C -0.0969(3) 2.0883(8) -0.08825(18)
H17B H -0.0929 2.2188 -0.0834
C38B C -0.0613(3) 1.9625(8) -0.05828(17)
H18B H -0.0325 2.0097 -0.0336
C42B C -0.1386(3) 2.0185(7) -0.12568(16)
H24B H -0.1627 2.1030 -0.1459
C47B C 0.0804(3) 1.7386(10) -0.0413(2)
H39B H 0.0677 1.7192 -0.0719
H40B H 0.0758 1.8708 -0.0350
H41B H 0.1252 1.7007 -0.0303
O7B O 0.61529(16) 0.9831(5) 0.69801(10)
O8B O 0.69101(16) 1.2005(5) 0.71992(9)
C7B C 0.4643(2) 1.1499(7) 0.51299(14)
C8B C 0.6415(2) 1.1371(7) 0.69236(13)
C9B C 0.5290(2) 1.1121(7) 0.53657(13)
C10B C 0.6173(2) 1.2414(7) 0.65096(13)
C22B C 0.5824(2) 1.1382(7) 0.61518(13)
H6B H 0.5728 1.0105 0.6182
C30B C 0.5622(2) 1.2262(7) 0.57515(13)
C31B C 0.4374(2) 1.0367(7) 0.47706(14)
H11B H 0.3948 1.0622 0.4614
C32B C 0.5758(2) 1.4200(7) 0.57234(15)
H12B H 0.5618 1.4818 0.5459
C34B C 0.6302(2) 1.4326(7) 0.64716(15)
H14B H 0.6529 1.5010 0.6711
C36B C 0.6092(2) 1.5215(7) 0.60773(16)
H16B H 0.6178 1.6502 0.6050
C39B C 0.4217(3) 1.2957(8) 0.52727(16)
H19B H 0.4397 1.4203 0.5259
H20B H 0.3783 1.2905 0.5087
H21B H 0.4198 1.2693 0.5564
Mn1B Mn -0.30068(3) 1.88871(9) -0.250539(19)
Mn2B Mn -0.24495(3) 1.39753(9) -0.232685(19)
O1B O -0.34489(16) 1.9843(5) -0.20062(10)
O3B O -0.33549(15) 1.5940(4) -0.23780(9)
O4B O -0.27833(15) 2.2370(4) -0.18550(9)
O5B O -0.20653(17) 2.9641(5) 0.22117(10)
C1B C -0.1346(3) 2.9200(7) 0.15901(14)
H1B H -0.1155 2.9938 0.1830
C2B C -0.3215(2) 2.1264(6) -0.17817(13)
C3B C -0.2923(2) 2.4180(7) -0.03045(13)
C4B C -0.3480(2) 2.1726(6) -0.13973(13)
C5B C -0.1915(2) 2.8199(7) 0.15762(13)
C6B C -0.4107(2) 2.1173(7) -0.13917(14)
H2B H -0.4359 2.0460 -0.1617
N1B N -0.42608(19) 1.5953(6) -0.21191(13)
C11B C -0.2656(2) 2.6007(7) -0.03157(14)
C12B C -0.3327(2) 2.3203(7) -0.06925(14)
C13B C -0.1924(2) 2.7011(7) 0.08658(14)
C14B C -0.2496(2) 2.4089(7) 0.04803(14)
C17B C -0.3096(2) 2.2760(7) -0.10517(13)
H3B H -0.2679 2.3156 -0.1063
C19B C -0.2249(2) 2.5932(7) 0.04709(14)
C20B C -0.1060(3) 2.9097(8) 0.12437(16)
H4B H -0.0675 2.9761 0.1252
C21B C -0.2193(2) 2.7105(7) 0.12201(13)
H5B H -0.2570 2.6412 0.1217
C24B C -0.3972(3) 2.2673(7) -0.07003(15)
H8B H -0.4144 2.2987 -0.0468
C26B C -0.2822(2) 2.3265(7) 0.00967(14)
H9B H -0.2985 2.2038 0.0104
C28B C -0.2227(2) 2.8283(7) 0.19501(13)
C29B C -0.3634(2) 1.5849(6) -0.20724(15)
H10B H -0.3371 1.5696 -0.1794
C33B C -0.1347(3) 2.8005(8) 0.08848(15)
H13B H -0.1152 2.7938 0.0655
C40B C -0.2332(2) 2.6838(7) 0.00710(14)
H22B H -0.2162 2.8056 0.0065
C41B C -0.4355(3) 2.1694(7) -0.10459(15)
H23B H -0.4784 2.1380 -0.1047
C43B C -0.2745(3) 2.7162(9) -0.07238(16)
H25B H -0.2610 2.8451 -0.0652
H26B H -0.2483 2.6625 -0.0901
H27B H -0.3197 2.7143 -0.0879
C44B C -0.2397(3) 2.2864(8) 0.08887(16)
H28B H -0.2378 2.1546 0.0814
H29B H -0.1996 2.3221 0.1089
H30B H -0.2757 2.3060 0.1018
O9B O -0.16512(16) 1.2051(5) -0.22709(11)
H31B H -0.1312 1.1736 -0.2350
H32B H -0.1727 1.1183 -0.2103
C45B C -0.4554(3) 1.5956(8) -0.17489(17)
H33B H -0.4740 1.7186 -0.1723
H34B H -0.4892 1.5006 -0.1790
H35B H -0.4223 1.5680 -0.1490
C46B C -0.4681(3) 1.6285(11) -0.2547(2)
H36B H -0.4578 1.5385 -0.2746
H37B H -0.5131 1.6136 -0.2539
H38B H -0.4612 1.7554 -0.2638
O10B O -0.26405(16) 2.7035(5) 0.19730(9)
Mn1A Mn -0.30068(3) 2.61129(9) 0.249461(19)
Mn1B_2 Mn 0.69932(3) 0.88871(9) 0.749461(19)
Mn1C Mn 0.30068(3) 0.38871(9) -0.249461(19)
Mn2_2 Mn 0.24495(3) 0.60247(9) 0.232685(19)
Mn2A Mn -0.24495(3) 3.10247(9) 0.267315(19)
Mn2B_2 Mn -0.24495(3) 2.39753(9) -0.232685(19)
Mn2B_3 Mn 0.75505(3) 1.39753(9) 0.767315(19)
Mn2C Mn 0.24495(3) -0.10247(9) -0.267315(19)
O4_2 O 0.27833(15) 1.7630(4) 0.18550(9)
O4B_2 O -0.27833(15) 1.2370(4) -0.18550(9)
O5A O -0.20653(17) 1.5359(5) -0.27883(10)
O5C O 0.20653(17) 1.4641(5) 0.27883(10)
O7B_2 O -0.38471(16) 1.9831(5) -0.30199(10)
O8_2 O 0.30899(16) 1.7995(5) 0.28008(9)
O8B_2 O -0.30899(16) 1.2005(5) -0.28008(9)
O8B_3 O -0.30899(16) 2.2005(5) -0.28008(9)
O10A O -0.26405(16) 1.7965(5) -0.30270(9)
O10C O 0.26405(16) 1.2035(5) 0.30270(9)
N2 N 0.0066(3) 0.5979(10) 0.8061(2)
O11 O 0.0723(4) 0.7034(11) 0.7689(3)
C48 C 0.0618(4) 0.5997(14) 0.7967(4)
H42 H 0.0949 0.5195 0.8115
C49 C -0.0474(5) 0.7107(18) 0.7840(3)
H43 H -0.0505 0.8222 0.8008
H44 H -0.0871 0.6381 0.7799
H45 H -0.0412 0.7481 0.7564
C50 C -0.0040(6) 0.4725(18) 0.8391(3)
H46 H -0.0466 0.4154 0.8299
H47 H -0.0014 0.5435 0.8651
H48 H 0.0288 0.3747 0.8445
loop_
_geom_bond_atom_site_label_1
_geom_bond_atom_site_label_2
_geom_bond_site_symmetry_1
_geom_bond_site_symmetry_2
Mn1 O1 1_555 1_555
Mn2 O3 1_555 1_555
O1 C2 1_555 1_555
O2 Mn1 1_555 1_555
O3 Mn1 1_555 1_555
O4 C2 1_555 1_555
O5 C28 1_555 1_555
C1 H1 1_555 1_555
C2 C4 1_555 1_555
C3 C11 1_555 1_555
O6 Mn2 1_555 1_555
O7 Mn1 1_555 1_555
C4 C6 1_555 1_555
C5 C1 1_555 1_555
O8 Mn1 1_555 1_555
C6 H2 1_555 1_555
C7 C9 1_555 1_555
C8 O7 1_555 1_555
N1 C29 1_555 1_555
C9 C30 1_555 1_555
C10 C8 1_555 1_555
C11 C40 1_555 1_555
C12 C3 1_555 1_555
C13 C19 1_555 1_555
C14 C19 1_555 1_555
C15 C16 1_555 1_555
C16 C25 1_555 1_555
C17 C4 1_555 1_555
H3 C17 1_555 1_555
C18 O2 1_555 1_555
C19 C40 1_555 1_555
C20 C1 1_555 1_555
H4 C20 1_555 1_555
C21 C5 1_555 1_555
H5 C21 1_555 1_555
C22 C10 1_555 1_555
H6 C22 1_555 1_555
C23 H7 1_555 1_555
C24 C12 1_555 1_555
H8 C24 1_555 1_555
C25 C23 1_555 1_555
C26 C3 1_555 1_555
H9 C26 1_555 1_555
C27 C18 1_555 1_555
C28 C5 1_555 1_555
C29 O3 1_555 1_555
H10 C29 1_555 1_555
C30 C22 1_555 1_555
C31 C7 1_555 1_555
H11 C31 1_555 1_555
C32 C30 1_555 1_555
H12 C32 1_555 1_555
C33 C13 1_555 1_555
H13 C33 1_555 1_555
C34 C10 1_555 1_555
H14 C34 1_555 1_555
C35 C15 1_555 1_555
H15 C35 1_555 1_555
C36 C32 1_555 1_555
H16 C36 1_555 1_555
C37 H17 1_555 1_555
C38 C25 1_555 1_555
H18 C38 1_555 1_555
C39 C7 1_555 1_555
H19 C39 1_555 1_555
H20 C39 1_555 1_555
H21 C39 1_555 1_555
C40 H22 1_555 1_555
C41 C6 1_555 1_555
H23 C41 1_555 1_555
C42 C27 1_555 1_555
H24 C42 1_555 1_555
C43 C11 1_555 1_555
H25 C43 1_555 1_555
H26 C43 1_555 1_555
H27 C43 1_555 1_555
C44 C14 1_555 1_555
H28 C44 1_555 1_555
H29 C44 1_555 1_555
H30 C44 1_555 1_555
O9 Mn2 1_555 1_555
H31 O9 1_555 1_555
H32 O9 1_555 1_555
C45 N1 1_555 1_555
H33 C45 1_555 1_555
H34 C45 1_555 1_555
H35 C45 1_555 1_555
C46 N1 1_555 1_555
H36 C46 1_555 1_555
H37 C46 1_555 1_555
H38 C46 1_555 1_555
C47 C15 1_555 1_555
H39 C47 1_555 1_555
H40 C47 1_555 1_555
H41 C47 1_555 1_555
O10 C28 1_555 1_555
N2 C48 1_555 1_555
O11 C48 1_555 1_555
C48 H42 1_555 1_555
C49 N2 1_555 1_555
H43 C49 1_555 1_555
H44 C49 1_555 1_555
H45 C49 1_555 1_555
C50 N2 1_555 1_555
H46 C50 1_555 1_555
H47 C50 1_555 1_555
H48 C50 1_555 1_555
O2B C18B 1_555 1_555
O6B C18B 1_555 1_555
C15B C16B 1_555 1_555
C16B C35 1_555 1_555
C18B C27B 1_555 1_555
C23B H7B 1_555 1_555
C25B C16B 1_555 1_555
C27B C23B 1_555 1_555
C35B C16 1_555 1_555
H15B C35B 1_555 1_555
C37B H17B 1_555 1_555
C38B C25B 1_555 1_555
H18B C38B 1_555 1_555
C42B C27B 1_555 1_555
H24B C42B 1_555 1_555
C47B C15B 1_555 1_555
H39B C47B 1_555 1_555
H40B C47B 1_555 1_555
H41B C47B 1_555 1_555
O7B C8B 1_555 1_555
O8B C8B 1_555 1_555
C7B C9B 1_555 1_555
C8B C10B 1_555 1_555
C9B C31 1_555 1_555
C10B C22B 1_555 1_555
C22B H6B 1_555 1_555
C30B C9B 1_555 1_555
C31B C9 1_555 1_555
H11B C31B 1_555 1_555
C32B C30B 1_555 1_555
H12B C32B 1_555 1_555
C34B C10B 1_555 1_555
H14B C34B 1_555 1_555
C36B C32B 1_555 1_555
H16B C36B 1_555 1_555
C39B C7B 1_555 1_555
H19B C39B 1_555 1_555
H20B C39B 1_555 1_555
H21B C39B 1_555 1_555
Mn1B O2B 1_555 1_555
Mn2B O6B 1_555 1_555
O1B Mn1B 1_555 1_555
O3B Mn1B 1_555 1_555
O4B C2B 1_555 1_555
O5B C28B 1_555 1_555
C1B H1B 1_555 1_555
C2B O1B 1_555 1_555
C3B C11B 1_555 1_555
C4B C2B 1_555 1_555
C5B C1B 1_555 1_555
C6B C4B 1_555 1_555
H2B C6B 1_555 1_555
N1B C29B 1_555 1_555
C11B C40B 1_555 1_555
C12B C3B 1_555 1_555
C13B C19B 1_555 1_555
C14B C19B 1_555 1_555
C17B C4B 1_555 1_555
H3B C17B 1_555 1_555
C19B C40B 1_555 1_555
C20B C1B 1_555 1_555
H4B C20B 1_555 1_555
C21B C5B 1_555 1_555
H5B C21B 1_555 1_555
C24B C12B 1_555 1_555
H8B C24B 1_555 1_555
C26B C3B 1_555 1_555
H9B C26B 1_555 1_555
C28B C5B 1_555 1_555
C29B O3B 1_555 1_555
H10B C29B 1_555 1_555
C33B C13B 1_555 1_555
H13B C33B 1_555 1_555
C40B H22B 1_555 1_555
C41B C6B 1_555 1_555
H23B C41B 1_555 1_555
C43B C11B 1_555 1_555
H25B C43B 1_555 1_555
H26B C43B 1_555 1_555
H27B C43B 1_555 1_555
C44B C14B 1_555 1_555
H28B C44B 1_555 1_555
H29B C44B 1_555 1_555
H30B C44B 1_555 1_555
O9B Mn2B 1_555 1_555
H31B O9B 1_555 1_555
H32B O9B 1_555 1_555
C45B N1B 1_555 1_555
H33B C45B 1_555 1_555
H34B C45B 1_555 1_555
H35B C45B 1_555 1_555
C46B N1B 1_555 1_555
H36B C46B 1_555 1_555
H37B C46B 1_555 1_555
H38B C46B 1_555 1_555
O10B C28B 1_555 1_555
Mn1A O10B 1_555 1_555
Mn1B_2 O7B 1_555 1_555
Mn1C O10 1_555 1_555
Mn2_2 O4 1_555 1_555
Mn2A O5B 1_555 1_555
Mn2B_2 O4B 1_555 1_555
Mn2B_3 O8B 1_555 1_555
Mn2C O5 1_555 1_555
O4_2 Mn2 1_555 1_555
O4B_2 Mn2B 1_555 1_555
O5A Mn2B 1_555 1_555
O5C Mn2 1_555 1_555
O7B_2 Mn1B 1_555 1_555
O8_2 Mn2 1_555 1_555
O8B_2 Mn2B 1_555 1_555
O8B_3 Mn1B 1_555 1_555
O10A Mn1B 1_555 1_555
O10C Mn1 1_555 1_555
O6 C18 1_555 1_555
O8 C8 1_555 1_555
O8 Mn2_2 1_555 1_555
C12 C17 1_555 1_555
C13 C21 1_555 1_555
C14 C26 1_555 1_555
C20 C33 1_555 1_555
C23 C27 1_555 1_555
C24 C41 1_555 1_555
C34 C36 1_555 1_555
C37 C38 1_555 1_555
C37 C42 1_555 1_555
C15B C35B 1_555 1_555
C23B C25B 1_555 1_555
C37B C38B 1_555 1_555
C37B C42B 1_555 1_555
O8B Mn1B_2 1_555 1_555
C7B C31B 1_555 1_555
C22B C30B 1_555 1_555
C34B C36B 1_555 1_555
Mn2B O3B 1_555 1_555
C12B C17B 1_555 1_555
C13B C21B 1_555 1_555
C14B C26B 1_555 1_555
C20B C33B 1_555 1_555
C24B C41B 1_555 1_555
Mn2B_2 O8B_3 1_555 1_555

#END
