
#######################################################################
#
#                 Cambridge Crystallographic Data Centre
#                                CCDC 
#
#######################################################################
#
# If this CIF has been generated from an entry in the Cambridge 
# Structural Database, then it will include bibliographic, chemical, 
# crystal, experimental, refinement or atomic coordinate data resulting 
# from the CCDC's data processing and validation procedures.
#
#######################################################################

data_BIRSIG
_symmetry_cell_setting           orthorhombic
_symmetry_space_group_name_H-M   'P b a 2'
_symmetry_Int_Tables_number      32
_space_group_name_Hall           'P 2 -2ab'
loop_
_symmetry_equiv_pos_site_id
_symmetry_equiv_pos_as_xyz
1 x,y,z
2 -x,-y,z
3 1/2+x,1/2-y,z
4 1/2-x,1/2+y,z
_cell_length_a                   13.722(2)
_cell_length_b                   19.730(3)
_cell_length_c                   12.988(2)
_cell_angle_alpha                90
_cell_angle_beta                 90
_cell_angle_gamma                90
_cell_volume                     3516.31
loop_
_atom_site_label
_atom_site_type_symbol
_atom_site_fract_x
_atom_site_fract_y
_atom_site_fract_z
Ni1 Ni 0.5000 0.0000 0.03623(5)
Ni2 Ni 0.70094(3) -0.09776(2) 0.11406(4)
Ni3 Ni 0.60226(3) -0.02599(2) 0.29301(4)
Ni4 Ni 0.52400(4) 0.11487(2) 0.43914(4)
O1 O 0.5951(2) -0.04491(15) 0.4492(2)
O2 O 0.6138(2) 0.05438(16) 0.5281(2)
O3 O 0.7306(2) -0.07166(18) 0.9672(2)
O4 O 0.5965(2) -0.01819(19) 0.9152(3)
C1 C 0.6246(3) -0.0084(2) 0.5231(3)
C2 C 0.6732(3) -0.0492(2) 0.9008(3)
C3 C 0.6749(3) -0.0431(2) 0.6101(4)
C4 C 0.7383(5) -0.0969(3) 0.5864(4)
H1 H 0.7483 -0.1096 0.5183
C5 C 0.7856(6) -0.1307(5) 0.6650(5)
H2 H 0.8297 -0.1651 0.6498
C6 C 0.7673(5) -0.1133(4) 0.7669(4)
H3 H 0.7990 -0.1362 0.8197
C7 C 0.7019(3) -0.0618(2) 0.7902(3)
C8 C 0.6558(3) -0.0277(2) 0.7094(3)
H4 H 0.6110 0.0063 0.7243
O5 O 0.8149(2) -0.03621(16) 0.1701(2)
O6 O 0.7419(2) 0.00860(15) 0.3080(3)
C9 C 0.8158(3) -0.0099(2) 0.2577(3)
C10 C 1.0000 0.0000 0.4731(7)
H5 H 1.0000 0.0000 0.5447
C11 C 0.9138(4) -0.0001(4) 0.4183(5)
H6 H 0.8551 0.0017 0.4540
C12 C 0.9121(3) -0.0029(2) 0.3120(4)
C13 C 1.0000 0.0000 0.2578(5)
H7 H 1.0000 0.0000 0.1862
O7 O 0.6694(2) -0.12104(14) 0.2749(2)
O8 O 0.5728(2) -0.18133(15) 0.3767(3)
N1 N 0.8679(3) -0.31670(18) 0.4032(3)
C14 C 0.6487(3) -0.1713(2) 0.3281(3)
C15 C 0.7774(3) -0.3367(2) 0.3828(4)
H8 H 0.7624 -0.3826 0.3872
C16 C 0.7043(3) -0.2914(2) 0.3551(4)
H9 H 0.6410 -0.3065 0.3436
C17 C 0.7272(3) -0.2241(2) 0.3450(3)
C18 C 0.8221(3) -0.2039(2) 0.3626(4)
H10 H 0.8404 -0.1589 0.3528
C19 C 0.8889(4) -0.2510(3) 0.3946(4)
H11 H 0.9515 -0.2365 0.4109
O9 O 0.5446(2) 0.09839(15) 0.0455(3)
O10 O 0.4147(2) 0.16287(15) 0.0799(3)
N2 N 0.7004(3) 0.32096(16) 0.0992(3)
C20 C 0.5034(3) 0.1530(2) 0.0663(3)
C21 C 0.7307(4) 0.2591(3) 0.0844(7)
H12 H 0.7974 0.2514 0.0800
C22 C 0.6690(4) 0.2051(3) 0.0751(6)
H13 H 0.6950 0.1620 0.0663
C23 C 0.5705(3) 0.2129(2) 0.0783(4)
C24 C 0.5386(4) 0.2780(3) 0.0935(6)
H14 H 0.4722 0.2875 0.0961
C25 C 0.6058(4) 0.3292(2) 0.1048(6)
H15 H 0.5824 0.3727 0.1172
O11 O 0.6100(2) -0.01891(14) 0.1381(2)
H16 H 0.6529 0.0203 0.1282
O12 O 0.53663(18) 0.06460(13) 0.3046(2)
H17 H 0.5530 0.0947 0.2472
O13 O 0.4977(5) 0.1606(3) 0.5718(4)
O5A O 1.1851(2) 0.03621(16) 0.1701(2)
O6A O 1.2581(2) -0.00860(15) 0.3080(3)
C9A C 1.1842(3) 0.0099(2) 0.2577(3)
C11A C 1.0862(4) 0.0001(4) 0.4183(5)
H6A H 1.1449 -0.0017 0.4540
C12A C 1.0879(3) 0.0029(2) 0.3120(4)
Ni2A Ni 0.29906(3) 0.09776(2) 0.11406(4)
Ni3A Ni 0.39774(3) 0.02599(2) 0.29301(4)
Ni4A Ni 0.47600(4) -0.11487(2) 0.43914(4)
O1A O 0.4049(2) 0.04491(15) 0.4492(2)
O2A O 0.3862(2) -0.05438(16) 0.5281(2)
O3A O 0.2694(2) 0.07166(18) 0.9672(2)
O4A O 0.4035(2) 0.01819(19) 0.9152(3)
C1A C 0.3754(3) 0.0084(2) 0.5231(3)
C2A C 0.3268(3) 0.0492(2) 0.9008(3)
C3A C 0.3251(3) 0.0431(2) 0.6101(4)
C4A C 0.2617(5) 0.0969(3) 0.5864(4)
H1A H 0.2517 0.1096 0.5183
C5A C 0.2144(6) 0.1307(5) 0.6650(5)
H2A H 0.1703 0.1651 0.6498
C6A C 0.2327(5) 0.1133(4) 0.7669(4)
H3A H 0.2010 0.1362 0.8197
C7A C 0.2981(3) 0.0618(2) 0.7902(3)
C8A C 0.3442(3) 0.0277(2) 0.7094(3)
H4A H 0.3890 -0.0063 0.7243
O7A O 0.3306(2) 0.12104(14) 0.2749(2)
O8A O 0.4272(2) 0.18133(15) 0.3767(3)
N1A N 0.1321(3) 0.31670(18) 0.4032(3)
C14A C 0.3513(3) 0.1713(2) 0.3281(3)
C15A C 0.2226(3) 0.3367(2) 0.3828(4)
H8A H 0.2376 0.3826 0.3872
C16A C 0.2957(3) 0.2914(2) 0.3551(4)
H9A H 0.3590 0.3065 0.3436
C17A C 0.2728(3) 0.2241(2) 0.3450(3)
C18A C 0.1779(3) 0.2039(2) 0.3626(4)
H10A H 0.1596 0.1589 0.3528
C19A C 0.1111(4) 0.2510(3) 0.3946(4)
H11A H 0.0485 0.2365 0.4109
O9A O 0.4554(2) -0.09839(15) 0.0455(3)
O10A O 0.5853(2) -0.16287(15) 0.0799(3)
N2A N 0.2996(3) -0.32096(16) 0.0992(3)
C20A C 0.4966(3) -0.1530(2) 0.0663(3)
C21A C 0.2693(4) -0.2591(3) 0.0844(7)
H12A H 0.2026 -0.2514 0.0800
C22A C 0.3310(4) -0.2051(3) 0.0751(6)
H13A H 0.3050 -0.1620 0.0663
C23A C 0.4295(3) -0.2129(2) 0.0783(4)
C24A C 0.4614(4) -0.2780(3) 0.0935(6)
H14A H 0.5278 -0.2875 0.0961
C25A C 0.3942(4) -0.3292(2) 0.1048(6)
H15A H 0.4176 -0.3727 0.1172
O11A O 0.3900(2) 0.01891(14) 0.1381(2)
H16A H 0.3471 -0.0203 0.1282
O12A O 0.46337(18) -0.06460(13) 0.3046(2)
H17A H 0.4470 -0.0947 0.2472
O13A O 0.5023(5) -0.1606(3) 0.5718(4)
Ni1_2 Ni 0.5000 0.0000 1.03623(5)
Ni2_2 Ni 0.70094(3) -0.09776(2) 1.11406(4)
Ni2A_2 Ni 0.29906(3) 0.09776(2) 1.11406(4)
Ni2A_3 Ni 1.29906(3) 0.09776(2) 0.11406(4)
Ni2B Ni 0.20094(3) -0.40224(2) 0.11406(4)
Ni2C Ni 0.79906(3) 0.40224(2) 0.11406(4)
Ni3A_2 Ni 1.39774(3) 0.02599(2) 0.29301(4)
Ni4B Ni 0.02400(4) 0.38513(2) 0.43914(4)
Ni4C Ni 0.97600(4) -0.38513(2) 0.43914(4)
O3_2 O 0.7306(2) -0.07166(18) -0.0328(2)
O3A_2 O 0.2694(2) 0.07166(18) -0.0328(2)
O4_2 O 0.5965(2) -0.01819(19) -0.0848(3)
O4A_2 O 0.4035(2) 0.01819(19) -0.0848(3)
O5A_2 O 0.1851(2) 0.03621(16) 0.1701(2)
O6A_2 O 0.2581(2) -0.00860(15) 0.3080(3)
N1B N 0.3679(3) -0.18330(18) 0.4032(3)
N1C N 0.6321(3) 0.18330(18) 0.4032(3)
N2B N 0.2004(3) 0.17904(16) 0.0992(3)
N2C N 0.7996(3) -0.17904(16) 0.0992(3)
loop_
_geom_bond_atom_site_label_1
_geom_bond_atom_site_label_2
_geom_bond_site_symmetry_1
_geom_bond_site_symmetry_2
Ni1 O9 1_555 1_555
Ni2 O5 1_555 1_555
Ni3 O1 1_555 1_555
Ni4 O2 1_555 1_555
O1 C1 1_555 1_555
O2 C1 1_555 1_555
O3 C2 1_555 1_555
O4 C2 1_555 1_555
C1 C3 1_555 1_555
C2 C7 1_555 1_555
C3 C4 1_555 1_555
C4 H1 1_555 1_555
C5 C4 1_555 1_555
H2 C5 1_555 1_555
C6 C5 1_555 1_555
H3 C6 1_555 1_555
C7 C6 1_555 1_555
C8 C3 1_555 1_555
H4 C8 1_555 1_555
O5 C9 1_555 1_555
O6 Ni3 1_555 1_555
C9 O6 1_555 1_555
C10 H5 1_555 1_555
C11 C10 1_555 1_555
H6 C11 1_555 1_555
C12 C9 1_555 1_555
C13 C12 1_555 1_555
H7 C13 1_555 1_555
O7 Ni2 1_555 1_555
O8 C14 1_555 1_555
N1 C15 1_555 1_555
C14 O7 1_555 1_555
C15 H8 1_555 1_555
C16 C15 1_555 1_555
H9 C16 1_555 1_555
C17 C14 1_555 1_555
C18 C17 1_555 1_555
H10 C18 1_555 1_555
C19 N1 1_555 1_555
H11 C19 1_555 1_555
O9 C20 1_555 1_555
O10 C20 1_555 1_555
N2 C21 1_555 1_555
C20 C23 1_555 1_555
C21 H12 1_555 1_555
C22 C21 1_555 1_555
H13 C22 1_555 1_555
C23 C22 1_555 1_555
C24 C23 1_555 1_555
H14 C24 1_555 1_555
C25 N2 1_555 1_555
H15 C25 1_555 1_555
O11 Ni1 1_555 1_555
H16 O11 1_555 1_555
O12 Ni3 1_555 1_555
H17 O12 1_555 1_555
O13 Ni4 1_555 1_555
O5A C9A 1_555 1_555
O6A C9A 1_555 1_555
C9A C12A 1_555 1_555
C11A C10 1_555 1_555
H6A C11A 1_555 1_555
C12A C13 1_555 1_555
Ni2A O10 1_555 1_555
Ni3A O12 1_555 1_555
Ni4A O1 1_555 1_555
O1A Ni4 1_555 1_555
O2A Ni4A 1_555 1_555
O3A C2A 1_555 1_555
O4A C2A 1_555 1_555
C1A O1A 1_555 1_555
C2A C7A 1_555 1_555
C3A C1A 1_555 1_555
C4A C3A 1_555 1_555
H1A C4A 1_555 1_555
C5A C4A 1_555 1_555
H2A C5A 1_555 1_555
C6A C5A 1_555 1_555
H3A C6A 1_555 1_555
C7A C6A 1_555 1_555
C8A C3A 1_555 1_555
H4A C8A 1_555 1_555
O7A Ni2A 1_555 1_555
O8A Ni4 1_555 1_555
N1A C15A 1_555 1_555
C14A O7A 1_555 1_555
C15A H8A 1_555 1_555
C16A C15A 1_555 1_555
H9A C16A 1_555 1_555
C17A C14A 1_555 1_555
C18A C17A 1_555 1_555
H10A C18A 1_555 1_555
C19A N1A 1_555 1_555
H11A C19A 1_555 1_555
O9A Ni1 1_555 1_555
O10A Ni2 1_555 1_555
N2A C21A 1_555 1_555
C20A O9A 1_555 1_555
C21A H12A 1_555 1_555
C22A C21A 1_555 1_555
H13A C22A 1_555 1_555
C23A C20A 1_555 1_555
C24A C23A 1_555 1_555
H14A C24A 1_555 1_555
C25A N2A 1_555 1_555
H15A C25A 1_555 1_555
O11A Ni1 1_555 1_555
H16A O11A 1_555 1_555
O12A Ni3 1_555 1_555
H17A O12A 1_555 1_555
O13A Ni4A 1_555 1_555
Ni1_2 O4 1_555 1_555
Ni2_2 O3 1_555 1_555
Ni2A_2 O3A 1_555 1_555
Ni2A_3 O5A 1_555 1_555
Ni2B N2A 1_555 1_555
Ni2C N2 1_555 1_555
Ni3A_2 O6A 1_555 1_555
Ni4B N1A 1_555 1_555
Ni4C N1 1_555 1_555
O3_2 Ni2 1_555 1_555
O3A_2 Ni2A 1_555 1_555
O4_2 Ni1 1_555 1_555
O4A_2 Ni1 1_555 1_555
O5A_2 Ni2A 1_555 1_555
O6A_2 Ni3A 1_555 1_555
N1B Ni4A 1_555 1_555
N1C Ni4 1_555 1_555
N2B Ni2A 1_555 1_555
N2C Ni2 1_555 1_555
Ni2 O11 1_555 1_555
Ni3 O7 1_555 1_555
Ni3 O11 1_555 1_555
Ni4 O12 1_555 1_555
C7 C8 1_555 1_555
C11 C12 1_555 1_555
O8 Ni4A 1_555 1_555
C16 C17 1_555 1_555
C18 C19 1_555 1_555
C24 C25 1_555 1_555
C11A C12A 1_555 1_555
Ni2A O11A 1_555 1_555
Ni3A O1A 1_555 1_555
Ni3A O7A 1_555 1_555
Ni3A O11A 1_555 1_555
Ni3A O12A 1_555 1_555
Ni4A O12A 1_555 1_555
O2A C1A 1_555 1_555
O4A Ni1_2 1_555 1_555
C7A C8A 1_555 1_555
O8A C14A 1_555 1_555
C16A C17A 1_555 1_555
C18A C19A 1_555 1_555
O10A C20A 1_555 1_555
C22A C23A 1_555 1_555
C24A C25A 1_555 1_555

#END
