
#######################################################################
#
#                 Cambridge Crystallographic Data Centre
#                                CCDC 
#
#######################################################################
#
# If this CIF has been generated from an entry in the Cambridge 
# Structural Database, then it will include bibliographic, chemical, 
# crystal, experimental, refinement or atomic coordinate data resulting 
# from the CCDC's data processing and validation procedures.
#
#######################################################################

data_BIVXEK
_symmetry_cell_setting           triclinic
_symmetry_space_group_name_H-M   'P -1'
_symmetry_Int_Tables_number      2
_space_group_name_Hall           '-P 1'
loop_
_symmetry_equiv_pos_site_id
_symmetry_equiv_pos_as_xyz
1 x,y,z
2 -x,-y,-z
_cell_length_a                   6.716(4)
_cell_length_b                   11.927(6)
_cell_length_c                   13.137(7)
_cell_angle_alpha                82.911(10)
_cell_angle_beta                 83.696(9)
_cell_angle_gamma                87.902(10)
_cell_volume                     1037.65
loop_
_atom_site_label
_atom_site_type_symbol
_atom_site_fract_x
_atom_site_fract_y
_atom_site_fract_z
Co1 Co 0.5000 0.5000 0.5000
Co2 Co -0.2219(2) 0.65369(12) 0.66872(11)
O1 O 0.0456(11) 0.7311(7) 0.6016(6)
O2 O 0.2309(12) 0.5946(7) 0.5370(7)
N1 N 0.8718(14) 0.6632(8) -0.1787(7)
O3 O 0.5079(12) 0.5619(7) 0.3485(6)
N2 N 0.3572(14) 1.1798(8) 0.3315(7)
O4 O 0.4827(11) 0.4199(6) 0.2551(6)
O5 O -0.0760(13) 0.4915(7) 0.6650(6)
H1 H -0.0260 0.4734 0.7190
C1 C 0.7897(17) 0.5991(9) -0.0963(9)
H2 H 0.7030 0.5432 -0.1058
C2 C 0.5488(17) 0.5113(10) 0.2689(9)
N3 N 0.6930(13) 0.6346(8) 0.5198(7)
C3 C 0.2673(15) 0.8871(9) 0.4706(8)
H3 H 0.1714 0.9074 0.5221
C4 C 0.5126(19) 1.1608(11) 0.2643(11)
H4 H 0.5583 1.2206 0.2161
C5 C 1.0001(18) 0.7422(11) -0.1661(10)
H5 H 1.0519 0.7896 -0.2238
C6 C 0.8266(16) 0.6113(9) 0.0024(8)
C7 C 1.060(2) 0.7569(13) -0.0701(9)
H6 H 1.1563 0.8088 -0.0638
C8 C 0.1851(16) 0.6982(9) 0.5400(9)
C9 C 0.6100(18) 1.0582(9) 0.2614(10)
H7 H 0.7235 1.0504 0.2152
C10 C 0.967(2) 0.6900(11) 0.0162(9)
H8 H 0.9993 0.6980 0.0820
C11 C 0.2880(16) 1.0920(9) 0.3980(8)
H9 H 0.1806 1.1050 0.4465
C12 C 0.5380(19) 0.9667(11) 0.3277(10)
H10 H 0.5993 0.8956 0.3262
C13 C 0.2992(16) 0.7836(9) 0.4688(9)
H11 H 0.3986 0.7596 0.4207
C14 C 0.3663(16) 0.9844(9) 0.3987(10)
N4 N 0.7743(14) 0.6905(9) 0.4455(7)
N5 N 0.8540(16) 0.7415(10) 0.3735(8)
C15 C 0.6861(19) 0.5724(11) 0.1841(11)
H12 H 0.7537 0.6341 0.1991
C16 C 0.7152(16) 0.5461(9) 0.0956(9)
H13 H 0.6621 0.4780 0.0853
Co2A Co 1.2219(2) 0.34631(12) 0.33128(11)
Co2_2 Co 0.7781(2) 0.65369(12) -0.33128(11)
Co2A_2 Co 0.2219(2) 1.34631(12) 0.33128(11)
Co2A_3 Co 0.2219(2) 0.34631(12) 0.33128(11)
Co2_3 Co 0.7781(2) 0.65369(12) 0.66872(11)
Co2_4 Co 0.7781(2) -0.34631(12) 0.66872(11)
Co2A_4 Co 0.2219(2) 0.34631(12) 1.33128(11)
O1A O 0.9544(11) 0.2689(7) 0.3984(6)
O2A O 0.7691(12) 0.4054(7) 0.4630(7)
N1A N 0.1282(14) 0.3368(8) 1.1787(7)
N1_2 N -0.1282(14) 0.6632(8) 0.8213(7)
N1A_2 N 1.1282(14) 0.3368(8) 0.1787(7)
O3A O 0.4921(12) 0.4381(7) 0.6515(6)
N2A N 0.6428(14) -0.1798(8) 0.6685(7)
N2A_2 N -0.3572(14) 0.8202(8) 0.6685(7)
N2_2 N 1.3572(14) 0.1798(8) 0.3315(7)
O4A O 0.5173(11) 0.5801(6) 0.7449(6)
O4A_2 O -0.4827(11) 0.5801(6) 0.7449(6)
O4_2 O 1.4827(11) 0.4199(6) 0.2551(6)
O5A O 1.0760(13) 0.5085(7) 0.3350(6)
H1A H 1.0260 0.5266 0.2810
C1A C 0.2103(17) 0.4009(9) 1.0963(9)
H2A H 0.2970 0.4568 1.1058
C2A C 0.4512(17) 0.4887(10) 0.7311(9)
N3A N 0.3070(13) 0.3654(8) 0.4802(7)
N3_2 N -0.3070(13) 0.6346(8) 0.5198(7)
N3A_2 N 1.3070(13) 0.3654(8) 0.4802(7)
C3A C 0.7327(15) 0.1129(9) 0.5294(8)
H3A H 0.8286 0.0926 0.4779
C4A C 0.4874(19) -0.1608(11) 0.7357(11)
H4A H 0.4417 -0.2206 0.7839
C5A C -0.0001(18) 0.2578(11) 1.1661(10)
H5A H -0.0519 0.2104 1.2238
C6A C 0.1734(16) 0.3887(9) 0.9976(8)
C7A C -0.060(2) 0.2431(13) 1.0701(9)
H6A H -0.1563 0.1912 1.0638
C8A C 0.8149(16) 0.3018(9) 0.4600(9)
C9A C 0.3900(18) -0.0582(9) 0.7386(10)
H7A H 0.2765 -0.0504 0.7848
C10A C 0.033(2) 0.3100(11) 0.9838(9)
H8A H 0.0007 0.3020 0.9180
C11A C 0.7120(16) -0.0920(9) 0.6020(8)
H9A H 0.8194 -0.1050 0.5535
C12A C 0.4620(19) 0.0333(11) 0.6723(10)
H10A H 0.4007 0.1044 0.6738
C13A C 0.7008(16) 0.2164(9) 0.5312(9)
H11A H 0.6014 0.2404 0.5793
C14A C 0.6337(16) 0.0156(9) 0.6013(10)
N4A N 0.2257(14) 0.3095(9) 0.5545(7)
N5A N 0.1460(16) 0.2585(10) 0.6265(8)
C15A C 0.3139(19) 0.4276(11) 0.8159(11)
H12A H 0.2463 0.3659 0.8009
C16A C 0.2848(16) 0.4539(9) 0.9044(9)
H13A H 0.3379 0.5220 0.9147
loop_
_geom_bond_atom_site_label_1
_geom_bond_atom_site_label_2
_geom_bond_site_symmetry_1
_geom_bond_site_symmetry_2
Co1 O2 1_555 1_555
Co2 O1 1_555 1_555
O1 C8 1_555 1_555
O2 C8 1_555 1_555
N1 C1 1_555 1_555
O3 Co1 1_555 1_555
N2 C4 1_555 1_555
O4 C2 1_555 1_555
O5 Co2 1_555 1_555
H1 O5 1_555 1_555
C1 H2 1_555 1_555
C2 O3 1_555 1_555
N3 Co1 1_555 1_555
C3 H3 1_555 1_555
C4 H4 1_555 1_555
C5 N1 1_555 1_555
H5 C5 1_555 1_555
C6 C1 1_555 1_555
C7 C5 1_555 1_555
H6 C7 1_555 1_555
C8 C13 1_555 1_555
C9 C4 1_555 1_555
H7 C9 1_555 1_555
C10 C6 1_555 1_555
H8 C10 1_555 1_555
C11 N2 1_555 1_555
H9 C11 1_555 1_555
C12 C9 1_555 1_555
H10 C12 1_555 1_555
C13 C3 1_555 1_555
H11 C13 1_555 1_555
C14 C3 1_555 1_555
N4 N3 1_555 1_555
N5 N4 1_555 1_555
C15 C2 1_555 1_555
H12 C15 1_555 1_555
C16 C6 1_555 1_555
H13 C16 1_555 1_555
Co2A O1A 1_555 1_555
Co2_2 N1 1_555 1_555
Co2A_2 N2 1_555 1_555
Co2A_3 O4 1_555 1_555
Co2_3 N3 1_555 1_555
Co2_4 N2A 1_555 1_555
Co2A_4 N1A 1_555 1_555
O1A C8A 1_555 1_555
O2A Co1 1_555 1_555
N1A C1A 1_555 1_555
N1_2 Co2 1_555 1_555
N1A_2 Co2A 1_555 1_555
O3A Co1 1_555 1_555
N2A C4A 1_555 1_555
N2A_2 Co2 1_555 1_555
N2_2 Co2A 1_555 1_555
O4A Co2_3 1_555 1_555
O4A_2 Co2 1_555 1_555
O4_2 Co2A 1_555 1_555
O5A Co2A 1_555 1_555
H1A O5A 1_555 1_555
C1A H2A 1_555 1_555
C2A O3A 1_555 1_555
N3A Co1 1_555 1_555
N3_2 Co2 1_555 1_555
N3A_2 Co2A 1_555 1_555
C3A H3A 1_555 1_555
C4A H4A 1_555 1_555
C5A N1A 1_555 1_555
H5A C5A 1_555 1_555
C6A C1A 1_555 1_555
C7A C5A 1_555 1_555
H6A C7A 1_555 1_555
C8A O2A 1_555 1_555
C9A C4A 1_555 1_555
H7A C9A 1_555 1_555
C10A C6A 1_555 1_555
H8A C10A 1_555 1_555
C11A N2A 1_555 1_555
H9A C11A 1_555 1_555
C12A C9A 1_555 1_555
H10A C12A 1_555 1_555
C13A C3A 1_555 1_555
H11A C13A 1_555 1_555
C14A C3A 1_555 1_555
N4A N3A 1_555 1_555
N5A N4A 1_555 1_555
C15A C2A 1_555 1_555
H12A C15A 1_555 1_555
C16A C6A 1_555 1_555
H13A C16A 1_555 1_555
C7 C10 1_555 1_555
C11 C14 1_555 1_555
C12 C14 1_555 1_555
C15 C16 1_555 1_555
Co2A_3 N3A 1_555 1_555
O4A C2A 1_555 1_555
C7A C10A 1_555 1_555
C8A C13A 1_555 1_555
C11A C14A 1_555 1_555
C12A C14A 1_555 1_555
C15A C16A 1_555 1_555

#END
