
#######################################################################
#
#                 Cambridge Crystallographic Data Centre
#                                CCDC 
#
#######################################################################
#
# If this CIF has been generated from an entry in the Cambridge 
# Structural Database, then it will include bibliographic, chemical, 
# crystal, experimental, refinement or atomic coordinate data resulting 
# from the CCDC's data processing and validation procedures.
#
#######################################################################

data_BOBTOC
_symmetry_cell_setting           triclinic
_symmetry_space_group_name_H-M   'P -1'
_symmetry_Int_Tables_number      2
_space_group_name_Hall           '-P 1'
loop_
_symmetry_equiv_pos_site_id
_symmetry_equiv_pos_as_xyz
1 x,y,z
2 -x,-y,-z
_cell_length_a                   11.949(2)
_cell_length_b                   12.263(4)
_cell_length_c                   13.213(4)
_cell_angle_alpha                108.677(2)
_cell_angle_beta                 108.3480(10)
_cell_angle_gamma                104.458(3)
_cell_volume                     1603.22
loop_
_atom_site_label
_atom_site_type_symbol
_atom_site_fract_x
_atom_site_fract_y
_atom_site_fract_z
Cu1 Cu 0.38302(4) 0.39643(4) 0.00933(4)
Cu2 Cu 0.02222(4) -0.10449(4) -0.10876(4)
Cu3 Cu 0.12549(4) -0.51643(4) -0.40624(4)
N1 N 0.1039(3) 0.1601(2) 0.0514(2)
N2 N 0.1263(3) 0.0744(2) -0.0300(3)
N3 N 0.2539(3) 0.2653(2) 0.0137(2)
N4 N -0.0381(3) -0.3728(2) -0.4252(2)
N5 N 0.0702(3) -0.3785(3) -0.3504(2)
N6 N 0.0283(3) -0.2261(2) -0.2437(2)
N7 N 0.4418(3) -0.4781(2) -0.1331(2)
N8 N 0.3454(3) -0.5603(3) -0.1248(2)
N9 N 0.2561(3) -0.5288(2) -0.2821(2)
C1 C 0.1836(3) 0.2735(3) 0.0757(3)
C2 C 0.1912(4) 0.3931(3) 0.1588(3)
H1 H 0.2780 0.4375 0.2252
H2 H 0.1291 0.3747 0.1920
C3 C 0.1637(5) 0.4780(3) 0.1008(4)
H3 H 0.1705 0.5553 0.1596
H4 H 0.0770 0.4355 0.0364
H5 H 0.2258 0.4978 0.0689
C4 C 0.2161(3) 0.1413(3) -0.0501(3)
C5 C 0.2729(3) 0.0871(3) -0.1290(3)
H6 H 0.2699 0.1260 -0.1844
H7 H 0.2209 -0.0037 -0.1765
C6 C 0.4110(4) 0.1071(4) -0.0600(4)
H8 H 0.4443 0.0698 -0.1152
H9 H 0.4143 0.0675 -0.0059
H10 H 0.4633 0.1969 -0.0143
C7 C -0.0586(3) -0.2810(3) -0.3585(3)
C8 C -0.1633(3) -0.2404(3) -0.4035(3)
H11 H -0.2108 -0.2903 -0.4904
H12 H -0.2236 -0.2577 -0.3683
C9 C -0.1157(4) -0.1019(3) -0.3755(3)
H13 H -0.1888 -0.0809 -0.4079
H14 H -0.0709 -0.0518 -0.2896
H15 H -0.0569 -0.0842 -0.4112
C10 C 0.1061(3) -0.2889(3) -0.2435(3)
C11 C 0.2206(4) -0.2594(3) -0.1358(3)
H16 H 0.2762 -0.2992 -0.1602
H17 H 0.2700 -0.1678 -0.0943
C12 C 0.1861(4) -0.3036(4) -0.0510(3)
H18 H 0.2645 -0.2817 0.0180
H19 H 0.1324 -0.2633 -0.0252
H20 H 0.1391 -0.3945 -0.0908
C13 C 0.3837(3) -0.4616(3) -0.2281(3)
C14 C 0.4500(3) -0.3770(3) -0.2675(3)
H21 H 0.5405 -0.3305 -0.2086
H22 H 0.4106 -0.3152 -0.2698
C15 C 0.4458(4) -0.4428(4) -0.3882(3)
H23 H 0.4913 -0.3809 -0.4086
H24 H 0.3565 -0.4875 -0.4477
H25 H 0.4869 -0.5024 -0.3863
C16 C 0.2361(3) -0.5885(3) -0.2145(3)
C17 C 0.1091(3) -0.6737(3) -0.2378(3)
H26 H 0.0514 -0.6282 -0.2385
H27 H 0.1188 -0.6993 -0.1727
C18 C 0.0482(4) -0.7900(3) -0.3546(4)
H28 H -0.0350 -0.8431 -0.3653
H29 H 0.1041 -0.8365 -0.3540
H30 H 0.0361 -0.7656 -0.4198
Cu1A Cu 0.61698(4) -0.39643(4) -0.00933(4)
Cu1_2 Cu 0.38302(4) -0.60357(4) 0.00933(4)
Cu2A Cu -0.02222(4) 0.10449(4) 0.10876(4)
Cu3A Cu -0.12549(4) -0.48357(4) -0.59376(4)
N1A N -0.1039(3) -0.1601(2) -0.0514(2)
N4A N 0.0381(3) -0.6272(2) -0.5748(2)
N7A N 0.5582(3) 0.4781(2) 0.1331(2)
N8_2 N 0.3454(3) 0.4397(3) -0.1248(2)
N10 N 0.2308(6) -0.1652(5) 0.2614(5)
C19 C 0.2673(6) -0.0815(6) 0.2450(5)
C20 C 0.3187(6) 0.0265(5) 0.2251(5)
H31 H 0.3487 0.1032 0.2970
H32 H 0.2517 0.0270 0.1596
H33 H 0.3905 0.0221 0.2054
N11 N 0.4753(4) 0.2413(4) 0.5336(5)
C21 C 0.4741(5) 0.2339(5) 0.6169(5)
C22 C 0.4741(6) 0.2270(5) 0.7249(5)
H34 H 0.5618 0.2488 0.7806
H35 H 0.4205 0.1418 0.7060
H36 H 0.4398 0.2856 0.7608
N12 N 0.3358(6) -0.1034(5) 0.6517(5)
C23 C 0.2857(6) -0.1908(5) 0.5669(5)
C24 C 0.2235(4) -0.3029(4) 0.4566(4)
H37 H 0.1466 -0.3588 0.4536
H38 H 0.2824 -0.3452 0.4512
H39 H 0.1993 -0.2805 0.3903
loop_
_geom_bond_atom_site_label_1
_geom_bond_atom_site_label_2
_geom_bond_site_symmetry_1
_geom_bond_site_symmetry_2
Cu1 N3 1_555 1_555
Cu2 N2 1_555 1_555
Cu3 N5 1_555 1_555
N1 N2 1_555 1_555
N2 C4 1_555 1_555
N3 C1 1_555 1_555
N4 N5 1_555 1_555
N5 C10 1_555 1_555
N6 Cu2 1_555 1_555
N7 N8 1_555 1_555
N8 C16 1_555 1_555
N9 Cu3 1_555 1_555
C1 N1 1_555 1_555
C2 C1 1_555 1_555
H1 C2 1_555 1_555
H2 C2 1_555 1_555
C3 C2 1_555 1_555
H3 C3 1_555 1_555
H4 C3 1_555 1_555
H5 C3 1_555 1_555
C4 N3 1_555 1_555
C5 C4 1_555 1_555
H6 C5 1_555 1_555
H7 C5 1_555 1_555
C6 C5 1_555 1_555
H8 C6 1_555 1_555
H9 C6 1_555 1_555
H10 C6 1_555 1_555
C7 N4 1_555 1_555
C8 C7 1_555 1_555
H11 C8 1_555 1_555
H12 C8 1_555 1_555
C9 C8 1_555 1_555
H13 C9 1_555 1_555
H14 C9 1_555 1_555
H15 C9 1_555 1_555
C10 N6 1_555 1_555
C11 C10 1_555 1_555
H16 C11 1_555 1_555
H17 C11 1_555 1_555
C12 C11 1_555 1_555
H18 C12 1_555 1_555
H19 C12 1_555 1_555
H20 C12 1_555 1_555
C13 N7 1_555 1_555
C14 C13 1_555 1_555
H21 C14 1_555 1_555
H22 C14 1_555 1_555
C15 C14 1_555 1_555
H23 C15 1_555 1_555
H24 C15 1_555 1_555
H25 C15 1_555 1_555
C16 N9 1_555 1_555
C17 C16 1_555 1_555
H26 C17 1_555 1_555
H27 C17 1_555 1_555
C18 C17 1_555 1_555
H28 C18 1_555 1_555
H29 C18 1_555 1_555
H30 C18 1_555 1_555
N10 C19 1_555 1_555
C19 C20 1_555 1_555
C20 H31 1_555 1_555
H32 C20 1_555 1_555
H33 C20 1_555 1_555
N11 C21 1_555 1_555
C21 C22 1_555 1_555
C22 H34 1_555 1_555
H35 C22 1_555 1_555
H36 C22 1_555 1_555
N12 C23 1_555 1_555
C23 C24 1_555 1_555
C24 H37 1_555 1_555
H38 C24 1_555 1_555
H39 C24 1_555 1_555
Cu1A N7 1_555 1_555
Cu1_2 N8 1_555 1_555
Cu2A N1 1_555 1_555
Cu3A N4 1_555 1_555
N1A Cu2 1_555 1_555
N4A Cu3 1_555 1_555
N7A Cu1 1_555 1_555
N8_2 Cu1 1_555 1_555
N6 C7 1_555 1_555
N9 C13 1_555 1_555

#END
