
#######################################################################
#
#                 Cambridge Crystallographic Data Centre
#                                CCDC 
#
#######################################################################
#
# If this CIF has been generated from an entry in the Cambridge 
# Structural Database, then it will include bibliographic, chemical, 
# crystal, experimental, refinement or atomic coordinate data resulting 
# from the CCDC's data processing and validation procedures.
#
#######################################################################

data_BOBTUI
_symmetry_cell_setting           rhombohedral
_symmetry_space_group_name_H-M   'R -3'
_symmetry_Int_Tables_number      148
_space_group_name_Hall           '-R 3'
loop_
_symmetry_equiv_pos_site_id
_symmetry_equiv_pos_as_xyz
1 x,y,z
2 -y,x-y,z
3 -x+y,-x,z
4 2/3+x,1/3+y,1/3+z
5 2/3-y,1/3+x-y,1/3+z
6 2/3-x+y,1/3-x,1/3+z
7 1/3+x,2/3+y,2/3+z
8 1/3-y,2/3+x-y,2/3+z
9 1/3-x+y,2/3-x,2/3+z
10 -x,-y,-z
11 y,-x+y,-z
12 x-y,x,-z
13 1/3-x,2/3-y,2/3-z
14 1/3+y,2/3-x+y,2/3-z
15 1/3+x-y,2/3+x,2/3-z
16 2/3-x,1/3-y,1/3-z
17 2/3+y,1/3-x+y,1/3-z
18 2/3+x-y,1/3+x,1/3-z
_cell_length_a                   19.6052(5)
_cell_length_b                   19.6052(5)
_cell_length_c                   14.2420(4)
_cell_angle_alpha                90
_cell_angle_beta                 90
_cell_angle_gamma                120.00
_cell_volume                     4740.72
loop_
_atom_site_label
_atom_site_type_symbol
_atom_site_fract_x
_atom_site_fract_y
_atom_site_fract_z
Cu1 Cu 0.117590(17) 0.368920(18) -0.72909(2)
N1 N 0.11999(12) 0.29309(12) -0.55339(14)
N2 N 0.08080(12) 0.32248(12) -0.60585(14)
N3 N 0.01133(12) 0.26825(12) -0.47670(14)
C1 C 0.07677(14) 0.26184(15) -0.47707(17)
C2 C 0.09755(16) 0.22400(17) -0.39941(19)
H1 H 0.1041 0.2535 -0.3406
H2 H 0.1487 0.2278 -0.4141
C3 C 0.0365(2) 0.1383(2) -0.3837(3)
H3 H 0.0536 0.1171 -0.3322
H4 H 0.0306 0.1083 -0.4412
H5 H -0.0140 0.1341 -0.3676
C4 C 0.01664(14) 0.30638(14) -0.55775(17)
C5 C -0.04259(16) 0.32796(17) -0.58855(19)
H6 H -0.0945 0.2794 -0.5946
H7 H -0.0276 0.3530 -0.6512
C6 C -0.0500(2) 0.3841(2) -0.5206(3)
H8 H -0.0896 0.3964 -0.5440
H9 H 0.0009 0.4328 -0.5153
H10 H -0.0660 0.3592 -0.4587
Cu1L Cu 0.215743(17) 0.297747(18) -0.60424(2)
Cu1E Cu -0.082003(25) 0.215743(17) -0.39576(2)
N1L N 0.21334(12) 0.37358(12) -0.77994(14)
N3G N 0.06508(12) 0.40975(17) -0.81003(14)
N4 N 0.2269(10) 0.4927(18) -0.481(3)
N7 N 0.178(3) 0.493(2) -0.480(2)
N5? N 0.1740(19) 0.475(2) -0.439(2)
N6? N 0.200(3) 0.4625(19) -0.436(2)
loop_
_geom_bond_atom_site_label_1
_geom_bond_atom_site_label_2
_geom_bond_site_symmetry_1
_geom_bond_site_symmetry_2
Cu1 N2 1_555 1_555
N1 N2 1_555 1_555
N2 C4 1_555 1_555
N3 C1 1_555 1_555
C1 N1 1_555 1_555
C2 C1 1_555 1_555
H1 C2 1_555 1_555
H2 C2 1_555 1_555
C3 C2 1_555 1_555
H3 C3 1_555 1_555
H4 C3 1_555 1_555
H5 C3 1_555 1_555
C4 N3 1_555 1_555
C5 C4 1_555 1_555
H6 C5 1_555 1_555
H7 C5 1_555 1_555
C6 C5 1_555 1_555
H8 C6 1_555 1_555
H9 C6 1_555 1_555
H10 C6 1_555 1_555
N4 N7 1_555 1_555
Cu1L N1 1_555 1_555
Cu1E N3 1_555 1_555
N1L Cu1 1_555 1_555
N3G Cu1 1_555 1_555

#END
