
#######################################################################
#
#                 Cambridge Crystallographic Data Centre
#                                CCDC 
#
#######################################################################
#
# If this CIF has been generated from an entry in the Cambridge 
# Structural Database, then it will include bibliographic, chemical, 
# crystal, experimental, refinement or atomic coordinate data resulting 
# from the CCDC's data processing and validation procedures.
#
#######################################################################

data_BOFCEG
_symmetry_cell_setting           monoclinic
_symmetry_space_group_name_H-M   'P 21/c'
_symmetry_Int_Tables_number      14
_space_group_name_Hall           '-P 2ybc'
loop_
_symmetry_equiv_pos_site_id
_symmetry_equiv_pos_as_xyz
1 x,y,z
2 -x,1/2+y,1/2-z
3 -x,-y,-z
4 x,1/2-y,1/2+z
_cell_length_a                   13.7620(8)
_cell_length_b                   9.563(5)
_cell_length_c                   9.883(5)
_cell_angle_alpha                90
_cell_angle_beta                 101.074(5)
_cell_angle_gamma                90
_cell_volume                     1276.44
loop_
_atom_site_label
_atom_site_type_symbol
_atom_site_fract_x
_atom_site_fract_y
_atom_site_fract_z
Zn1 Zn 0.59568(3) 0.06824(4) -0.09915(3)
N1 N 0.55861(19) 0.2103(3) -0.2486(3)
O1 O 0.72691(17) -0.0136(3) -0.0983(3)
O2 O 0.77134(19) 0.1938(3) -0.0163(3)
N2 N 0.55982(19) 0.3463(3) -0.4295(3)
C1 C 0.9337(3) -0.0631(4) 0.0692(4)
H1 H 0.8893 -0.1065 0.1157
N3 N 0.49243(19) 0.3994(3) -0.3566(3)
C2 C 0.7912(3) 0.0739(4) -0.0529(3)
C3 C 1.0338(3) -0.0952(4) 0.1049(4)
C4 C 0.8985(2) 0.0325(4) -0.0347(3)
O3 O 1.1560(2) -0.1726(3) 0.2886(3)
H2 H 1.1692 -0.2279 0.3530
O4 O 1.0088(2) -0.2747(4) 0.2611(4)
C5 C 0.5969(2) 0.2333(3) -0.3619(3)
H3 H 0.6441 0.1761 -0.3895
C6 C 0.4943(3) 0.3164(3) -0.2513(3)
H4 H 0.4552 0.3293 -0.1852
C7 C 1.0644(3) -0.1921(4) 0.2244(4)
O1B O 1.27309(17) 0.0136(3) 0.0983(3)
O2B O 1.22866(19) -0.1938(3) 0.0163(3)
C1B C 1.0663(3) 0.0631(4) -0.0692(4)
H1B H 1.1107 0.1065 -0.1157
C2B C 1.2088(3) -0.0739(4) 0.0529(3)
C3B C 0.9662(3) 0.0952(4) -0.1049(4)
C4B C 1.1015(2) -0.0325(4) 0.0347(3)
O3B O 0.8440(2) 0.1726(3) -0.2886(3)
H2B H 0.8308 0.2279 -0.3530
O4B O 0.9912(2) 0.2747(4) -0.2611(4)
C7B C 0.9356(3) 0.1921(4) -0.2244(4)
Zn1B Zn 1.40432(3) -0.06824(4) 0.09915(3)
N1B N 1.44139(19) -0.2103(3) 0.2486(3)
N2B N 1.44018(19) -0.3463(3) 0.4295(3)
N3B N 1.50757(19) -0.3994(3) 0.3566(3)
C5B C 1.4031(2) -0.2333(3) 0.3619(3)
H3B H 1.3559 -0.1761 0.3895
C6B C 1.5057(3) -0.3164(3) 0.2513(3)
H4B H 1.5448 -0.3293 0.1852
Zn1A Zn 0.40432(3) 0.56824(4) -0.40085(3)
Zn1A_2 Zn 1.40432(3) -0.43176(4) 0.59915(3)
Zn1C Zn 0.59568(3) 0.43176(4) -0.59915(3)
Zn1C_2 Zn 1.59568(3) -0.56824(4) 0.40085(3)
N2A N 1.44018(19) -0.1537(3) -0.0705(3)
N2C N 0.55982(19) 0.1537(3) 0.0705(3)
N3A N 0.50757(19) -0.1006(3) -0.1434(3)
N3C N 1.49243(19) 0.1006(3) 0.1434(3)
N4 N 0.7720(3) -0.4216(4) -0.0514(4)
C8 C 0.7171(5) -0.4494(8) -0.1865(6)
H5 H 0.7621 -0.4682 -0.2475
H6 H 0.6772 -0.3696 -0.2193
H7 H 0.6752 -0.5291 -0.1836
O5 O 0.6391(3) -0.3860(6) 0.0411(5)
C9 C 0.7280(5) -0.3929(6) 0.0507(6)
H8 H 0.7675 -0.3766 0.1367
C10 C 0.8781(4) -0.4310(7) -0.0360(7)
H9 H 0.8949 -0.4529 -0.1234
H10 H 0.9026 -0.5031 0.0293
H11 H 0.9074 -0.3431 -0.0035
loop_
_geom_bond_atom_site_label_1
_geom_bond_atom_site_label_2
_geom_bond_site_symmetry_1
_geom_bond_site_symmetry_2
Zn1 N1 1_555 1_555
N1 C5 1_555 1_555
O1 Zn1 1_555 1_555
O2 C2 1_555 1_555
N2 N3 1_555 1_555
C1 H1 1_555 1_555
N3 C6 1_555 1_555
C2 O1 1_555 1_555
C3 C1 1_555 1_555
C4 C1 1_555 1_555
O3 H2 1_555 1_555
O4 C7 1_555 1_555
C5 N2 1_555 1_555
H3 C5 1_555 1_555
C6 N1 1_555 1_555
H4 C6 1_555 1_555
C7 C3 1_555 1_555
N4 C8 1_555 1_555
C8 H5 1_555 1_555
H6 C8 1_555 1_555
H7 C8 1_555 1_555
O5 C9 1_555 1_555
C9 N4 1_555 1_555
H8 C9 1_555 1_555
C10 N4 1_555 1_555
H9 C10 1_555 1_555
H10 C10 1_555 1_555
H11 C10 1_555 1_555
O1B C2B 1_555 1_555
O2B C2B 1_555 1_555
C1B H1B 1_555 1_555
C2B C4B 1_555 1_555
C3B C4 1_555 1_555
C4B C3 1_555 1_555
O3B H2B 1_555 1_555
O4B C7B 1_555 1_555
C7B C3B 1_555 1_555
Zn1B O1B 1_555 1_555
N1B Zn1B 1_555 1_555
N2B N3B 1_555 1_555
N3B C6B 1_555 1_555
C5B N1B 1_555 1_555
H3B C5B 1_555 1_555
C6B N1B 1_555 1_555
H4B C6B 1_555 1_555
Zn1A N3 1_555 1_555
Zn1A_2 N2B 1_555 1_555
Zn1C N2 1_555 1_555
Zn1C_2 N3B 1_555 1_555
N2A Zn1B 1_555 1_555
N2C Zn1 1_555 1_555
N3A Zn1 1_555 1_555
N3C Zn1B 1_555 1_555
C2 C4 1_555 1_555
O3 C7 1_555 1_555
C1B C3B 1_555 1_555
C1B C4B 1_555 1_555
O3B C7B 1_555 1_555
N2B C5B 1_555 1_555

#END
