
#######################################################################
#
#                 Cambridge Crystallographic Data Centre
#                                CCDC 
#
#######################################################################
#
# If this CIF has been generated from an entry in the Cambridge 
# Structural Database, then it will include bibliographic, chemical, 
# crystal, experimental, refinement or atomic coordinate data resulting 
# from the CCDC's data processing and validation procedures.
#
#######################################################################

data_BOGXOL
_symmetry_cell_setting           rhombohedral
_symmetry_space_group_name_H-M   'R -3'
_symmetry_Int_Tables_number      148
_space_group_name_Hall           '-R 3'
loop_
_symmetry_equiv_pos_site_id
_symmetry_equiv_pos_as_xyz
1 x,y,z
2 -y,x-y,z
3 -x+y,-x,z
4 2/3+x,1/3+y,1/3+z
5 2/3-y,1/3+x-y,1/3+z
6 2/3-x+y,1/3-x,1/3+z
7 1/3+x,2/3+y,2/3+z
8 1/3-y,2/3+x-y,2/3+z
9 1/3-x+y,2/3-x,2/3+z
10 -x,-y,-z
11 y,-x+y,-z
12 x-y,x,-z
13 1/3-x,2/3-y,2/3-z
14 1/3+y,2/3-x+y,2/3-z
15 1/3+x-y,2/3+x,2/3-z
16 2/3-x,1/3-y,1/3-z
17 2/3+y,1/3-x+y,1/3-z
18 2/3+x-y,1/3+x,1/3-z
_cell_length_a                   19.4290(17)
_cell_length_b                   19.4290(17)
_cell_length_c                   14.3210(19)
_cell_angle_alpha                90
_cell_angle_beta                 90
_cell_angle_gamma                120.00
_cell_volume                     4681.71
loop_
_atom_site_label
_atom_site_type_symbol
_atom_site_fract_x
_atom_site_fract_y
_atom_site_fract_z
Cu1 Cu -0.414220(12) -0.450100(12) -0.560470(15)
N1 N -0.49402(8) -0.45501(8) -0.38578(10)
N2 N -0.42411(8) -0.41514(8) -0.43694(10)
N3 N -0.40958(9) -0.34655(8) -0.30765(10)
C1 C -0.48250(10) -0.41221(10) -0.30906(12)
C2 C -0.54216(12) -0.43389(11) -0.23273(14)
H1 H -0.5198 -0.4420 -0.1744
H2 H -0.5901 -0.4849 -0.2487
C3 C -0.56652(15) -0.37184(15) -0.2152(2)
H3 H -0.6051 -0.3895 -0.1640
H4 H -0.5906 -0.3648 -0.2719
H5 H -0.5196 -0.3212 -0.1984
C4 C -0.37587(10) -0.35128(10) -0.38788(12)
C5 C -0.29355(10) -0.29124(11) -0.41741(13)
H6 H -0.2906 -0.2393 -0.4263
H7 H -0.2819 -0.3075 -0.4782
C6 C -0.23081(12) -0.28150(15) -0.34722(19)
H8 H -0.1782 -0.2416 -0.3700
H9 H -0.2325 -0.3324 -0.3391
H10 H -0.2412 -0.2642 -0.2872
Cu1I Cu -0.585780(12) -0.549900(12) -0.439530(15)
Cu1E Cu -0.369213(17) -0.252447(12) -0.227137(15)
N1I N -0.50598(8) -0.54499(8) -0.61422(10)
N3G N -0.32012(8) -0.39636(12) -0.64098(10)
C7 C -0.3792(2) -0.5392(2) -0.2858(3)
H11 H -0.3284 -0.5266 -0.3145
H12 H -0.3839 -0.4913 -0.2841
H13 H -0.4230 -0.5804 -0.3225
O1 O -0.38233(14) -0.56660(14) -0.19537(17)
H14 H -0.3343 -0.5499 -0.1799
loop_
_geom_bond_atom_site_label_1
_geom_bond_atom_site_label_2
_geom_bond_site_symmetry_1
_geom_bond_site_symmetry_2
Cu1 N2 1_555 1_555
N1 N2 1_555 1_555
N2 C4 1_555 1_555
N3 C1 1_555 1_555
C1 N1 1_555 1_555
C2 C1 1_555 1_555
H1 C2 1_555 1_555
H2 C2 1_555 1_555
C3 C2 1_555 1_555
H3 C3 1_555 1_555
H4 C3 1_555 1_555
H5 C3 1_555 1_555
C4 N3 1_555 1_555
C5 C4 1_555 1_555
H6 C5 1_555 1_555
H7 C5 1_555 1_555
C6 C5 1_555 1_555
H8 C6 1_555 1_555
H9 C6 1_555 1_555
H10 C6 1_555 1_555
C7 H11 1_555 1_555
H12 C7 1_555 1_555
H13 C7 1_555 1_555
O1 C7 1_555 1_555
H14 O1 1_555 1_555
Cu1I N1 1_555 1_555
Cu1E N3 1_555 1_555
N1I Cu1 1_555 1_555
N3G Cu1 1_555 1_555

#END
