
#######################################################################
#
#                 Cambridge Crystallographic Data Centre
#                                CCDC 
#
#######################################################################
#
# If this CIF has been generated from an entry in the Cambridge 
# Structural Database, then it will include bibliographic, chemical, 
# crystal, experimental, refinement or atomic coordinate data resulting 
# from the CCDC's data processing and validation procedures.
#
#######################################################################

data_BONWIL
_symmetry_cell_setting           monoclinic
_symmetry_space_group_name_H-M   'C 2/c'
_symmetry_Int_Tables_number      15
_space_group_name_Hall           '-C 2yn'
loop_
_symmetry_equiv_pos_site_id
_symmetry_equiv_pos_as_xyz
1 x,y,z
2 -x,y,1/2-z
3 1/2+x,1/2+y,z
4 1/2-x,1/2+y,1/2-z
5 -x,-y,-z
6 x,-y,1/2+z
7 1/2-x,1/2-y,-z
8 1/2+x,1/2-y,1/2+z
_cell_length_a                   27.101(3)
_cell_length_b                   9.2732(10)
_cell_length_c                   16.9792(15)
_cell_angle_alpha                90
_cell_angle_beta                 99.156(5)
_cell_angle_gamma                90
_cell_volume                     4212.73
loop_
_atom_site_label
_atom_site_type_symbol
_atom_site_fract_x
_atom_site_fract_y
_atom_site_fract_z
Zn1 Zn -0.173096(10) 0.79725(3) -0.342328(17)
Zn2 Zn -0.172367(11) 0.39369(3) -0.549488(17)
O1 O -0.23279(6) 0.65751(18) -0.30689(10)
O2 O -0.12737(7) 0.9420(2) -0.38958(11)
H1 H -0.1279 1.0206 -0.3677
H2 H -0.1559 0.9111 -0.3972
O3 O -0.17783(7) 0.6335(2) -0.42491(12)
O4 O -0.20794(7) 0.4148(2) -0.45834(12)
O5 O -0.30201(8) 0.28362(19) -0.40084(12)
O6 O -0.36522(8) 0.4119(2) -0.46620(13)
O7 O -0.31820(7) 0.4331(2) -0.25255(11)
O8 O -0.36367(9) 0.6234(2) -0.22858(13)
O9 O -0.31743(7) 0.94481(19) -0.37429(12)
O10 O -0.24068(7) 0.8940(2) -0.39870(12)
N1 N -0.11231(9) 0.6958(2) -0.26538(14)
N2 N 0.10019(8) 0.4387(2) -0.00413(14)
C1 C -0.24203(9) 0.5320(2) -0.35810(14)
H3 H -0.2375 0.4445 -0.3254
C2 C -0.29655(9) 0.5421(3) -0.39840(14)
H4 H -0.2969 0.5992 -0.4471
C3 C -0.32082(9) 0.6360(3) -0.33974(14)
H5 H -0.3495 0.6888 -0.3683
C4 C -0.27790(9) 0.7401(2) -0.31025(14)
H6 H -0.2810 0.7737 -0.2565
C5 C -0.20606(9) 0.5291(3) -0.41823(15)
C6 C -0.32343(10) 0.4018(3) -0.42302(15)
C7 C -0.33552(9) 0.5564(3) -0.26765(15)
C8 C -0.27769(9) 0.8711(3) -0.36618(15)
C9 C -0.10695(11) 0.5568(3) -0.24888(18)
H7 H -0.1314 0.4938 -0.2731
C10 C -0.06691(12) 0.5000(3) -0.19754(19)
H8 H -0.0650 0.4012 -0.1882
C11 C -0.02958(10) 0.5906(3) -0.15983(17)
C12 C -0.03573(12) 0.7367(3) -0.1764(2)
H9 H -0.0125 0.8029 -0.1518
C13 C -0.07659(12) 0.7836(3) -0.2296(2)
H10 H -0.0793 0.8816 -0.2412
C14 C 0.07351(11) 0.3504(3) -0.05722(19)
H11 H 0.0839 0.2552 -0.0600
C15 C 0.03127(12) 0.3946(3) -0.1080(2)
H12 H 0.0139 0.3300 -0.1442
C16 C 0.01485(10) 0.5366(3) -0.10465(16)
C17 C 0.04184(11) 0.6260(3) -0.04893(18)
H13 H 0.0318 0.7210 -0.0440
C18 C 0.08404(11) 0.5741(3) -0.00029(18)
H14 H 0.1019 0.6363 0.0367
Zn1C Zn -0.326904(10) 0.29725(3) -0.157672(17)
Zn2F Zn -0.327633(11) 0.10631(3) -0.450512(17)
Zn2F_2 Zn -0.327633(11) 1.10631(3) -0.450512(17)
Zn2A Zn 0.172367(11) 0.39369(3) 0.049488(17)
O5F O -0.19799(8) 0.21638(19) -0.59916(12)
O7C O -0.18180(7) 0.9331(2) -0.24745(11)
O9F O -0.18257(7) 0.55519(19) -0.62571(12)
N2A N -0.10019(8) 0.4387(2) -0.49587(14)
O11 O -0.03664(11) 0.1313(3) -0.20295(19)
H15 H -0.0612 0.0978 -0.2317
H16 H -0.0137 0.0738 -0.2021
O12 O -0.04208(12) 0.0508(4) -0.0478(2)
H17 H -0.0583 -0.0224 -0.0441
H18 H -0.0317 0.0481 -0.0905
loop_
_geom_bond_atom_site_label_1
_geom_bond_atom_site_label_2
_geom_bond_site_symmetry_1
_geom_bond_site_symmetry_2
Zn1 O1 1_555 1_555
Zn2 O4 1_555 1_555
O1 C1 1_555 1_555
O2 Zn1 1_555 1_555
H1 O2 1_555 1_555
H2 O2 1_555 1_555
O3 Zn1 1_555 1_555
O4 C5 1_555 1_555
O5 C6 1_555 1_555
O6 C6 1_555 1_555
O7 C7 1_555 1_555
O8 C7 1_555 1_555
O9 C8 1_555 1_555
O10 Zn1 1_555 1_555
N1 Zn1 1_555 1_555
N2 C14 1_555 1_555
C1 H3 1_555 1_555
C2 C1 1_555 1_555
H4 C2 1_555 1_555
C3 C2 1_555 1_555
H5 C3 1_555 1_555
C4 O1 1_555 1_555
H6 C4 1_555 1_555
C5 O3 1_555 1_555
C6 C2 1_555 1_555
C7 C3 1_555 1_555
C8 O10 1_555 1_555
C9 N1 1_555 1_555
H7 C9 1_555 1_555
C10 C9 1_555 1_555
H8 C10 1_555 1_555
C11 C10 1_555 1_555
C12 C11 1_555 1_555
H9 C12 1_555 1_555
C13 N1 1_555 1_555
H10 C13 1_555 1_555
C14 H11 1_555 1_555
C15 C14 1_555 1_555
H12 C15 1_555 1_555
C16 C11 1_555 1_555
C17 C16 1_555 1_555
H13 C17 1_555 1_555
C18 N2 1_555 1_555
H14 C18 1_555 1_555
O11 H15 1_555 1_555
H16 O11 1_555 1_555
O12 H17 1_555 1_555
H18 O12 1_555 1_555
Zn1C O7 1_555 1_555
Zn2F O5 1_555 1_555
Zn2F_2 O9 1_555 1_555
Zn2A N2 1_555 1_555
O5F Zn2 1_555 1_555
O7C Zn1 1_555 1_555
O9F Zn2 1_555 1_555
N2A Zn2 1_555 1_555
C1 C5 1_555 1_555
C3 C4 1_555 1_555
C4 C8 1_555 1_555
C12 C13 1_555 1_555
C15 C16 1_555 1_555
C17 C18 1_555 1_555

#END
