
#######################################################################
#
#                 Cambridge Crystallographic Data Centre
#                                CCDC 
#
#######################################################################
#
# If this CIF has been generated from an entry in the Cambridge 
# Structural Database, then it will include bibliographic, chemical, 
# crystal, experimental, refinement or atomic coordinate data resulting 
# from the CCDC's data processing and validation procedures.
#
#######################################################################

data_BOVHEB
_symmetry_cell_setting           monoclinic
_symmetry_space_group_name_H-M   'C c'
_symmetry_Int_Tables_number      9
_space_group_name_Hall           'C -2yc'
loop_
_symmetry_equiv_pos_site_id
_symmetry_equiv_pos_as_xyz
1 x,y,z
2 x,-y,1/2+z
3 1/2+x,1/2+y,z
4 1/2+x,1/2-y,1/2+z
_cell_length_a                   8.3860(13)
_cell_length_b                   17.1990(15)
_cell_length_c                   25.132(4)
_cell_angle_alpha                90
_cell_angle_beta                 94.182(5)
_cell_angle_gamma                90
_cell_volume                     3615.16
loop_
_atom_site_label
_atom_site_type_symbol
_atom_site_fract_x
_atom_site_fract_y
_atom_site_fract_z
N1 N 0.5960(7) 0.6358(3) 0.13742(17)
O1 O 1.0655(7) 0.7172(3) 0.05594(15)
O2 O 1.0689(9) 0.5453(4) 0.1380(3)
C1 C 1.1352(13) 0.5200(6) 0.1786(4)
N2 N 1.2578(17) 0.4661(8) 0.1779(6)
C2 C 1.322(3) 0.4453(11) 0.2246(9)
H1 H 1.4043 0.4078 0.2202
H2 H 1.2409 0.4228 0.2450
H3 H 1.3664 0.4901 0.2429
C3 C 1.278(4) 0.4393(18) 0.1238(12)
H4 H 1.2077 0.4679 0.0991
H5 H 1.2527 0.3849 0.1212
H6 H 1.3867 0.4473 0.1155
Zn1 Zn 0.83395(8) 0.59393(4) 0.13272(2)
O3 O 0.3945(7) 0.8563(3) -0.29876(14)
N3 N 0.7548(5) 0.5166(2) -0.38004(15)
O4 O 0.5318(6) 0.7514(2) -0.31227(15)
N4 N 0.6895(6) 0.5338(3) -0.42940(16)
C4 C 0.8223(6) 0.5894(3) -0.29657(17)
N5 N 0.3552(7) 0.6875(2) 0.13836(17)
N6 N 0.6569(6) 0.6075(2) -0.43141(17)
C5 C 0.9475(7) 0.6166(3) -0.12921(19)
C6 C 0.4789(8) 0.6720(3) 0.10863(17)
N7 N 0.4003(8) 0.6573(3) 0.18719(16)
O5 O 0.8783(9) 0.6342(4) 0.06421(17)
N8 N 0.7008(5) 0.6400(2) -0.38386(15)
C7 C 0.3629(8) 0.8005(3) -0.1388(2)
H7 H 0.2968 0.8285 -0.1176
C8 C 0.9766(8) 0.6673(3) 0.03823(19)
C9 C 0.7790(7) 0.5339(3) -0.26049(18)
H8 H 0.7182 0.4913 -0.2725
C10 C 1.0367(10) 0.6971(4) -0.0551(2)
H9 H 1.0902 0.7418 -0.0429
C11 C 0.9734(7) 0.6481(3) -0.02002(17)
C12 C 0.7624(6) 0.5826(3) -0.35324(17)
C13 C 0.9186(6) 0.6047(3) -0.18778(18)
C14 C 0.4638(7) 0.7952(3) -0.28331(18)
C15 C 0.9187(7) 0.6500(3) -0.27898(19)
H10 H 0.9539 0.6859 -0.3032
C16 C 0.4423(8) 0.7818(3) -0.0207(2)
H11 H 0.4194 0.8323 -0.0321
N9 N 0.5394(9) 0.6252(3) 0.18639(18)
C17 C 0.4512(8) 0.7652(3) 0.0324(2)
H12 H 0.4381 0.8052 0.0566
C18 C 1.0218(10) 0.6808(5) -0.1089(2)
H13 H 1.0649 0.7156 -0.1323
C19 C 0.8253(7) 0.5411(3) -0.20709(18)
H14 H 0.7944 0.5035 -0.1833
C20 C 0.5488(11) 0.7153(4) -0.2039(2)
H15 H 0.6099 0.6856 -0.2257
C21 C 0.4575(7) 0.7764(3) -0.22547(19)
C22 C 0.3647(7) 0.8169(3) -0.19293(19)
H16 H 0.3005 0.8568 -0.2074
C23 C 0.4791(9) 0.6913(3) 0.0513(2)
C24 C 0.4601(9) 0.7422(3) -0.1165(2)
C25 C 0.8966(13) 0.5826(4) -0.0395(2)
H17 H 0.8487 0.5492 -0.0163
C26 C 0.5497(11) 0.6982(5) -0.1501(2)
H18 H 0.6107 0.6568 -0.1362
C27 C 0.9639(8) 0.6575(3) -0.22464(19)
H19 H 1.0267 0.6996 -0.2131
C28 C 0.8901(12) 0.5658(4) -0.0934(2)
H20 H 0.8457 0.5190 -0.1056
C29 C 0.4985(13) 0.6505(4) -0.0392(2)
H21 H 0.5177 0.6111 -0.0633
C30 C 0.4667(9) 0.7244(4) -0.0582(2)
C31 C 0.5027(12) 0.6331(4) 0.0148(2)
H22 H 0.5215 0.5823 0.0264
Zn2 Zn 1.15372(8) 0.74532(3) 0.12527(2)
Zn1A Zn 0.83395(8) 0.40607(4) -0.36728(2)
Zn1C Zn 0.33395(8) 0.90607(4) -0.36728(2)
O3C O 0.8945(7) 0.6437(3) 0.20124(14)
N3A N 0.7548(5) 0.4834(2) 0.11996(15)
O4C O 1.0318(6) 0.7486(2) 0.18773(15)
N5_2 N 1.3552(7) 0.6875(2) 0.13836(17)
N8C N 1.2008(5) 0.8600(2) 0.11614(15)
Zn2_2 Zn 0.15372(8) 0.74532(3) 0.12527(2)
Zn2C Zn 0.65372(8) 0.75468(3) -0.37473(2)
C32 C 0.0341(19) 0.9280(8) 0.9245(6)
O6 O 0.0932(12) 0.9376(7) 0.8822(4)
N10 N -0.122(2) 0.9185(8) 0.9208(7)
C33 C -0.192(4) 0.9038(15) 0.9762(15)
H23 H -0.3060 0.8975 0.9711
H24 H -0.1680 0.9474 0.9993
H25 H -0.1455 0.8576 0.9921
C34 C -0.199(5) 0.9115(17) 0.8676(14)
H26 H -0.3117 0.9050 0.8697
H27 H -0.1562 0.8672 0.8502
H28 H -0.1789 0.9576 0.8476
loop_
_geom_bond_atom_site_label_1
_geom_bond_atom_site_label_2
_geom_bond_site_symmetry_1
_geom_bond_site_symmetry_2
N1 Zn1 1_555 1_555
O1 C8 1_555 1_555
O2 C1 1_555 1_555
C1 N2 1_555 1_555
N2 C2 1_555 1_555
C2 H1 1_555 1_555
H2 C2 1_555 1_555
H3 C2 1_555 1_555
C3 N2 1_555 1_555
H4 C3 1_555 1_555
H5 C3 1_555 1_555
H6 C3 1_555 1_555
Zn1 O2 1_555 1_555
O3 C14 1_555 1_555
N3 N4 1_555 1_555
O4 C14 1_555 1_555
N4 N6 1_555 1_555
C4 C9 1_555 1_555
N5 C6 1_555 1_555
N6 N8 1_555 1_555
C5 C13 1_555 1_555
C6 N1 1_555 1_555
N7 N5 1_555 1_555
O5 Zn1 1_555 1_555
N8 C12 1_555 1_555
C7 H7 1_555 1_555
C8 O5 1_555 1_555
C9 H8 1_555 1_555
C10 H9 1_555 1_555
C11 C8 1_555 1_555
C12 N3 1_555 1_555
C13 C19 1_555 1_555
C14 C21 1_555 1_555
C15 C4 1_555 1_555
H10 C15 1_555 1_555
C16 H11 1_555 1_555
N9 N1 1_555 1_555
C17 C16 1_555 1_555
H12 C17 1_555 1_555
C18 C5 1_555 1_555
H13 C18 1_555 1_555
C19 C9 1_555 1_555
H14 C19 1_555 1_555
C20 H15 1_555 1_555
C21 C20 1_555 1_555
C22 C7 1_555 1_555
H16 C22 1_555 1_555
C23 C6 1_555 1_555
C24 C7 1_555 1_555
C25 C11 1_555 1_555
H17 C25 1_555 1_555
C26 C20 1_555 1_555
H18 C26 1_555 1_555
C27 C13 1_555 1_555
H19 C27 1_555 1_555
C28 C5 1_555 1_555
H20 C28 1_555 1_555
C29 H21 1_555 1_555
C30 C16 1_555 1_555
C31 C23 1_555 1_555
H22 C31 1_555 1_555
Zn2 O1 1_555 1_555
C32 O6 1_555 1_555
N10 C32 1_555 1_555
C33 N10 1_555 1_555
H23 C33 1_555 1_555
H24 C33 1_555 1_555
H25 C33 1_555 1_555
C34 N10 1_555 1_555
H26 C34 1_555 1_555
H27 C34 1_555 1_555
H28 C34 1_555 1_555
Zn1A N3 1_555 1_555
Zn1C O3 1_555 1_555
O3C Zn1 1_555 1_555
N3A Zn1 1_555 1_555
O4C Zn2 1_555 1_555
N5_2 Zn2 1_555 1_555
N8C Zn2 1_555 1_555
Zn2_2 N5 1_555 1_555
Zn2C O4 1_555 1_555
C4 C12 1_555 1_555
N7 N9 1_555 1_555
N8 Zn2C 1_555 1_555
C10 C11 1_555 1_555
C10 C18 1_555 1_555
C15 C27 1_555 1_555
C17 C23 1_555 1_555
C21 C22 1_555 1_555
C24 C26 1_555 1_555
C24 C30 1_555 1_555
C25 C28 1_555 1_555
C29 C30 1_555 1_555
C29 C31 1_555 1_555

#END
