
#######################################################################
#
#                 Cambridge Crystallographic Data Centre
#                                CCDC 
#
#######################################################################
#
# If this CIF has been generated from an entry in the Cambridge 
# Structural Database, then it will include bibliographic, chemical, 
# crystal, experimental, refinement or atomic coordinate data resulting 
# from the CCDC's data processing and validation procedures.
#
#######################################################################

data_BUCVEC
_symmetry_cell_setting           monoclinic
_symmetry_space_group_name_H-M   'C 2/c'
_symmetry_Int_Tables_number      15
_space_group_name_Hall           '-C 2yn'
loop_
_symmetry_equiv_pos_site_id
_symmetry_equiv_pos_as_xyz
1 x,y,z
2 -x,y,1/2-z
3 1/2+x,1/2+y,z
4 1/2-x,1/2+y,1/2-z
5 -x,-y,-z
6 x,-y,1/2+z
7 1/2-x,1/2-y,-z
8 1/2+x,1/2-y,1/2+z
_cell_length_a                   41.021(8)
_cell_length_b                   14.365(3)
_cell_length_c                   20.259(4)
_cell_angle_alpha                90
_cell_angle_beta                 108.59(3)
_cell_angle_gamma                90
_cell_volume                     11315.1
loop_
_atom_site_label
_atom_site_type_symbol
_atom_site_fract_x
_atom_site_fract_y
_atom_site_fract_z
Zn1 Zn 0.58216(2) -0.03441(4) 0.62187(3)
Zn2 Zn 0.22332(2) 0.15442(4) 0.82918(3)
O1 O 0.61575(8) -0.0302(2) 0.56945(15)
O2 O 0.56647(9) -0.0295(3) 0.48373(17)
O3 O 0.61503(9) 0.0141(2) 0.21731(15)
O4 O 0.56775(10) 0.0389(3) 0.24531(17)
O5 O 0.22315(11) 0.1128(3) 0.91918(18)
O6 O 0.22549(12) -0.0371(3) 0.8965(2)
O7 O 0.28380(11) 0.2152(2) 1.1559(2)
O8 O 0.27471(12) 0.1375(3) 1.2425(2)
N1 N 0.55283(10) 0.0796(3) 0.6048(2)
N2 N 0.51687(9) 0.1889(3) 0.61307(19)
N3 N 0.27135(10) 0.1477(3) 0.82259(19)
N4 N 0.31616(9) 0.1788(2) 0.78970(18)
N5 N 0.43214(11) 0.8314(3) 0.8849(2)
N6 N 0.43049(10) 0.6874(3) 0.8489(2)
N7 N 0.30718(10) 0.4082(3) 0.25563(18)
N8 N 0.33616(10) 0.4388(3) 0.36567(18)
C1 C 0.59825(14) -0.0303(3) 0.5050(2)
C2 C 0.61762(12) -0.0318(3) 0.4530(2)
C3 C 0.65187(13) -0.0587(3) 0.4725(2)
H1 H 0.6635 -0.0754 0.5189
C4 C 0.66907(13) -0.0609(4) 0.4227(3)
H2 H 0.6923 -0.0791 0.4356
C5 C 0.65190(13) -0.0363(3) 0.3550(2)
H3 H 0.6634 -0.0383 0.3217
C6 C 0.61786(11) -0.0087(3) 0.3351(2)
C7 C 0.60127(12) -0.0071(3) 0.3850(2)
H4 H 0.5781 0.0115 0.3719
C8 C 0.59864(14) 0.0166(3) 0.2615(2)
C9 C 0.53044(13) 0.1054(3) 0.6350(2)
H5 H 0.5246 0.0694 0.6683
C10 C 0.53223(14) 0.2194(4) 0.5660(3)
H6 H 0.5282 0.2761 0.5415
C11 C 0.55430(14) 0.1514(4) 0.5618(3)
H7 H 0.5685 0.1533 0.5335
C12 C 0.48961(11) 0.2358(3) 0.6306(2)
C13 C 0.46654(12) 0.1844(3) 0.6512(3)
H8 H 0.4690 0.1195 0.6560
C14 C 0.43928(12) 0.2292(3) 0.6651(2)
H9 H 0.4236 0.1941 0.6800
C15 C 0.43505(11) 0.3239(3) 0.6575(2)
C16 C 0.45906(12) 0.3736(3) 0.6367(2)
H10 H 0.4566 0.4385 0.6313
C17 C 0.48647(12) 0.3307(3) 0.6238(2)
H11 H 0.5027 0.3658 0.6106
C18 C 0.40199(11) 0.3758(3) 0.6594(2)
C19 C 0.37903(11) 0.3179(3) 0.6919(2)
C20 C 0.39315(12) 0.2760(3) 0.7569(2)
H12 H 0.4171 0.2785 0.7791
C21 C 0.37269(12) 0.2309(3) 0.7892(2)
H13 H 0.3826 0.2040 0.8334
C22 C 0.33754(12) 0.2254(3) 0.7564(2)
C23 C 0.32285(12) 0.2675(3) 0.6925(2)
H14 H 0.2990 0.2643 0.6702
C24 C 0.34368(12) 0.3144(3) 0.6617(2)
H15 H 0.3335 0.3448 0.6189
C25 C 0.28412(11) 0.2053(3) 0.7877(2)
H16 H 0.2727 0.2583 0.7642
C26 C 0.29574(13) 0.0797(3) 0.8482(3)
H17 H 0.2935 0.0283 0.8751
C27 C 0.32368(14) 0.0989(3) 0.8281(3)
H18 H 0.3441 0.0642 0.8387
C28 C 0.42569(14) 0.7763(4) 0.8307(2)
H19 H 0.4185 0.7973 0.7843
C29 C 0.44028(18) 0.6840(4) 0.9196(3)
H20 H 0.4455 0.6306 0.9479
C30 C 0.44088(16) 0.7733(4) 0.9407(3)
H21 H 0.4465 0.7925 0.9874
C31 C 0.42423(13) 0.6103(3) 0.8008(2)
C32 C 0.44913(14) 0.5446(4) 0.8061(3)
H22 H 0.4705 0.5486 0.8413
C33 C 0.44214(13) 0.4722(3) 0.7585(3)
H23 H 0.4593 0.4276 0.7618
C34 C 0.41119(11) 0.4630(3) 0.7068(2)
C35 C 0.38624(11) 0.5294(3) 0.7042(2)
H24 H 0.3645 0.5239 0.6703
C36 C 0.39262(13) 0.6035(3) 0.7504(3)
H25 H 0.3756 0.6485 0.7472
C37 C 0.38352(10) 0.3976(3) 0.5822(2)
C38 C 0.36979(13) 0.3243(3) 0.5371(2)
H26 H 0.3709 0.2639 0.5555
C39 C 0.35463(14) 0.3365(3) 0.4668(2)
H27 H 0.3456 0.2851 0.4381
C40 C 0.35262(11) 0.4242(3) 0.4382(2)
C41 C 0.36698(15) 0.4974(4) 0.4806(3)
H28 H 0.3667 0.5572 0.4615
C42 C 0.38216(13) 0.4837(3) 0.5523(2)
H29 H 0.3917 0.5350 0.5808
C43 C 0.32159(12) 0.3729(3) 0.3183(2)
H30 H 0.3217 0.3090 0.3286
C44 C 0.31273(14) 0.5027(4) 0.2643(3)
H31 H 0.3052 0.5474 0.2288
C45 C 0.33060(15) 0.5218(3) 0.3315(3)
H32 H 0.3378 0.5808 0.3507
C46 C 0.22762(13) 0.0275(5) 0.9375(3)
C47 C 0.23681(12) 0.0096(4) 1.0134(2)
C48 C 0.23346(12) -0.0782(4) 1.0383(3)
H33 H 0.2248 -0.1273 1.0070
C49 C 0.24289(13) -0.0941(4) 1.1098(3)
H34 H 0.2405 -0.1538 1.1266
C50 C 0.25568(13) -0.0229(3) 1.1555(3)
H35 H 0.2620 -0.0341 1.2036
C51 C 0.25941(12) 0.0663(3) 1.1315(2)
C52 C 0.24950(12) 0.0815(3) 1.0602(2)
H36 H 0.2514 0.1416 1.0433
C53 C 0.27406(14) 0.1446(4) 1.1813(3)
Zn1A Zn 0.41784(2) 0.96559(4) 0.87813(3)
Zn1E Zn 0.58216(2) 0.03441(4) 0.12187(3)
Zn2F Zn 0.27668(2) 0.34558(4) 0.17082(3)
Zn2F_2 Zn 0.27668(2) 0.34558(4) 1.17082(3)
O3E O 0.61503(9) -0.0141(2) 0.71731(15)
O7F O 0.21620(11) 0.2848(2) 0.8441(2)
N5A N 0.56786(11) -0.1686(3) 0.6151(2)
N7F N 0.19282(10) 0.0918(3) 0.74437(18)
loop_
_geom_bond_atom_site_label_1
_geom_bond_atom_site_label_2
_geom_bond_site_symmetry_1
_geom_bond_site_symmetry_2
Zn1 O1 1_555 1_555
Zn2 O5 1_555 1_555
O1 C1 1_555 1_555
O2 C1 1_555 1_555
O3 C8 1_555 1_555
O4 C8 1_555 1_555
O5 C46 1_555 1_555
O6 C46 1_555 1_555
O7 C53 1_555 1_555
O8 C53 1_555 1_555
N1 Zn1 1_555 1_555
N2 C9 1_555 1_555
N3 Zn2 1_555 1_555
N4 C22 1_555 1_555
N5 C28 1_555 1_555
N6 C28 1_555 1_555
N7 C43 1_555 1_555
N8 C40 1_555 1_555
C1 C2 1_555 1_555
C2 C3 1_555 1_555
C3 H1 1_555 1_555
C4 C3 1_555 1_555
H2 C4 1_555 1_555
C5 C4 1_555 1_555
H3 C5 1_555 1_555
C6 C5 1_555 1_555
C7 C2 1_555 1_555
H4 C7 1_555 1_555
C8 C6 1_555 1_555
C9 N1 1_555 1_555
H5 C9 1_555 1_555
C10 N2 1_555 1_555
H6 C10 1_555 1_555
C11 N1 1_555 1_555
H7 C11 1_555 1_555
C12 N2 1_555 1_555
C13 C12 1_555 1_555
H8 C13 1_555 1_555
C14 C13 1_555 1_555
H9 C14 1_555 1_555
C15 C14 1_555 1_555
C16 C15 1_555 1_555
H10 C16 1_555 1_555
C17 C12 1_555 1_555
H11 C17 1_555 1_555
C18 C15 1_555 1_555
C19 C18 1_555 1_555
C20 C19 1_555 1_555
H12 C20 1_555 1_555
C21 C20 1_555 1_555
H13 C21 1_555 1_555
C22 C21 1_555 1_555
C23 C22 1_555 1_555
H14 C23 1_555 1_555
C24 C19 1_555 1_555
H15 C24 1_555 1_555
C25 N3 1_555 1_555
H16 C25 1_555 1_555
C26 N3 1_555 1_555
H17 C26 1_555 1_555
C27 N4 1_555 1_555
H18 C27 1_555 1_555
C28 H19 1_555 1_555
C29 N6 1_555 1_555
H20 C29 1_555 1_555
C30 N5 1_555 1_555
H21 C30 1_555 1_555
C31 N6 1_555 1_555
C32 C31 1_555 1_555
H22 C32 1_555 1_555
C33 C32 1_555 1_555
H23 C33 1_555 1_555
C34 C18 1_555 1_555
C35 C34 1_555 1_555
H24 C35 1_555 1_555
C36 C31 1_555 1_555
H25 C36 1_555 1_555
C37 C18 1_555 1_555
C38 C37 1_555 1_555
H26 C38 1_555 1_555
C39 C38 1_555 1_555
H27 C39 1_555 1_555
C40 C39 1_555 1_555
C41 C40 1_555 1_555
H28 C41 1_555 1_555
C42 C37 1_555 1_555
H29 C42 1_555 1_555
C43 N8 1_555 1_555
H30 C43 1_555 1_555
C44 N7 1_555 1_555
H31 C44 1_555 1_555
C45 N8 1_555 1_555
H32 C45 1_555 1_555
C46 C47 1_555 1_555
C47 C48 1_555 1_555
C48 H33 1_555 1_555
C49 C48 1_555 1_555
H34 C49 1_555 1_555
C50 C49 1_555 1_555
H35 C50 1_555 1_555
C51 C50 1_555 1_555
C52 C47 1_555 1_555
H36 C52 1_555 1_555
C53 C51 1_555 1_555
Zn1A N5 1_555 1_555
Zn1E O3 1_555 1_555
Zn2F N7 1_555 1_555
Zn2F_2 O7 1_555 1_555
O3E Zn1 1_555 1_555
O7F Zn2 1_555 1_555
N5A Zn1 1_555 1_555
N7F Zn2 1_555 1_555
N4 C25 1_555 1_555
C6 C7 1_555 1_555
C10 C11 1_555 1_555
C16 C17 1_555 1_555
C23 C24 1_555 1_555
C26 C27 1_555 1_555
C29 C30 1_555 1_555
C33 C34 1_555 1_555
C35 C36 1_555 1_555
C41 C42 1_555 1_555
C44 C45 1_555 1_555
C51 C52 1_555 1_555

#END
