
#######################################################################
#
#                 Cambridge Crystallographic Data Centre
#                                CCDC 
#
#######################################################################
#
# If this CIF has been generated from an entry in the Cambridge 
# Structural Database, then it will include bibliographic, chemical, 
# crystal, experimental, refinement or atomic coordinate data resulting 
# from the CCDC's data processing and validation procedures.
#
#######################################################################

data_BUCVIG
_symmetry_cell_setting           monoclinic
_symmetry_space_group_name_H-M   'C 2/c'
_symmetry_Int_Tables_number      15
_space_group_name_Hall           '-C 2yn'
loop_
_symmetry_equiv_pos_site_id
_symmetry_equiv_pos_as_xyz
1 x,y,z
2 -x,y,1/2-z
3 1/2+x,1/2+y,z
4 1/2-x,1/2+y,1/2-z
5 -x,-y,-z
6 x,-y,1/2+z
7 1/2-x,1/2-y,-z
8 1/2+x,1/2-y,1/2+z
_cell_length_a                   40.575(5)
_cell_length_b                   14.3747(16)
_cell_length_c                   20.156(3)
_cell_angle_alpha                90
_cell_angle_beta                 108.058(3)
_cell_angle_gamma                90
_cell_volume                     11177
loop_
_atom_site_label
_atom_site_type_symbol
_atom_site_fract_x
_atom_site_fract_y
_atom_site_fract_z
Co1 Co 0.41648(2) 0.46531(3) 0.87910(2)
Co2 Co 0.77885(2) 0.65438(3) 0.67145(2)
O1 O 0.38255(7) 0.48350(16) 0.78449(11)
O2 O 0.43091(7) 0.46354(18) 0.75886(12)
O3 O 0.38213(6) 0.53207(15) 0.43176(11)
O4 O 0.43225(7) 0.53168(17) 0.51508(12)
O5 O 0.78021(8) 0.6245(2) 0.57840(13)
O6 O 0.77232(9) 0.4806(3) 0.60537(15)
O7 O 0.71436(10) 0.71193(19) 0.3370(2)
O8 O 0.72585(10) 0.6307(2) 0.25371(15)
N1 N 0.44475(7) 0.58368(19) 0.89491(14)
N2 N 0.48144(7) 0.69210(18) 0.88771(13)
N3 N 0.56826(7) 1.33133(19) 0.61268(14)
N4 N 0.56875(7) 1.18807(19) 0.64961(13)
N5 N 0.73044(7) 0.64757(17) 0.67788(13)
N6 N 0.68500(7) 0.67974(17) 0.71086(13)
N7 N 0.69121(6) 0.91260(18) 1.24384(12)
N8 N 0.66241(7) 0.94224(18) 1.13429(13)
C1 C 0.39991(9) 0.4837(2) 0.74132(15)
C2 C 0.38072(8) 0.5102(2) 0.66713(14)
C3 C 0.39815(8) 0.5093(2) 0.61756(14)
H1 H 0.4214 0.4921 0.6304
C4 C 0.38097(8) 0.53404(19) 0.54906(15)
C5 C 0.40026(9) 0.5326(2) 0.49644(15)
C6 C 0.34661(9) 0.5600(2) 0.53037(16)
H2 H 0.3350 0.5761 0.4843
C7 C 0.32928(9) 0.5623(3) 0.57955(18)
H3 H 0.3062 0.5811 0.5669
C8 C 0.34642(9) 0.5365(2) 0.64808(16)
H4 H 0.3347 0.5370 0.6811
C9 C 0.46748(8) 0.6098(2) 0.86448(16)
H5 H 0.4732 0.5750 0.8307
C10 C 0.46550(10) 0.7226(2) 0.93509(19)
H6 H 0.4695 0.7784 0.9596
C11 C 0.44329(9) 0.6560(2) 0.93870(19)
H7 H 0.4289 0.6580 0.9667
C12 C 0.50894(8) 0.7379(2) 0.86977(15)
C13 C 0.53226(9) 0.6865(2) 0.84815(17)
H8 H 0.5295 0.6224 0.8426
C14 C 0.56000(8) 0.7308(2) 0.83458(17)
H9 H 0.5757 0.6959 0.8198
C15 C 0.56451(7) 0.8260(2) 0.84269(14)
C16 C 0.54026(8) 0.8766(2) 0.86419(16)
H10 H 0.5429 0.9407 0.8699
C17 C 0.51247(8) 0.8333(2) 0.87708(16)
H11 H 0.4963 0.8680 0.8906
C18 C 0.59736(7) 0.87776(19) 0.83989(14)
C19 C 0.57477(10) 1.2761(2) 0.66747(17)
H12 H 0.5827 1.2969 0.7134
C20 C 0.55835(11) 1.1837(3) 0.57793(18)
H13 H 0.5528 1.1307 0.5503
C21 C 0.55782(10) 1.2731(3) 0.55616(18)
H14 H 0.5514 1.2920 0.5098
C22 C 0.57511(9) 1.1111(2) 0.69766(15)
C23 C 0.60682(8) 1.1048(2) 0.74854(17)
H15 H 0.6237 1.1498 0.7516
C24 C 0.61346(8) 1.0310(2) 0.79527(17)
H16 H 0.6351 1.0261 0.8290
C25 C 0.58821(8) 0.96406(19) 0.79238(15)
C26 C 0.55691(9) 0.9719(2) 0.74080(17)
H17 H 0.5398 0.9275 0.7378
C27 C 0.55015(10) 1.0450(2) 0.69278(18)
H18 H 0.5289 1.0488 0.6579
C28 C 0.71683(8) 0.7060(2) 0.71262(16)
H19 H 0.7280 0.7589 0.7355
C29 C 0.70549(9) 0.5795(2) 0.65293(18)
H20 H 0.7078 0.5283 0.6264
C30 C 0.67755(9) 0.5986(2) 0.67279(18)
H21 H 0.6572 0.5640 0.6628
C31 C 0.66307(8) 0.72718(19) 0.74395(15)
C32 C 0.67757(8) 0.7685(2) 0.80816(16)
H22 H 0.7013 0.7649 0.8303
C33 C 0.65650(8) 0.8152(2) 0.83934(16)
H23 H 0.6664 0.8441 0.8822
C34 C 0.62089(8) 0.8198(2) 0.80813(14)
C35 C 0.60718(8) 0.7782(2) 0.74295(16)
H24 H 0.5834 0.7813 0.7206
C36 C 0.62800(8) 0.7326(2) 0.71086(16)
H25 H 0.6184 0.7057 0.6672
C37 C 0.67619(8) 0.8760(2) 1.18182(15)
H26 H 0.6753 0.8126 1.1722
C38 C 0.68704(9) 1.0070(2) 1.23535(17)
H27 H 0.6952 1.0509 1.2705
C39 C 0.66931(10) 1.0264(2) 1.16832(18)
H28 H 0.6630 1.0850 1.1490
C40 C 0.64569(8) 0.9280(2) 1.06084(14)
C41 C 0.64419(9) 0.8393(2) 1.03342(16)
H29 H 0.6532 0.7889 1.0623
C42 C 0.62922(9) 0.8268(2) 0.96287(16)
H30 H 0.6282 0.7670 0.9447
C43 C 0.61565(7) 0.8999(2) 0.91763(14)
C44 C 0.61695(9) 0.9869(2) 0.94700(17)
H31 H 0.6078 1.0375 0.9184
C45 C 0.63167(9) 1.0009(2) 1.01849(17)
H32 H 0.6319 1.0601 1.0373
C46 C 0.77372(10) 0.5394(3) 0.56259(18)
C47 C 0.76524(8) 0.5154(3) 0.48697(17)
C48 C 0.75182(9) 0.5851(3) 0.43743(17)
H33 H 0.7497 0.6454 0.4523
C49 C 0.74166(9) 0.5658(2) 0.36663(18)
C50 C 0.72675(11) 0.6408(3) 0.3149(2)
C51 C 0.74642(9) 0.4767(3) 0.34624(19)
H34 H 0.7408 0.4638 0.2988
C52 C 0.75894(9) 0.4074(3) 0.3923(2)
H35 H 0.7615 0.3479 0.3766
C53 C 0.76816(9) 0.4261(3) 0.4647(2)
H36 H 0.7761 0.3785 0.4969
Co1A Co 0.58352(2) 1.46531(3) 0.62090(2)
Co1E Co 0.41648(2) 0.53469(3) 0.37910(2)
Co2F Co 0.72115(2) 0.84562(3) 0.32855(2)
Co2F_2 Co 0.72115(2) 0.84562(3) 1.32855(2)
O3E O 0.38213(6) 0.46793(15) 0.93176(11)
O7F O 0.78564(10) 0.78807(19) 0.6630(2)
N3A N 0.43174(7) 0.33133(19) 0.88732(14)
N7F N 0.80879(6) 0.58740(18) 0.75616(12)
N9 N 0.8648(3) 0.7428(5) 0.4662(6)
C54 C 0.8206(2) 0.8028(5) 0.5214(4)
H37 H 0.8318 0.8247 0.5680
H38 H 0.8048 0.7536 0.5227
H39 H 0.8081 0.8530 0.4933
C55 C 0.8463(2) 0.7684(4) 0.4918(5)
loop_
_geom_bond_atom_site_label_1
_geom_bond_atom_site_label_2
_geom_bond_site_symmetry_1
_geom_bond_site_symmetry_2
Co1 O1 1_555 1_555
Co2 O5 1_555 1_555
O1 C1 1_555 1_555
O2 C1 1_555 1_555
O3 C5 1_555 1_555
O4 C5 1_555 1_555
O5 C46 1_555 1_555
O6 C46 1_555 1_555
O7 C50 1_555 1_555
O8 C50 1_555 1_555
N1 Co1 1_555 1_555
N2 C9 1_555 1_555
N3 C19 1_555 1_555
N4 C19 1_555 1_555
N5 Co2 1_555 1_555
N6 C28 1_555 1_555
N7 C37 1_555 1_555
N8 C37 1_555 1_555
C1 C2 1_555 1_555
C2 C3 1_555 1_555
C3 H1 1_555 1_555
C4 C3 1_555 1_555
C5 C4 1_555 1_555
C6 C4 1_555 1_555
H2 C6 1_555 1_555
C7 C6 1_555 1_555
H3 C7 1_555 1_555
C8 C2 1_555 1_555
H4 C8 1_555 1_555
C9 N1 1_555 1_555
H5 C9 1_555 1_555
C10 N2 1_555 1_555
H6 C10 1_555 1_555
C11 N1 1_555 1_555
H7 C11 1_555 1_555
C12 N2 1_555 1_555
C13 C12 1_555 1_555
H8 C13 1_555 1_555
C14 C13 1_555 1_555
H9 C14 1_555 1_555
C15 C14 1_555 1_555
C16 C15 1_555 1_555
H10 C16 1_555 1_555
C17 C12 1_555 1_555
H11 C17 1_555 1_555
C18 C15 1_555 1_555
C19 H12 1_555 1_555
C20 N4 1_555 1_555
H13 C20 1_555 1_555
C21 N3 1_555 1_555
H14 C21 1_555 1_555
C22 N4 1_555 1_555
C23 C22 1_555 1_555
H15 C23 1_555 1_555
C24 C23 1_555 1_555
H16 C24 1_555 1_555
C25 C18 1_555 1_555
C26 C25 1_555 1_555
H17 C26 1_555 1_555
C27 C22 1_555 1_555
H18 C27 1_555 1_555
C28 N5 1_555 1_555
H19 C28 1_555 1_555
C29 N5 1_555 1_555
H20 C29 1_555 1_555
C30 N6 1_555 1_555
H21 C30 1_555 1_555
C31 N6 1_555 1_555
C32 C31 1_555 1_555
H22 C32 1_555 1_555
C33 C32 1_555 1_555
H23 C33 1_555 1_555
C34 C18 1_555 1_555
C35 C34 1_555 1_555
H24 C35 1_555 1_555
C36 C31 1_555 1_555
H25 C36 1_555 1_555
C37 H26 1_555 1_555
C38 N7 1_555 1_555
H27 C38 1_555 1_555
C39 N8 1_555 1_555
H28 C39 1_555 1_555
C40 N8 1_555 1_555
C41 C40 1_555 1_555
H29 C41 1_555 1_555
C42 C41 1_555 1_555
H30 C42 1_555 1_555
C43 C18 1_555 1_555
C44 C43 1_555 1_555
H31 C44 1_555 1_555
C45 C40 1_555 1_555
H32 C45 1_555 1_555
C46 C47 1_555 1_555
C47 C48 1_555 1_555
C48 H33 1_555 1_555
C49 C48 1_555 1_555
C50 C49 1_555 1_555
C51 C49 1_555 1_555
H34 C51 1_555 1_555
C52 C51 1_555 1_555
H35 C52 1_555 1_555
C53 C47 1_555 1_555
H36 C53 1_555 1_555
N9 C55 1_555 1_555
C54 H37 1_555 1_555
H38 C54 1_555 1_555
H39 C54 1_555 1_555
C55 C54 1_555 1_555
Co1A N3 1_555 1_555
Co1E O3 1_555 1_555
Co2F O7 1_555 1_555
Co2F_2 N7 1_555 1_555
O3E Co1 1_555 1_555
O7F Co2 1_555 1_555
N3A Co1 1_555 1_555
N7F Co2 1_555 1_555
C7 C8 1_555 1_555
C10 C11 1_555 1_555
C16 C17 1_555 1_555
C20 C21 1_555 1_555
C24 C25 1_555 1_555
C26 C27 1_555 1_555
C29 C30 1_555 1_555
C33 C34 1_555 1_555
C35 C36 1_555 1_555
C38 C39 1_555 1_555
C42 C43 1_555 1_555
C44 C45 1_555 1_555
C52 C53 1_555 1_555

#END
