
#######################################################################
#
#                 Cambridge Crystallographic Data Centre
#                                CCDC 
#
#######################################################################
#
# If this CIF has been generated from an entry in the Cambridge 
# Structural Database, then it will include bibliographic, chemical, 
# crystal, experimental, refinement or atomic coordinate data resulting 
# from the CCDC's data processing and validation procedures.
#
#######################################################################

data_BUKRUW03
_symmetry_cell_setting           cubic
_symmetry_space_group_name_H-M   'P 21 3'
_symmetry_Int_Tables_number      198
_space_group_name_Hall           'P 2ac 2ab 3'
loop_
_symmetry_equiv_pos_site_id
_symmetry_equiv_pos_as_xyz
1 x,y,z
2 1/2-x,-y,1/2+z
3 -x,1/2+y,1/2-z
4 1/2+x,1/2-y,-z
5 z,x,y
6 1/2+z,1/2-x,-y
7 1/2-z,-x,1/2+y
8 -z,1/2+x,1/2-y
9 y,z,x
10 -y,1/2+z,1/2-x
11 1/2+y,1/2-z,-x
12 1/2-y,-z,1/2+x
_cell_length_a                   20.14050(10)
_cell_length_b                   20.14050(10)
_cell_length_c                   20.14050(10)
_cell_angle_alpha                90
_cell_angle_beta                 90
_cell_angle_gamma                90
_cell_volume                     8169.79
loop_
_atom_site_label
_atom_site_type_symbol
_atom_site_fract_x
_atom_site_fract_y
_atom_site_fract_z
Zn1 Zn 0.30330(4) 0.80890(4) 1.19697(4)
Zn2 Zn 0.30332(4) 0.80404(4) 0.80794(4)
Zn3 Zn 0.19033(4) 0.69033(4) 0.80967(4)
Zn4 Zn 0.19224(6) 0.80776(6) 1.30776(6)
C1 C 0.2099(4) 0.7080(3) 0.9638(3)
H1 H 0.1830 0.6721 0.9784
C2 C 0.2415(3) 0.7526(3) 1.0054(3)
C3 C 0.2388(4) 0.7557(4) 1.0748(4)
C4 C 0.2902(5) 0.7798(5) 0.9613(4)
H2 H 0.3307 0.7997 0.9748
C5 C 0.2373(2) 0.95261(13) 0.7106(5)
H3 H 0.2353 0.9564 0.6636
C6 C 0.2933(2) 0.96976(15) 0.7841(4)
H4 H 0.3252 0.9892 0.8129
C7 C 0.2509(4) 1.0033(4) 0.7366(4)
N1 N 0.2704(3) 0.7730(3) 0.8981(4)
N2 N 0.2223(2) 0.7222(3) 0.9009(2)
N3 N 0.2253(2) 0.8964(2) 0.7298(2)
N4 N 0.2754(3) 0.8969(3) 0.7778(3)
O1 O 0.2457(2) 0.7543(2) 1.2543(2)
O2 O 0.2483(2) 0.7483(2) 0.7517(2)
O3 O 0.2777(3) 0.7922(3) 1.1058(2)
O4 O 0.2047(4) 0.7268(3) 1.1065(2)
O5 O 0.2080(4) 1.1034(2) 0.6964(5)
O6 O 0.2365(4) 1.1089(3) 0.7914(3)
C8 C 0.2057(7) 1.0816(6) 0.7313(7)
Zn1H Zn -0.19110(4) 1.19697(4) 1.30330(4)
Zn2H Zn -0.19596(4) 0.80794(4) 1.30332(4)
C1H C -0.2920(3) 0.9638(3) 1.2099(4)
H1H H -0.3279 0.9784 1.1830
C2H C -0.2474(3) 1.0054(3) 1.2415(3)
C3H C -0.2443(4) 1.0748(4) 1.2388(4)
C4H C -0.2202(5) 0.9613(4) 1.2902(5)
H2H H -0.2003 0.9748 1.3307
C5H C -0.04739(13) 0.7106(5) 1.2373(2)
H3H H -0.0436 0.6636 1.2353
C6H C -0.03024(15) 0.7841(4) 1.2933(2)
H4H H -0.0108 0.8129 1.3252
C7H C 0.0033(4) 0.7366(4) 1.2509(4)
N1H N -0.2270(3) 0.8981(4) 1.2704(3)
N2H N -0.2778(3) 0.9009(2) 1.2223(2)
N3H N -0.1036(2) 0.7298(2) 1.2253(2)
N4H N -0.1031(3) 0.7778(3) 1.2754(3)
O3H O -0.2078(3) 1.1058(2) 1.2777(3)
O4H O -0.2732(3) 1.1065(2) 1.2047(4)
O5H O 0.1034(2) 0.6964(5) 1.2080(4)
O6H O 0.1089(3) 0.7914(3) 1.2365(4)
C8H C 0.0816(6) 0.7313(7) 1.2057(7)
Zn1F Zn 0.30303(4) 0.69670(4) 1.30890(4)
Zn2F Zn 0.69206(4) 0.69668(4) 1.30404(4)
C1F C 0.5362(3) 0.7901(4) 1.2080(3)
H1F H 0.5216 0.8170 1.1721
C2F C 0.4946(3) 0.7585(3) 1.2526(3)
C3F C 0.4252(4) 0.7612(4) 1.2557(4)
C4F C 0.5387(4) 0.7098(5) 1.2798(5)
H2F H 0.5252 0.6693 1.2997
C5F C 0.7894(5) 0.7627(2) 1.45261(13)
H3F H 0.8364 0.7647 1.4564
C6F C 0.7159(4) 0.7067(2) 1.46976(15)
H4F H 0.6871 0.6748 1.4892
C7F C 0.7634(4) 0.7491(4) 1.5033(4)
N1F N 0.6019(4) 0.7296(3) 1.2730(3)
N2F N 0.5991(2) 0.7777(2) 1.2222(3)
N3F N 0.7702(2) 0.7747(2) 1.3964(2)
N4F N 0.7222(3) 0.7246(3) 1.3969(3)
O3F O 0.3942(2) 0.7223(3) 1.2922(3)
O4F O 0.3935(2) 0.7953(4) 1.2268(3)
O5F O 0.8036(5) 0.7920(4) 1.6034(2)
O6F O 0.7086(3) 0.7635(4) 1.6089(3)
C8F C 0.7687(7) 0.7943(7) 1.5816(6)
Zn1A Zn 0.19670(4) 1.19110(4) 0.69697(4)
Zn1E Zn -0.30303(4) 1.19670(4) 1.19110(4)
Zn1G Zn 0.80303(4) 0.80330(4) 1.69110(4)
Zn1I Zn 0.19110(4) 0.69697(4) 1.19670(4)
Zn2C Zn -0.19668(4) 0.69596(4) 1.19206(4)
Zn2G Zn 0.19206(4) 0.80332(4) 0.69596(4)
Zn2H_2 Zn 0.80404(4) 0.80794(4) 1.30332(4)
Zn2J Zn 0.30404(4) 0.69206(4) 0.69668(4)
Zn3C Zn -0.30967(4) 0.80967(4) 1.19033(4)
Zn3C_2 Zn 0.69033(4) 0.80967(4) 1.19033(4)
Zn4A Zn 0.30776(6) 1.19224(6) 0.80776(6)
Zn4C Zn 0.69224(6) 0.69224(6) 1.69224(6)
N2G N 0.0991(2) 0.7223(2) 0.7778(3)
N2J N 0.2222(3) 0.5991(2) 0.7777(2)
N3C N 0.7253(2) 0.6036(2) 1.2702(2)
N3F_2 N -0.2298(2) 0.7747(2) 1.3964(2)
N3J N 0.3964(2) 0.7702(2) 0.7747(2)
O1B O -0.2457(2) 1.2543(2) 1.2457(2)
O2C O -0.2517(2) 0.7517(2) 1.2483(2)
O2C_2 O 0.7483(2) 0.7517(2) 1.2483(2)
O4B O -0.2047(4) 1.2268(3) 1.3935(2)
O4I O 0.2732(3) 0.6065(2) 1.2953(4)
O5A O 0.2920(4) 0.8966(2) 1.1964(5)
O5G O 0.3036(5) 0.7080(4) 1.3966(2)
O5I O -0.1034(2) 1.1964(5) 1.2920(4)
O6A O 0.2635(4) 0.8911(3) 1.2914(3)
O6G O 0.2086(3) 0.7365(4) 1.3911(3)
loop_
_geom_bond_atom_site_label_1
_geom_bond_atom_site_label_2
_geom_bond_site_symmetry_1
_geom_bond_site_symmetry_2
Zn1 O1 1_555 1_555
Zn2 N1 1_555 1_555
Zn3 N2 1_555 1_555
Zn4 O1 1_555 1_555
C1 H1 1_555 1_555
C2 C1 1_555 1_555
C3 C2 1_555 1_555
C4 C2 1_555 1_555
H2 C4 1_555 1_555
C5 H3 1_555 1_555
C6 H4 1_555 1_555
C7 C5 1_555 1_555
N1 C4 1_555 1_555
N2 C1 1_555 1_555
N3 C5 1_555 1_555
N4 Zn2 1_555 1_555
O1 Zn1F 1_555 1_555
O2 Zn2 1_555 1_555
O3 Zn1 1_555 1_555
O4 C3 1_555 1_555
O5 C8 1_555 1_555
O6 C8 1_555 1_555
C8 C7 1_555 1_555
Zn1H O3H 1_555 1_555
Zn2H N1H 1_555 1_555
C1H H1H 1_555 1_555
C2H C1H 1_555 1_555
C3H C2H 1_555 1_555
C4H C2H 1_555 1_555
H2H C4H 1_555 1_555
C5H H3H 1_555 1_555
C6H H4H 1_555 1_555
C7H C5H 1_555 1_555
N1H C4H 1_555 1_555
N2H C1H 1_555 1_555
N3H C5H 1_555 1_555
N4H Zn2H 1_555 1_555
O3H C3H 1_555 1_555
O4H C3H 1_555 1_555
O5H C8H 1_555 1_555
O6H Zn4 1_555 1_555
C8H C7H 1_555 1_555
Zn1F O3F 1_555 1_555
Zn2F N1F 1_555 1_555
C1F H1F 1_555 1_555
C2F C1F 1_555 1_555
C3F C2F 1_555 1_555
C4F C2F 1_555 1_555
H2F C4F 1_555 1_555
C5F H3F 1_555 1_555
C6F H4F 1_555 1_555
C7F C5F 1_555 1_555
N1F C4F 1_555 1_555
N2F C1F 1_555 1_555
N3F C5F 1_555 1_555
N4F Zn2F 1_555 1_555
O3F C3F 1_555 1_555
O4F Zn1 1_555 1_555
O5F C8F 1_555 1_555
O6F C8F 1_555 1_555
C8F C7F 1_555 1_555
Zn1A O5 1_555 1_555
Zn1E O4H 1_555 1_555
Zn1G O5F 1_555 1_555
Zn1I O1 1_555 1_555
Zn2C N3H 1_555 1_555
Zn2G N3 1_555 1_555
Zn2H_2 N3F 1_555 1_555
Zn2J O2 1_555 1_555
Zn3C N2H 1_555 1_555
Zn3C_2 N2F 1_555 1_555
Zn4A O6 1_555 1_555
Zn4C O6F 1_555 1_555
N2G Zn3 1_555 1_555
N2J Zn3 1_555 1_555
N3C Zn2F 1_555 1_555
N3F_2 Zn2H 1_555 1_555
N3J Zn2 1_555 1_555
O1B Zn1H 1_555 1_555
O2C Zn2H 1_555 1_555
O2C_2 Zn2F 1_555 1_555
O4B Zn1H 1_555 1_555
O4I Zn1F 1_555 1_555
O5A Zn1 1_555 1_555
O5G Zn1F 1_555 1_555
O5I Zn1H 1_555 1_555
O6A Zn4 1_555 1_555
O6G Zn4 1_555 1_555
Zn3 O2 1_555 1_555
C3 O3 1_555 1_555
C6 C7 1_555 1_555
C6 N4 1_555 1_555
N1 N2 1_555 1_555
N3 N4 1_555 1_555
O2 Zn2G 1_555 1_555
O4 Zn1I 1_555 1_555
C6H C7H 1_555 1_555
C6H N4H 1_555 1_555
N1H N2H 1_555 1_555
N3H N4H 1_555 1_555
O5H Zn1I 1_555 1_555
O6H C8H 1_555 1_555
C3F O4F 1_555 1_555
C6F C7F 1_555 1_555
C6F N4F 1_555 1_555
N1F N2F 1_555 1_555
N3F N4F 1_555 1_555
Zn1E O1B 1_555 1_555
Zn2C O2C 1_555 1_555
Zn2H_2 O2C_2 1_555 1_555
Zn3C O2C 1_555 1_555
Zn3C_2 O2C_2 1_555 1_555

#END
