
#######################################################################
#
#                 Cambridge Crystallographic Data Centre
#                                CCDC 
#
#######################################################################
#
# If this CIF has been generated from an entry in the Cambridge 
# Structural Database, then it will include bibliographic, chemical, 
# crystal, experimental, refinement or atomic coordinate data resulting 
# from the CCDC's data processing and validation procedures.
#
#######################################################################

data_BUKRUW02
_symmetry_cell_setting           cubic
_symmetry_space_group_name_H-M   'P 21 3'
_symmetry_Int_Tables_number      198
_space_group_name_Hall           'P 2ac 2ab 3'
loop_
_symmetry_equiv_pos_site_id
_symmetry_equiv_pos_as_xyz
1 x,y,z
2 1/2-x,-y,1/2+z
3 -x,1/2+y,1/2-z
4 1/2+x,1/2-y,-z
5 z,x,y
6 1/2+z,1/2-x,-y
7 1/2-z,-x,1/2+y
8 -z,1/2+x,1/2-y
9 y,z,x
10 -y,1/2+z,1/2-x
11 1/2+y,1/2-z,-x
12 1/2-y,-z,1/2+x
_cell_length_a                   20.1616(2)
_cell_length_b                   20.1616(2)
_cell_length_c                   20.1616(2)
_cell_angle_alpha                90
_cell_angle_beta                 90
_cell_angle_gamma                90
_cell_volume                     8195.49
loop_
_atom_site_label
_atom_site_type_symbol
_atom_site_fract_x
_atom_site_fract_y
_atom_site_fract_z
Zn1 Zn 0.30416(5) 0.80887(5) 1.19746(5)
Zn2 Zn 0.30281(5) 0.80382(5) 0.80799(5)
Zn3 Zn 0.18975(5) 0.68975(5) 0.81025(5)
Zn4 Zn 0.19283(6) 0.80717(6) 1.30717(6)
C1 C 0.2098(4) 0.7072(3) 0.9648(4)
H1 H 0.1841 0.6712 0.9810
C2 C 0.2403(3) 0.7529(4) 1.0029(3)
C3 C 0.2361(5) 0.7635(6) 1.0749(5)
C4 C 0.2923(6) 0.7777(7) 0.9674(6)
H2 H 0.3339 0.7940 0.9823
C5 C 0.2289(8) 0.9470(9) 0.7091(7)
H3 H 0.2133 0.9505 0.6648
C6 C 0.2939(6) 0.9707(10) 0.8110(9)
H4 H 0.3157 0.9891 0.8485
C7 C 0.2480(4) 1.0021(5) 0.7364(5)
C8 C 0.2208(10) 1.0758(6) 0.7313(10)
N1 N 0.2667(3) 0.7725(3) 0.9016(4)
N2 N 0.2217(3) 0.7207(3) 0.8978(2)
N3 N 0.2282(3) 0.8984(3) 0.7298(3)
N4 N 0.2784(3) 0.8938(3) 0.7800(3)
O1 O 0.2450(3) 0.7550(3) 1.2550(3)
O2 O 0.2470(2) 0.7470(2) 0.7530(2)
O3 O 0.2755(3) 0.7897(3) 1.1071(4)
O4 O 0.2042(4) 0.7265(4) 1.1074(3)
O5 O 0.2082(4) 1.1037(3) 0.7019(5)
O6 O 0.2187(5) 1.1132(3) 0.7905(4)
Zn1H Zn -0.19113(5) 1.19746(5) 1.30416(5)
Zn2H Zn -0.19618(5) 0.80799(5) 1.30281(5)
C1H C -0.2928(3) 0.9648(4) 1.2098(4)
H1H H -0.3288 0.9810 1.1841
C2H C -0.2471(4) 1.0029(3) 1.2403(3)
C3H C -0.2365(6) 1.0749(5) 1.2361(5)
C4H C -0.2223(7) 0.9674(6) 1.2923(6)
H2H H -0.2060 0.9823 1.3339
C5H C -0.0530(9) 0.7091(7) 1.2289(8)
H3H H -0.0495 0.6648 1.2133
C6H C -0.0293(10) 0.8110(9) 1.2939(6)
H4H H -0.0109 0.8485 1.3157
C7H C 0.0021(5) 0.7364(5) 1.2480(4)
C8H C 0.0758(6) 0.7313(10) 1.2208(10)
N1H N -0.2275(3) 0.9016(4) 1.2667(3)
N2H N -0.2793(3) 0.8978(2) 1.2217(3)
N3H N -0.1016(3) 0.7298(3) 1.2282(3)
N4H N -0.1062(3) 0.7800(3) 1.2784(3)
O3H O -0.2103(3) 1.1071(4) 1.2755(3)
O4H O -0.2735(4) 1.1074(3) 1.2042(4)
O5H O 0.1037(3) 0.7019(5) 1.2082(4)
O6H O 0.1132(3) 0.7905(4) 1.2187(5)
Zn1A Zn 0.19584(5) 1.19113(5) 1.69746(5)
Zn2A Zn 0.19719(5) 1.19618(5) 1.30799(5)
C1A C 0.2902(4) 1.2928(3) 1.4648(4)
H1A H 0.3159 1.3288 1.4810
C2A C 0.2597(3) 1.2471(4) 1.5029(3)
C3A C 0.2639(5) 1.2365(6) 1.5749(5)
C4A C 0.2077(6) 1.2223(7) 1.4674(6)
H2A H 0.1661 1.2060 1.4823
C5A C 0.2711(8) 1.0530(9) 1.2091(7)
H3A H 0.2867 1.0495 1.1648
C6A C 0.2061(6) 1.0293(10) 1.3110(9)
H4A H 0.1843 1.0109 1.3485
C7A C 0.2520(4) 0.9979(5) 1.2364(5)
C8A C 0.2792(10) 0.9242(6) 1.2313(10)
N1A N 0.2333(3) 1.2275(3) 1.4016(4)
N2A N 0.2783(3) 1.2793(3) 1.3978(2)
N3A N 0.2718(3) 1.1016(3) 1.2298(3)
N4A N 0.2216(3) 1.1062(3) 1.2800(3)
O3A O 0.2245(3) 1.2103(3) 1.6071(4)
O4A O 0.2958(4) 1.2735(4) 1.6074(3)
O5A O 0.2918(4) 0.8963(3) 1.2019(5)
O6A O 0.2813(5) 0.8868(3) 1.2905(4)
Zn1A_2 Zn 0.19584(5) 1.19113(5) 0.69746(5)
Zn1E Zn -0.30254(5) 1.19584(5) 1.19113(5)
Zn1F Zn 0.30254(5) 0.69584(5) 1.30887(5)
Zn1I Zn 0.19113(5) 0.69746(5) 1.19584(5)
Zn1J Zn 0.30887(5) 1.30254(5) 1.69584(5)
Zn2C Zn -0.19719(5) 0.69618(5) 1.19201(5)
Zn2E Zn 0.30799(5) 1.19719(5) 1.19618(5)
Zn2G Zn 0.19201(5) 0.80281(5) 0.69618(5)
Zn2J Zn 0.30382(5) 0.69201(5) 0.69719(5)
Zn3A Zn 0.31025(5) 1.31025(5) 1.31025(5)
Zn3C Zn -0.31025(5) 0.81025(5) 1.18975(5)
Zn4A Zn 0.30717(6) 1.19283(6) 0.80717(6)
N2G N 0.1022(2) 0.7217(3) 0.7793(3)
N2J N 0.2207(3) 0.6022(2) 0.7783(3)
N3F N -0.2298(3) 0.7718(3) 1.3984(3)
N3I N 0.1016(3) 1.2298(3) 1.2718(3)
N3J N 0.3984(3) 0.7702(3) 0.7718(3)
O1A O 0.2550(3) 1.2450(3) 1.7550(3)
O1B O -0.2450(3) 1.2550(3) 1.2450(3)
O2A O 0.2530(2) 1.2530(2) 1.2530(2)
O2C O -0.2530(2) 0.7530(2) 1.2470(2)
O4B O -0.2042(4) 1.2265(4) 1.3926(3)
O4D O 0.1074(3) 1.2042(4) 1.7265(4)
O4F O 0.3926(3) 0.7958(4) 1.2265(4)
O5_2 O 0.2082(4) 1.1037(3) 1.7019(5)
O5I O -0.1037(3) 1.2019(5) 1.2918(4)
O6_2 O 0.2187(5) 1.1132(3) 1.7905(4)
O6G O 0.2095(4) 0.7187(5) 1.3868(3)
O6I O -0.1132(3) 1.2905(4) 1.2813(5)
loop_
_geom_bond_atom_site_label_1
_geom_bond_atom_site_label_2
_geom_bond_site_symmetry_1
_geom_bond_site_symmetry_2
Zn1 O1 1_555 1_555
Zn2 N1 1_555 1_555
Zn3 N2 1_555 1_555
Zn4 O1 1_555 1_555
C1 H1 1_555 1_555
C2 C1 1_555 1_555
C3 C2 1_555 1_555
C4 C2 1_555 1_555
H2 C4 1_555 1_555
C5 H3 1_555 1_555
C6 H4 1_555 1_555
C7 C5 1_555 1_555
C8 C7 1_555 1_555
N1 C4 1_555 1_555
N2 C1 1_555 1_555
N3 C5 1_555 1_555
N4 Zn2 1_555 1_555
O1 Zn1F 1_555 1_555
O2 Zn2 1_555 1_555
O3 Zn1 1_555 1_555
O4 C3 1_555 1_555
O5 C8 1_555 1_555
O6 C8 1_555 1_555
Zn1H O3H 1_555 1_555
Zn2H N1H 1_555 1_555
C1H H1H 1_555 1_555
C2H C1H 1_555 1_555
C3H C2H 1_555 1_555
C4H C2H 1_555 1_555
H2H C4H 1_555 1_555
C5H H3H 1_555 1_555
C6H H4H 1_555 1_555
C7H C5H 1_555 1_555
C8H C7H 1_555 1_555
N1H C4H 1_555 1_555
N2H C1H 1_555 1_555
N3H C5H 1_555 1_555
N4H Zn2H 1_555 1_555
O3H C3H 1_555 1_555
O4H C3H 1_555 1_555
O5H C8H 1_555 1_555
O6H Zn4 1_555 1_555
Zn1A O3A 1_555 1_555
Zn2A N1A 1_555 1_555
C1A H1A 1_555 1_555
C2A C1A 1_555 1_555
C3A C2A 1_555 1_555
C4A C2A 1_555 1_555
H2A C4A 1_555 1_555
C5A H3A 1_555 1_555
C6A H4A 1_555 1_555
C7A C5A 1_555 1_555
C8A C7A 1_555 1_555
N1A C4A 1_555 1_555
N2A C1A 1_555 1_555
N3A C5A 1_555 1_555
N4A Zn2A 1_555 1_555
O3A C3A 1_555 1_555
O4A C3A 1_555 1_555
O5A Zn1 1_555 1_555
O6A Zn1 1_555 1_555
Zn1A_2 O5 1_555 1_555
Zn1E O4H 1_555 1_555
Zn1F O6G 1_555 1_555
Zn1I O1 1_555 1_555
Zn1J O4A 1_555 1_555
Zn2C N3H 1_555 1_555
Zn2E N3A 1_555 1_555
Zn2G N3 1_555 1_555
Zn2J O2 1_555 1_555
Zn3A N2A 1_555 1_555
Zn3C N2H 1_555 1_555
Zn4A O6 1_555 1_555
N2G Zn3 1_555 1_555
N2J Zn3 1_555 1_555
N3F Zn2H 1_555 1_555
N3I Zn2A 1_555 1_555
N3J Zn2 1_555 1_555
O1A Zn1A 1_555 1_555
O1B Zn1H 1_555 1_555
O2A Zn2A 1_555 1_555
O2C Zn2H 1_555 1_555
O4B Zn1H 1_555 1_555
O4D Zn1A 1_555 1_555
O4F Zn1 1_555 1_555
O5_2 Zn1A 1_555 1_555
O5I Zn1H 1_555 1_555
O6_2 Zn1A 1_555 1_555
O6G Zn4 1_555 1_555
O6I Zn1H 1_555 1_555
Zn3 O2 1_555 1_555
Zn4 O6A 1_555 1_555
C3 O3 1_555 1_555
C6 C7 1_555 1_555
C6 N4 1_555 1_555
N1 N2 1_555 1_555
N3 N4 1_555 1_555
O2 Zn2G 1_555 1_555
O4 Zn1I 1_555 1_555
O6 Zn1A_2 1_555 1_555
C6H C7H 1_555 1_555
C6H N4H 1_555 1_555
C8H O6H 1_555 1_555
N1H N2H 1_555 1_555
N3H N4H 1_555 1_555
O5H Zn1I 1_555 1_555
O6H Zn1I 1_555 1_555
C6A C7A 1_555 1_555
C6A N4A 1_555 1_555
C8A O5A 1_555 1_555
C8A O6A 1_555 1_555
N1A N2A 1_555 1_555
N3A N4A 1_555 1_555
Zn1E O1B 1_555 1_555
Zn1J O1A 1_555 1_555
Zn2C O2C 1_555 1_555
Zn2E O2A 1_555 1_555
Zn3A O2A 1_555 1_555
Zn3C O2C 1_555 1_555

#END
