
#######################################################################
#
#                 Cambridge Crystallographic Data Centre
#                                CCDC 
#
#######################################################################
#
# If this CIF has been generated from an entry in the Cambridge 
# Structural Database, then it will include bibliographic, chemical, 
# crystal, experimental, refinement or atomic coordinate data resulting 
# from the CCDC's data processing and validation procedures.
#
#######################################################################

data_BUKTOS
_symmetry_cell_setting           cubic
_symmetry_space_group_name_H-M   'F 2 3'
_symmetry_Int_Tables_number      196
_space_group_name_Hall           'F 2 2 3'
loop_
_symmetry_equiv_pos_site_id
_symmetry_equiv_pos_as_xyz
1 x,y,z
2 -x,-y,z
3 -x,y,-z
4 x,-y,-z
5 z,x,y
6 z,-x,-y
7 -z,-x,y
8 -z,x,-y
9 y,z,x
10 -y,z,-x
11 y,-z,-x
12 -y,-z,x
13 x,1/2+y,1/2+z
14 -x,1/2-y,1/2+z
15 -x,1/2+y,1/2-z
16 x,1/2-y,1/2-z
17 z,1/2+x,1/2+y
18 z,1/2-x,1/2-y
19 -z,1/2-x,1/2+y
20 -z,1/2+x,1/2-y
21 y,1/2+z,1/2+x
22 -y,1/2+z,1/2-x
23 y,1/2-z,1/2-x
24 -y,1/2-z,1/2+x
25 1/2+x,y,1/2+z
26 1/2-x,-y,1/2+z
27 1/2-x,y,1/2-z
28 1/2+x,-y,1/2-z
29 1/2+z,x,1/2+y
30 1/2+z,-x,1/2-y
31 1/2-z,-x,1/2+y
32 1/2-z,x,1/2-y
33 1/2+y,z,1/2+x
34 1/2-y,z,1/2-x
35 1/2+y,-z,1/2-x
36 1/2-y,-z,1/2+x
37 1/2+x,1/2+y,z
38 1/2-x,1/2-y,z
39 1/2-x,1/2+y,-z
40 1/2+x,1/2-y,-z
41 1/2+z,1/2+x,y
42 1/2+z,1/2-x,-y
43 1/2-z,1/2-x,y
44 1/2-z,1/2+x,-y
45 1/2+y,1/2+z,x
46 1/2-y,1/2+z,-x
47 1/2+y,1/2-z,-x
48 1/2-y,1/2-z,x
_cell_length_a                   20.1198(5)
_cell_length_b                   20.1198(5)
_cell_length_c                   20.1198(5)
_cell_angle_alpha                90
_cell_angle_beta                 90
_cell_angle_gamma                90
_cell_volume                     8144.62
loop_
_atom_site_label
_atom_site_type_symbol
_atom_site_fract_x
_atom_site_fract_y
_atom_site_fract_z
Zn1 Zn 0.19430(5) 0.19430(5) 1.19430(5)
Zn2 Zn 0.19348(5) 0.19348(5) 0.80652(5)
O1 O 0.2500 0.2500 1.2500
O2 O 0.2500 0.2500 0.7500
N1 N 0.2244(3) 0.2246(3) 1.1026(3)
O3 O 0.2147(4) 0.2150(3) 0.8968(2)
C1 C 0.2500 0.2500 0.9992(8)
C2 C 0.2119(3) 0.2120(3) 1.0435(3)
H1 H 0.1799 0.1801 1.0298
C3 C 0.2500 0.2500 0.9266(6)
N1KA N 0.2756(3) 0.2754(3) 1.1026(3)
O3KA O 0.2853(4) 0.2850(3) 0.8968(2)
C2KA C 0.2881(3) 0.2880(3) 1.0435(3)
H1KA H 0.3201 0.3199 1.0298
Zn2B Zn -0.19348(5) 0.19348(5) 1.19348(5)
N1D N 0.1026(3) 0.2244(3) 1.2246(3)
O3D O -0.1032(2) 0.2147(4) 1.2150(3)
C1D C -0.0008(8) 0.2500 1.2500
C2D C 0.0435(3) 0.2119(3) 1.2120(3)
H1D H 0.0298 0.1799 1.1801
C3D C -0.0734(6) 0.2500 1.2500
N1Q N 0.1026(3) 0.2756(3) 1.2754(3)
O3Q O -0.1032(2) 0.2853(4) 1.2850(3)
C2Q C 0.0435(3) 0.2881(3) 1.2880(3)
H1Q H 0.0298 0.3201 1.3199
Zn1B Zn -0.19430(5) 0.19430(5) 0.80570(5)
N1G N -0.1026(3) 0.2244(3) 0.7754(3)
O3G O 0.1032(2) 0.2147(4) 0.7850(3)
C1G C 0.0008(8) 0.2500 0.7500
C2G C -0.0435(3) 0.2119(3) 0.7880(3)
H1G H -0.0298 0.1799 0.8199
C3G C 0.0734(6) 0.2500 0.7500
N1R N -0.1026(3) 0.2756(3) 0.7246(3)
O3R O 0.1032(2) 0.2853(4) 0.7150(3)
C2R C -0.0435(3) 0.2881(3) 0.7120(3)
H1R H -0.0298 0.3201 0.6801
Zn2C Zn 0.19348(5) -0.19348(5) 1.19348(5)
N1H N 0.2246(3) 0.1026(3) 1.2244(3)
O3H O 0.2150(3) -0.1032(2) 1.2147(4)
C1H C 0.2500 -0.0008(8) 1.2500
C2H C 0.2120(3) 0.0435(3) 1.2119(3)
H1H H 0.1801 0.0298 1.1799
C3H C 0.2500 -0.0734(6) 1.2500
N1GA N 0.2754(3) 0.1026(3) 1.2756(3)
O3GA O 0.2850(3) -0.1032(2) 1.2853(4)
C2GA C 0.2880(3) 0.0435(3) 1.2881(3)
H1GA H 0.3199 0.0298 1.3201
Zn1C Zn 0.19430(5) -0.19430(5) 0.80570(5)
N1J N 0.2246(3) -0.1026(3) 0.7756(3)
O3J O 0.2150(3) 0.1032(2) 0.7853(4)
C1J C 0.2500 0.0008(8) 0.7500
C2J C 0.2120(3) -0.0435(3) 0.7881(3)
H1J H 0.1801 -0.0298 0.8201
C3J C 0.2500 0.0734(6) 0.7500
N1IA N 0.2754(3) -0.1026(3) 0.7244(3)
O3IA O 0.2850(3) 0.1032(2) 0.7147(4)
C2IA C 0.2880(3) -0.0435(3) 0.7119(3)
H1IA H 0.3199 -0.0298 0.6799
Zn2O Zn 0.19348(5) 0.30652(5) 0.69348(5)
N1O N 0.2244(3) 0.2754(3) 0.3974(3)
O3O O 0.2147(4) 0.2850(3) 0.6032(2)
C1O C 0.2500 0.2500 0.5008(8)
C2O C 0.2119(3) 0.2880(3) 0.4565(3)
H1O H 0.1799 0.3199 0.4702
C3O C 0.2500 0.2500 0.5734(6)
N1Z N 0.2756(3) 0.2246(3) 0.3974(3)
O3Z O 0.2853(4) 0.2150(3) 0.6032(2)
C2Z C 0.2881(3) 0.2120(3) 0.4565(3)
H1Z H 0.3201 0.1801 0.4702
Zn1O Zn 0.19430(5) 0.30570(5) 1.30570(5)
Zn1M Zn -0.19430(5) 0.30570(5) 0.69430(5)
Zn1O_2 Zn 0.19430(5) 0.30570(5) 0.30570(5)
Zn1Y Zn 0.30570(5) -0.19430(5) 0.69430(5)
Zn1Z Zn 0.30570(5) 0.19430(5) 0.30570(5)
Zn1Z_2 Zn 0.30570(5) 0.19430(5) 1.30570(5)
Zn1KA Zn 0.30570(5) 0.30570(5) 1.19430(5)
Zn2M Zn -0.19348(5) 0.30652(5) 1.30652(5)
Zn2Y Zn 0.30652(5) -0.19348(5) 1.30652(5)
Zn2Z Zn 0.30652(5) 0.19348(5) 0.69348(5)
Zn2KA Zn 0.30652(5) 0.30652(5) 0.80652(5)
O1B O -0.2500 0.2500 0.7500
O1C O 0.2500 -0.2500 0.7500
O2B O -0.2500 0.2500 1.2500
O2C O 0.2500 -0.2500 1.2500
N1B N -0.2244(3) 0.2246(3) 0.8974(3)
N1C N 0.2244(3) -0.2246(3) 0.8974(3)
N1E N 0.1026(3) -0.2244(3) 0.7754(3)
N1I N -0.2246(3) 0.1026(3) 0.7756(3)
N1O_2 N 0.2244(3) 0.2754(3) 1.3974(3)
N1V N 0.2246(3) 0.3974(3) 1.2756(3)
O3B O -0.2147(4) 0.2150(3) 1.1032(2)
O3C O 0.2147(4) -0.2150(3) 1.1032(2)
O3F O 0.1032(2) -0.2147(4) 1.2150(3)
O3K O -0.2150(3) 0.1032(2) 1.2147(4)
O3T O 0.2150(3) 0.3968(2) 0.7147(4)
loop_
_geom_bond_atom_site_label_1
_geom_bond_atom_site_label_2
_geom_bond_site_symmetry_1
_geom_bond_site_symmetry_2
Zn1 O1 1_555 1_555
Zn2 O2 1_555 1_555
O1 Zn1O 1_555 1_555
O2 Zn2O 1_555 1_555
N1 Zn1 1_555 1_555
O3 Zn2 1_555 1_555
C1 C2 1_555 1_555
C2 N1 1_555 1_555
H1 C2 1_555 1_555
C3 O3 1_555 1_555
N1KA N1 1_555 1_555
O3KA C3 1_555 1_555
C2KA C1 1_555 1_555
H1KA C2KA 1_555 1_555
Zn2B O3D 1_555 1_555
N1D Zn1 1_555 1_555
O3D C3D 1_555 1_555
C1D C2D 1_555 1_555
C2D N1D 1_555 1_555
H1D C2D 1_555 1_555
C3D C1D 1_555 1_555
N1Q N1D 1_555 1_555
O3Q C3D 1_555 1_555
C2Q C1D 1_555 1_555
H1Q C2Q 1_555 1_555
Zn1B N1G 1_555 1_555
N1G C2G 1_555 1_555
O3G Zn2 1_555 1_555
C1G C2G 1_555 1_555
C2G H1G 1_555 1_555
C3G O3G 1_555 1_555
N1R N1G 1_555 1_555
O3R C3G 1_555 1_555
C2R C1G 1_555 1_555
H1R C2R 1_555 1_555
Zn2C O3H 1_555 1_555
N1H Zn1 1_555 1_555
O3H C3H 1_555 1_555
C1H C2H 1_555 1_555
C2H N1H 1_555 1_555
H1H C2H 1_555 1_555
C3H C1H 1_555 1_555
N1GA N1H 1_555 1_555
O3GA C3H 1_555 1_555
C2GA C1H 1_555 1_555
H1GA C2GA 1_555 1_555
Zn1C N1J 1_555 1_555
N1J C2J 1_555 1_555
O3J Zn2 1_555 1_555
C1J C2J 1_555 1_555
C2J H1J 1_555 1_555
C3J O3J 1_555 1_555
N1IA N1J 1_555 1_555
O3IA C3J 1_555 1_555
C2IA C1J 1_555 1_555
H1IA C2IA 1_555 1_555
Zn2O O3R 1_555 1_555
N1O C2O 1_555 1_555
O3O Zn2O 1_555 1_555
C1O C2O 1_555 1_555
C2O H1O 1_555 1_555
C3O O3O 1_555 1_555
N1Z N1O 1_555 1_555
O3Z C3O 1_555 1_555
C2Z C1O 1_555 1_555
H1Z C2Z 1_555 1_555
Zn1O N1Q 1_555 1_555
Zn1M N1R 1_555 1_555
Zn1O_2 N1O 1_555 1_555
Zn1Y N1IA 1_555 1_555
Zn1Z N1Z 1_555 1_555
Zn1Z_2 O1 1_555 1_555
Zn1KA O1 1_555 1_555
Zn2M O3Q 1_555 1_555
Zn2Y O3GA 1_555 1_555
Zn2Z O2 1_555 1_555
Zn2KA O2 1_555 1_555
O1B Zn1B 1_555 1_555
O1C Zn1C 1_555 1_555
O2B Zn2B 1_555 1_555
O2C Zn2C 1_555 1_555
N1B Zn1B 1_555 1_555
N1C Zn1C 1_555 1_555
N1E Zn1C 1_555 1_555
N1I Zn1B 1_555 1_555
N1O_2 Zn1O 1_555 1_555
N1V Zn1O 1_555 1_555
O3B Zn2B 1_555 1_555
O3C Zn2C 1_555 1_555
O3F Zn2C 1_555 1_555
O3K Zn2B 1_555 1_555
O3T Zn2O 1_555 1_555
C1 C3 1_555 1_555
N1KA C2KA 1_555 1_555
N1KA Zn1KA 1_555 1_555
O3KA Zn2KA 1_555 1_555
N1Q C2Q 1_555 1_555
C1G C3G 1_555 1_555
N1R C2R 1_555 1_555
N1GA C2GA 1_555 1_555
N1GA Zn1Z_2 1_555 1_555
C1J C3J 1_555 1_555
N1IA C2IA 1_555 1_555
O3IA Zn2Z 1_555 1_555
C1O C3O 1_555 1_555
N1Z C2Z 1_555 1_555
O3Z Zn2Z 1_555 1_555
Zn1M O1B 1_555 1_555
Zn1Y O1C 1_555 1_555
Zn2M O2B 1_555 1_555
Zn2Y O2C 1_555 1_555

#END
