
#######################################################################
#
#                 Cambridge Crystallographic Data Centre
#                                CCDC 
#
#######################################################################
#
# If this CIF has been generated from an entry in the Cambridge 
# Structural Database, then it will include bibliographic, chemical, 
# crystal, experimental, refinement or atomic coordinate data resulting 
# from the CCDC's data processing and validation procedures.
#
#######################################################################

data_BUSGOM
_symmetry_cell_setting           monoclinic
_symmetry_space_group_name_H-M   'P 21/c'
_symmetry_Int_Tables_number      14
_space_group_name_Hall           '-P 2ybc'
loop_
_symmetry_equiv_pos_site_id
_symmetry_equiv_pos_as_xyz
1 x,y,z
2 -x,1/2+y,1/2-z
3 -x,-y,-z
4 x,1/2-y,1/2+z
_cell_length_a                   9.5503(15)
_cell_length_b                   21.585(3)
_cell_length_c                   9.2333(15)
_cell_angle_alpha                90
_cell_angle_beta                 116.006(2)
_cell_angle_gamma                90
_cell_volume                     1710.66
loop_
_atom_site_label
_atom_site_type_symbol
_atom_site_fract_x
_atom_site_fract_y
_atom_site_fract_z
Sm1 Sm 1.14078(3) 1.008557(12) 0.37659(3)
Cu1 Cu 1.19116(8) 1.14545(3) 0.04086(9)
O1 O 1.1178(4) 1.05786(16) 0.1268(4)
O2 O 0.8679(4) 1.03038(19) 0.2200(4)
O3 O 1.0317(4) 0.92451(17) 0.4496(4)
O4 O 1.3846(4) 1.06628(17) 0.4488(4)
C1 C 1.0085(6) 0.8155(2) 0.4540(6)
C2 C 0.9727(6) 0.8795(2) 0.4886(6)
C3 C 1.1237(7) 0.8021(3) 0.4059(7)
H1 H 1.1827 0.8336 0.3911
C4 C 0.7405(6) 1.0306(2) 0.2281(6)
C5 C 0.6096(6) 1.0651(2) 0.0962(6)
C6 C 0.6174(6) 1.0814(3) -0.0441(6)
H2 H 0.7031 1.0699 -0.0608
C7 C 0.4982(7) 1.1148(3) -0.1592(7)
H3 H 0.5007 1.1252 -0.2558
C8 C 0.4789(6) 1.0827(3) 0.1150(7)
H4 H 0.4708 1.0703 0.2075
C9 C 1.1486(7) 0.7413(3) 0.3807(7)
H5 H 1.2281 0.7310 0.3528
N1 N 0.3631(5) 1.1169(2) 0.0050(6)
C10 C 0.3753(6) 1.1325(3) -0.1296(6)
H6 H 0.2968 1.1564 -0.2063
C11 C 0.9225(6) 0.7670(2) 0.4709(6)
H7 H 0.8458 0.7761 0.5040
C12 C 1.0570(7) 0.6959(3) 0.3965(7)
H8 H 1.0735 0.6552 0.3748
N2 N 0.9432(5) 0.7075(2) 0.4423(6)
C13 C 1.5080(6) 1.0355(3) 0.5112(6)
O5 O 0.7127(4) 1.00580(17) 0.3360(4)
O6 O 0.8855(4) 0.88562(17) 0.5569(5)
O7 O 1.6421(4) 1.05686(17) 0.5911(4)
C14 C 1.0228(5) 1.0337(2) -0.0035(6)
O8 O 0.9623(4) 1.06067(16) -0.1366(4)
Sm1B Sm 0.85922(3) 0.991443(12) -0.37659(3)
Sm1B_2 Sm 0.85922(3) 0.991443(12) 0.62341(3)
Sm1B_3 Sm 1.85922(3) 0.991443(12) 0.62341(3)
Cu1B Cu 0.80884(8) 0.85455(3) -0.04086(9)
Cu1_2 Cu 0.19116(8) 1.14545(3) 0.04086(9)
Cu1A Cu 0.80884(8) 0.64545(3) 0.45914(9)
Cu1B_2 Cu 1.80884(8) 0.85455(3) 0.95914(9)
Cu1C Cu 1.19116(8) 1.35455(3) 0.54086(9)
O1B O 0.8822(4) 0.94214(16) -0.1268(4)
O2B O 1.1321(4) 0.96962(19) 0.7800(4)
O2B_2 O 1.1321(4) 0.96962(19) -0.2200(4)
O3B O 0.9683(4) 1.07549(17) 0.5504(4)
O3B_2 O 0.9683(4) 1.07549(17) -0.4496(4)
O4B O 1.6154(4) 0.93372(17) 0.5512(4)
O4B_2 O 0.6154(4) 0.93372(17) -0.4488(4)
C1B C 0.9915(6) 1.1845(2) 0.5460(6)
C2B C 1.0273(6) 1.1205(2) 0.5114(6)
C3B C 0.8763(7) 1.1979(3) 0.5941(7)
H1B H 0.8173 1.1664 0.6089
C4B C 1.2595(6) 0.9694(2) 0.7719(6)
C5B C 1.3904(6) 0.9349(2) 0.9038(6)
C6B C 1.3826(6) 0.9186(3) 1.0441(6)
H2B H 1.2969 0.9301 1.0608
C7B C 1.5018(7) 0.8852(3) 1.1592(7)
H3B H 1.4993 0.8748 1.2558
C8B C 1.5211(6) 0.9173(3) 0.8850(7)
H4B H 1.5292 0.9297 0.7925
C9B C 0.8514(7) 1.2587(3) 0.6193(7)
H5B H 0.7719 1.2690 0.6472
N1B N 1.6369(5) 0.8831(2) 0.9950(6)
N1_2 N 1.3631(5) 1.1169(2) 0.0050(6)
N1B_2 N 0.6369(5) 0.8831(2) -0.0050(6)
C10B C 1.6247(6) 0.8675(3) 1.1296(6)
H6B H 1.7032 0.8436 1.2063
C11B C 1.0775(6) 1.2330(2) 0.5291(6)
H7B H 1.1542 1.2239 0.4960
C12B C 0.9430(7) 1.3041(3) 0.6035(7)
H8B H 0.9265 1.3448 0.6252
N2B N 1.0568(5) 1.2925(2) 0.5577(6)
N2A N 1.0568(5) 1.2075(2) 0.0577(6)
N2C N 0.9432(5) 0.7925(2) -0.0577(6)
C13B C 1.4920(6) 0.9645(3) 0.4888(6)
O5B O 1.2873(4) 0.99420(17) 0.6640(4)
O5_2 O 0.7127(4) 1.00580(17) -0.6640(4)
O6B O 1.1145(4) 1.11438(17) 0.4431(5)
O6_2 O 0.8855(4) 0.88562(17) -0.4431(5)
O7B O 1.3579(4) 0.94314(17) 0.4089(4)
O7_2 O 0.6421(4) 1.05686(17) -0.4089(4)
C14B C 0.9772(5) 0.9663(2) 0.0035(6)
O8B O 1.0377(4) 0.93933(16) 0.1366(4)
O9 O 0.4018(8) 0.2019(2) 0.4515(8)
H9 H 0.381(11) 0.1633(11) 0.439(11)
H10 H 0.449(10) 0.209(3) 0.394(9)
O10 O 0.5368(8) 0.2645(3) 0.7414(8)
H11 H 0.504(9) 0.246(5) 0.650(6)
H12 H 0.631(5) 0.253(5) 0.793(9)
loop_
_geom_bond_atom_site_label_1
_geom_bond_atom_site_label_2
_geom_bond_site_symmetry_1
_geom_bond_site_symmetry_2
Sm1 O1 1_555 1_555
Cu1 O1 1_555 1_555
O1 C14 1_555 1_555
O2 Sm1 1_555 1_555
O3 Sm1 1_555 1_555
O4 Sm1 1_555 1_555
C1 C2 1_555 1_555
C2 O3 1_555 1_555
C3 C1 1_555 1_555
H1 C3 1_555 1_555
C4 O2 1_555 1_555
C5 C4 1_555 1_555
C6 C5 1_555 1_555
H2 C6 1_555 1_555
C7 C6 1_555 1_555
H3 C7 1_555 1_555
C8 C5 1_555 1_555
H4 C8 1_555 1_555
C9 C3 1_555 1_555
H5 C9 1_555 1_555
N1 C8 1_555 1_555
C10 C7 1_555 1_555
H6 C10 1_555 1_555
C11 C1 1_555 1_555
H7 C11 1_555 1_555
C12 C9 1_555 1_555
H8 C12 1_555 1_555
N2 C11 1_555 1_555
C13 O4 1_555 1_555
O5 C4 1_555 1_555
O6 C2 1_555 1_555
O7 C13 1_555 1_555
C14 O8 1_555 1_555
O8 Sm1B 1_555 1_555
O9 H9 1_555 1_555
H10 O9 1_555 1_555
O10 H11 1_555 1_555
H12 O10 1_555 1_555
Sm1B O1B 1_555 1_555
Sm1B_2 O5 1_555 1_555
Sm1B_3 O7 1_555 1_555
Cu1B O1B 1_555 1_555
Cu1_2 N1 1_555 1_555
Cu1A N2 1_555 1_555
Cu1B_2 N1B 1_555 1_555
Cu1C N2B 1_555 1_555
O1B C14B 1_555 1_555
O2B Sm1B_2 1_555 1_555
O2B_2 Sm1B 1_555 1_555
O3B Sm1B_2 1_555 1_555
O3B_2 Sm1B 1_555 1_555
O4B Sm1B_3 1_555 1_555
O4B_2 Sm1B 1_555 1_555
C1B C2B 1_555 1_555
C2B O3B 1_555 1_555
C3B C1B 1_555 1_555
H1B C3B 1_555 1_555
C4B O2B 1_555 1_555
C5B C4B 1_555 1_555
C6B C5B 1_555 1_555
H2B C6B 1_555 1_555
C7B C6B 1_555 1_555
H3B C7B 1_555 1_555
C8B C5B 1_555 1_555
H4B C8B 1_555 1_555
C9B C3B 1_555 1_555
H5B C9B 1_555 1_555
N1B C8B 1_555 1_555
N1_2 Cu1 1_555 1_555
N1B_2 Cu1B 1_555 1_555
C10B C7B 1_555 1_555
H6B C10B 1_555 1_555
C11B C1B 1_555 1_555
H7B C11B 1_555 1_555
C12B C9B 1_555 1_555
H8B C12B 1_555 1_555
N2B C11B 1_555 1_555
N2A Cu1 1_555 1_555
N2C Cu1B 1_555 1_555
C13B C13 1_555 1_555
O5B Sm1 1_555 1_555
O5_2 Sm1B 1_555 1_555
O6B Sm1 1_555 1_555
O6_2 Sm1B 1_555 1_555
O7B Sm1 1_555 1_555
O7_2 Sm1B 1_555 1_555
C14B C14 1_555 1_555
O8B Sm1 1_555 1_555
N1 C10 1_555 1_555
C12 N2 1_555 1_555
O6 Sm1B_2 1_555 1_555
O4B C13B 1_555 1_555
C2B O6B 1_555 1_555
C4B O5B 1_555 1_555
N1B C10B 1_555 1_555
C12B N2B 1_555 1_555
C13B O7B 1_555 1_555
C14B O8B 1_555 1_555

#END
