
#######################################################################
#
#                 Cambridge Crystallographic Data Centre
#                                CCDC 
#
#######################################################################
#
# If this CIF has been generated from an entry in the Cambridge 
# Structural Database, then it will include bibliographic, chemical, 
# crystal, experimental, refinement or atomic coordinate data resulting 
# from the CCDC's data processing and validation procedures.
#
#######################################################################

data_BUSQIQ
_symmetry_cell_setting           monoclinic
_symmetry_space_group_name_H-M   'C 2/m'
_symmetry_Int_Tables_number      12
_space_group_name_Hall           '-C 2y'
loop_
_symmetry_equiv_pos_site_id
_symmetry_equiv_pos_as_xyz
1 x,y,z
2 -x,y,-z
3 1/2+x,1/2+y,z
4 1/2-x,1/2+y,-z
5 -x,-y,-z
6 x,-y,z
7 1/2-x,1/2-y,-z
8 1/2+x,1/2-y,z
_cell_length_a                   9.7480(10)
_cell_length_b                   20.0480(10)
_cell_length_c                   7.4890(10)
_cell_angle_alpha                90
_cell_angle_beta                 134.420(10)
_cell_angle_gamma                90
_cell_volume                     1045.32
loop_
_atom_site_label
_atom_site_type_symbol
_atom_site_fract_x
_atom_site_fract_y
_atom_site_fract_z
C1 C -0.0511(9) 0.3757(3) -0.3573(13)
C2 C -0.0156(8) 0.4402(3) -0.4219(10)
C3 C -0.0307(12) 0.5000 -0.3458(17)
H1 H -0.0519 0.5000 -0.2398
O1 O 0.2641(6) 0.2918(2) 0.2885(8)
O2 O -0.0020(6) 0.2335(2) -0.1930(8)
O3 O 0.0399(6) 0.3678(2) -0.1289(8)
O4 O -0.1687(6) 0.3347(2) -0.5332(7)
Al1 Al 0.0000 0.29518(14) 0.0000
Al2 Al 0.2500 0.2500 0.5000
H2 H 0.330(10) 0.324(3) 0.316(13)
H3 H 0.097(6) 0.239(4) -0.169(12)
C1A C 0.0511(9) 0.3757(3) -0.6427(13)
C1D C 0.0511(9) 0.6243(3) -0.6427(13)
C1E C -0.0511(9) 0.6243(3) -0.3573(13)
C2A C 0.0156(8) 0.4402(3) -0.5781(10)
C2D C 0.0156(8) 0.5598(3) -0.5781(10)
C2E C -0.0156(8) 0.5598(3) -0.4219(10)
C3A C 0.0307(12) 0.5000 -0.6542(17)
H1A H 0.0519 0.5000 -0.7602
O1A O -0.2641(6) 0.2918(2) -0.2885(8)
O1F O 0.2359(6) 0.2082(2) 0.7115(8)
O1A_2 O -0.2641(6) 0.2918(2) -1.2885(8)
O1_2 O 0.2641(6) 0.2918(2) -0.7115(8)
O1G O -0.2359(6) 0.2082(2) -0.7115(8)
O2A O 0.0020(6) 0.2335(2) 0.1930(8)
O2G O 0.4980(6) 0.2665(2) 0.8070(8)
O2A_2 O 0.0020(6) 0.2335(2) -0.8070(8)
O2_2 O -0.0020(6) 0.2335(2) -1.1930(8)
O2F O -0.4980(6) 0.2665(2) -0.8070(8)
O3A O -0.0399(6) 0.3678(2) -0.8711(8)
O3D O -0.0399(6) 0.6322(2) -0.8711(8)
O3E O 0.0399(6) 0.6322(2) -0.1289(8)
O3A_2 O -0.0399(6) 0.3678(2) 0.1289(8)
O3_2 O 0.0399(6) 0.3678(2) -1.1289(8)
O4A O 0.1687(6) 0.3347(2) -0.4668(7)
O4D O 0.1687(6) 0.6653(2) -0.4668(7)
O4E O -0.1687(6) 0.6653(2) -0.5332(7)
O4A_2 O 0.1687(6) 0.3347(2) 0.5332(7)
O4G O 0.3313(6) 0.1653(2) 0.4668(7)
O4F O -0.3313(6) 0.1653(2) -0.4668(7)
Al1_2 Al 0.0000 0.29518(14) -1.0000
Al1D Al 0.0000 0.70482(14) -1.0000
Al1D_2 Al 0.0000 0.70482(14) 0.0000
Al1F Al 0.5000 0.20482(14) 1.0000
Al2A Al -0.2500 0.2500 -0.5000
Al2_2 Al 0.2500 0.2500 -0.5000
Al2C Al 0.2500 0.7500 -0.5000
Al2B Al -0.2500 0.7500 -0.5000
Al2A_2 Al -0.2500 0.2500 -1.5000
H2A H -0.330(10) 0.324(3) -0.316(13)
H2F H 0.170(10) 0.176(3) 0.684(13)
H2A_2 H -0.330(10) 0.324(3) -1.316(13)
H2_2 H 0.330(10) 0.324(3) -0.684(13)
H2G H -0.170(10) 0.176(3) -0.684(13)
H3A H -0.097(6) 0.239(4) 0.169(12)
H3G H 0.597(6) 0.261(4) 0.831(12)
H3A_2 H -0.097(6) 0.239(4) -0.831(12)
H3_2 H 0.097(6) 0.239(4) -1.169(12)
H3F H -0.597(6) 0.261(4) -0.831(12)
O5 O 0.5000 0.4064(6) 0.5000
O6 O -0.5000 0.4007(7) -1.0000
O7 O -0.456(3) 0.5000 -1.189(4)
loop_
_geom_bond_atom_site_label_1
_geom_bond_atom_site_label_2
_geom_bond_site_symmetry_1
_geom_bond_site_symmetry_2
C1 C2 1_555 1_555
C2 C3 1_555 1_555
C3 H1 1_555 1_555
O1 Al1 1_555 1_555
O2 Al1 1_555 1_555
O3 C1 1_555 1_555
O4 C1 1_555 1_555
Al1 O3 1_555 1_555
Al2 O1 1_555 1_555
H2 O1 1_555 1_555
H3 O2 1_555 1_555
C1A C2A 1_555 1_555
C1D C2D 1_555 1_555
C1E C2E 1_555 1_555
C2A C2 1_555 1_555
C2D C2E 1_555 1_555
C2E C3 1_555 1_555
C3A C2A 1_555 1_555
H1A C3A 1_555 1_555
O1A Al1 1_555 1_555
O1F Al2 1_555 1_555
O1A_2 Al1_2 1_555 1_555
O1_2 Al1_2 1_555 1_555
O1G Al2A 1_555 1_555
O2A Al1 1_555 1_555
O2G Al2 1_555 1_555
O2A_2 Al1_2 1_555 1_555
O2_2 Al1_2 1_555 1_555
O2F Al2A 1_555 1_555
O3A C1A 1_555 1_555
O3D C1D 1_555 1_555
O3E C1E 1_555 1_555
O3A_2 Al1 1_555 1_555
O3_2 Al1_2 1_555 1_555
O4A C1A 1_555 1_555
O4D C1D 1_555 1_555
O4E C1E 1_555 1_555
O4A_2 Al2 1_555 1_555
O4G Al2 1_555 1_555
O4F Al2A 1_555 1_555
Al1_2 O3A 1_555 1_555
Al1D O3D 1_555 1_555
Al1D_2 O3E 1_555 1_555
Al1F O1F 1_555 1_555
Al2A O2 1_555 1_555
Al2_2 O1_2 1_555 1_555
Al2C O4D 1_555 1_555
Al2B O4E 1_555 1_555
Al2A_2 O1A_2 1_555 1_555
H2A O1A 1_555 1_555
H2F O1F 1_555 1_555
H2A_2 O1A_2 1_555 1_555
H2_2 O1_2 1_555 1_555
H2G O1G 1_555 1_555
H3A O2A 1_555 1_555
H3G O2G 1_555 1_555
H3A_2 O2A_2 1_555 1_555
H3_2 O2_2 1_555 1_555
H3F O2F 1_555 1_555
O4 Al2A 1_555 1_555
Al2 O2A 1_555 1_555
C2D C3A 1_555 1_555
O1A Al2A 1_555 1_555
O2G Al1F 1_555 1_555
O2A_2 Al2_2 1_555 1_555
O2_2 Al2A_2 1_555 1_555
O4A Al2_2 1_555 1_555

#END
