
#######################################################################
#
#                 Cambridge Crystallographic Data Centre
#                                CCDC 
#
#######################################################################
#
# If this CIF has been generated from an entry in the Cambridge 
# Structural Database, then it will include bibliographic, chemical, 
# crystal, experimental, refinement or atomic coordinate data resulting 
# from the CCDC's data processing and validation procedures.
#
#######################################################################

data_BUSQUC
_symmetry_cell_setting           monoclinic
_symmetry_space_group_name_H-M   'C 2/c'
_symmetry_Int_Tables_number      15
_space_group_name_Hall           '-C 2yn'
loop_
_symmetry_equiv_pos_site_id
_symmetry_equiv_pos_as_xyz
1 x,y,z
2 -x,y,1/2-z
3 1/2+x,1/2+y,z
4 1/2-x,1/2+y,1/2-z
5 -x,-y,-z
6 x,-y,1/2+z
7 1/2-x,1/2-y,-z
8 1/2+x,1/2-y,1/2+z
_cell_length_a                   17.094(3)
_cell_length_b                   19.605(3)
_cell_length_c                   11.782(2)
_cell_angle_alpha                90
_cell_angle_beta                 113.950(4)
_cell_angle_gamma                90
_cell_volume                     3608.51
loop_
_atom_site_label
_atom_site_type_symbol
_atom_site_fract_x
_atom_site_fract_y
_atom_site_fract_z
C1 C 0.5919(2) 0.87057(19) 0.7213(4)
C2 C 0.6421(3) 0.9300(2) 0.7062(4)
C3 C 0.7146(3) 0.9509(2) 0.8043(4)
H1 H 0.7330 0.9271 0.8790
C4 C 0.6152(3) 0.9652(2) 0.5924(4)
H2 H 0.5668 0.9503 0.5253
C5 C 0.7613(3) 1.0076(2) 0.7939(4)
C6 C 0.6584(3) 1.0201(3) 0.5787(4)
H3 H 0.6385 1.0432 0.5033
C7 C 0.7340(3) 1.0430(2) 0.6790(4)
C8 C 0.8358(3) 1.0312(3) 0.8952(5)
H4 H 0.8552 1.0079 0.9704
C9 C 0.8788(3) 1.0870(3) 0.8840(4)
H5 H 0.9262 1.1024 0.9522
C10 C 0.7809(3) 1.1002(2) 0.6692(4)
H6 H 0.7632 1.1234 0.5941
C11 C 0.8523(3) 1.1222(2) 0.7690(4)
C12 C 0.9016(3) 1.1829(2) 0.7585(4)
C13 C 0.6795(4) 0.7349(3) 1.1301(5)
H7 H 0.7001 0.7097 1.0812
C14 C 0.5878(4) 0.8135(3) 1.1452(5)
H8 H 0.5422 0.8432 1.1073
C15 C 0.7211(5) 0.7301(4) 1.2574(6)
H9 H 0.7677 0.7010 1.2935
C16 C 0.6278(5) 0.8132(5) 1.2738(5)
H10 H 0.6098 0.8431 1.3198
C17 C 0.6922(6) 0.7698(5) 1.3317(5)
C18 C 0.70144(14) 0.7479(10) 1.4609(7)
H11 H 0.6806 0.7017 1.4597
H12 H 0.6705 0.7784 1.4928
Cu1 Cu 0.54560(3) 0.77681(2) 0.87412(4)
N1 N 0.6108(2) 0.77425(19) 1.0741(3)
O1 O 0.61251(18) 0.84716(15) 0.8291(3)
O2 O 0.53181(18) 0.84880(15) 0.6236(3)
O3 O 0.9571(2) 1.20633(16) 0.8578(3)
O4 O 0.88409(19) 1.20554(16) 0.6499(3)
C1A C 0.4081(2) 0.87057(19) 0.7787(4)
C2A C 0.3579(3) 0.9300(2) 0.7938(4)
C3A C 0.2854(3) 0.9509(2) 0.6957(4)
H1A H 0.2670 0.9271 0.6210
C4A C 0.3848(3) 0.9652(2) 0.9076(4)
H2A H 0.4332 0.9503 0.9747
C5A C 0.2387(3) 1.0076(2) 0.7061(4)
C6A C 0.3416(3) 1.0201(3) 0.9213(4)
H3A H 0.3615 1.0432 0.9967
C7A C 0.2660(3) 1.0430(2) 0.8210(4)
C8A C 0.1642(3) 1.0312(3) 0.6048(5)
H4A H 0.1448 1.0079 0.5296
C9A C 0.1212(3) 1.0870(3) 0.6160(4)
H5A H 0.0738 1.1024 0.5478
C10A C 0.2191(3) 1.1002(2) 0.8308(4)
H6A H 0.2368 1.1234 0.9059
C11A C 0.1477(3) 1.1222(2) 0.7310(4)
C12A C 0.0984(3) 1.1829(2) 0.7415(4)
C13F C 0.8205(4) 0.7651(3) 1.8699(5)
H7F H 0.7999 0.7903 1.9188
C14F C 0.9122(4) 0.6865(3) 1.8548(5)
H8F H 0.9578 0.6568 1.8927
C15F C 0.7789(5) 0.7699(4) 1.7426(6)
H9F H 0.7323 0.7990 1.7065
C16F C 0.8722(5) 0.6868(5) 1.7262(5)
H10F H 0.8902 0.6569 1.6802
C17F C 0.8078(6) 0.7302(5) 1.6683(5)
C18F C 0.79856(14) 0.7521(10) 1.5391(7)
H11F H 0.8194 0.7983 1.5403
H12F H 0.8295 0.7216 1.5072
Cu1A Cu 0.45440(3) 0.77681(2) 0.62588(4)
Cu1B Cu 0.04560(3) 1.27681(2) 0.87412(4)
Cu1B_2 Cu 1.04560(3) 1.27681(2) 0.87412(4)
Cu1C Cu -0.04560(3) 1.27681(2) 0.62588(4)
Cu1C_2 Cu 0.95440(3) 1.27681(2) 0.62588(4)
Cu1F Cu 0.95440(3) 0.72319(2) 2.12588(4)
N1F N 0.8892(2) 0.72575(19) 1.9259(3)
N1A N 0.3892(2) 0.77425(19) 0.4259(3)
O1A O 0.38749(18) 0.84716(15) 0.6709(3)
O2A O 0.46819(18) 0.84880(15) 0.8764(3)
O3A O 0.0429(2) 1.20633(16) 0.6422(3)
O3B O 0.4571(2) 0.70633(16) 0.8578(3)
O3C O 0.5429(2) 0.70633(16) 0.6422(3)
O4A O 0.11591(19) 1.20554(16) 0.8501(3)
O4B O 0.38409(19) 0.70554(16) 0.6499(3)
O4C O 0.61591(19) 0.70554(16) 0.8501(3)
O5 O 1.0000 1.0622(16) 1.2500
H13 H 1.0431 1.0886 1.2529
H13A H 0.9569 1.0886 1.2471
loop_
_geom_bond_atom_site_label_1
_geom_bond_atom_site_label_2
_geom_bond_site_symmetry_1
_geom_bond_site_symmetry_2
C1 C2 1_555 1_555
C2 C3 1_555 1_555
C3 H1 1_555 1_555
C4 C2 1_555 1_555
H2 C4 1_555 1_555
C5 C3 1_555 1_555
C6 C4 1_555 1_555
H3 C6 1_555 1_555
C7 C5 1_555 1_555
C8 C5 1_555 1_555
H4 C8 1_555 1_555
C9 C8 1_555 1_555
H5 C9 1_555 1_555
C10 C7 1_555 1_555
H6 C10 1_555 1_555
C11 C9 1_555 1_555
C12 C11 1_555 1_555
C13 H7 1_555 1_555
C14 H8 1_555 1_555
C15 C13 1_555 1_555
H9 C15 1_555 1_555
C16 C14 1_555 1_555
H10 C16 1_555 1_555
C17 C15 1_555 1_555
C18 C17 1_555 1_555
H11 C18 1_555 1_555
H12 C18 1_555 1_555
Cu1 N1 1_555 1_555
N1 C13 1_555 1_555
O1 C1 1_555 1_555
O2 C1 1_555 1_555
O3 C12 1_555 1_555
O4 C12 1_555 1_555
O5 H13 1_555 1_555
C1A C2A 1_555 1_555
C2A C3A 1_555 1_555
C3A H1A 1_555 1_555
C4A C2A 1_555 1_555
H2A C4A 1_555 1_555
C5A C3A 1_555 1_555
C6A C4A 1_555 1_555
H3A C6A 1_555 1_555
C7A C5A 1_555 1_555
C8A C5A 1_555 1_555
H4A C8A 1_555 1_555
C9A C8A 1_555 1_555
H5A C9A 1_555 1_555
C10A C7A 1_555 1_555
H6A C10A 1_555 1_555
C11A C9A 1_555 1_555
C12A C11A 1_555 1_555
C13F H7F 1_555 1_555
C14F H8F 1_555 1_555
C15F C13F 1_555 1_555
H9F C15F 1_555 1_555
C16F C14F 1_555 1_555
H10F C16F 1_555 1_555
C17F C15F 1_555 1_555
C18F C18 1_555 1_555
H11F C18F 1_555 1_555
H12F C18F 1_555 1_555
Cu1A Cu1 1_555 1_555
Cu1B Cu1C 1_555 1_555
Cu1B_2 O3 1_555 1_555
Cu1C O3A 1_555 1_555
Cu1C_2 O4 1_555 1_555
Cu1F N1F 1_555 1_555
N1F C13F 1_555 1_555
N1A Cu1A 1_555 1_555
O1A C1A 1_555 1_555
O2A Cu1 1_555 1_555
O3A C12A 1_555 1_555
O3B Cu1 1_555 1_555
O3C Cu1A 1_555 1_555
O4A C12A 1_555 1_555
O4B Cu1A 1_555 1_555
O4C Cu1 1_555 1_555
H13A O5 1_555 1_555
C6 C7 1_555 1_555
C10 C11 1_555 1_555
C14 N1 1_555 1_555
C16 C17 1_555 1_555
Cu1 O1 1_555 1_555
O2 Cu1A 1_555 1_555
C1A O2A 1_555 1_555
C6A C7A 1_555 1_555
C10A C11A 1_555 1_555
C14F N1F 1_555 1_555
C16F C17F 1_555 1_555
C17F C18F 1_555 1_555
Cu1A O1A 1_555 1_555
Cu1B O4A 1_555 1_555
Cu1B_2 Cu1C_2 1_555 1_555

#END
