
#######################################################################
#
#                 Cambridge Crystallographic Data Centre
#                                CCDC 
#
#######################################################################
#
# If this CIF has been generated from an entry in the Cambridge 
# Structural Database, then it will include bibliographic, chemical, 
# crystal, experimental, refinement or atomic coordinate data resulting 
# from the CCDC's data processing and validation procedures.
#
#######################################################################

data_BUWGEG
_symmetry_cell_setting           monoclinic
_symmetry_space_group_name_H-M   'P 21/c'
_symmetry_Int_Tables_number      14
_space_group_name_Hall           '-P 2ybc'
loop_
_symmetry_equiv_pos_site_id
_symmetry_equiv_pos_as_xyz
1 x,y,z
2 -x,1/2+y,1/2-z
3 -x,-y,-z
4 x,1/2-y,1/2+z
_cell_length_a                   4.651(2)
_cell_length_b                   34.683(4)
_cell_length_c                   10.812(1)
_cell_angle_alpha                90
_cell_angle_beta                 95.80(2)
_cell_angle_gamma                90
_cell_volume                     1735.16
loop_
_atom_site_label
_atom_site_type_symbol
_atom_site_fract_x
_atom_site_fract_y
_atom_site_fract_z
Cu1 Cu 0.91605 0.19795 0.88529
O1 O 0.68291 0.18978 0.72015
C1 C 0.5708 0.21019 0.63233
O2 O 0.49513 0.19935 0.52551
C2 C 0.6602 0.24915 0.69669
N1 N 0.81472 0.24775 0.80618
C3 C 0.91119 0.28107 0.86186
C4 C 0.81301 0.31565 0.80664
N2 N 0.6549 0.31728 0.69965
C5 C 0.56732 0.28436 0.64376
C6 C 0.37398 0.28621 0.52126
O3 O 0.45077 0.30329 0.43632
O4 O 0.12249 0.27081 0.51264
C7 C 1.06033 0.08326 0.90149
C8 C 0.96813 0.12215 0.88337
N3 N 1.11641 0.1513 0.94685
C9 C 1.38438 0.14497 1.00157
C10 C 1.49757 0.10795 1.00588
C11 C 1.32346 0.0775 0.97385
C12 C 1.44092 0.03678 0.98731
N4 N 1.44835 0.01438 0.88598
N5 N 1.5279 0.02319 1.1001
H1 H 1.0504 0.2793 0.9302
H2 H 0.8564 0.3392 0.8543
H3 H 0.9467 0.0619 0.8666
H4 H 0.8102 0.1255 0.8207
H5 H 1.4934 0.1663 1.031
H6 H 1.6953 0.104 1.0425
Cu1C Cu 0.91605 0.30205 1.38529
Cu1C_2 Cu 0.91605 0.30205 0.38529
Cu1C_3 Cu -0.08395 0.30205 0.38529
Cu1B Cu 2.08395 -0.19795 1.11471
Cu1_2 Cu -0.08395 0.19795 0.88529
O1C O 0.68291 0.31022 1.22015
C1C C 0.5708 0.28981 1.13233
O2C O 0.49513 0.30065 1.02551
C2C C 0.6602 0.25085 1.19669
N1C N 0.81472 0.25225 1.30618
C3C C 0.91119 0.21893 1.36186
C4C C 0.81301 0.18435 1.30664
N2C N 0.6549 0.18272 1.19965
C5C C 0.56732 0.21564 1.14376
C6C C 0.37398 0.21379 1.02126
O3C O 0.45077 0.19671 0.93632
O3_2 O 0.45077 0.30329 1.43632
O4C O 0.12249 0.22919 1.01264
O4C_2 O 1.12249 0.22919 1.01264
O4_2 O 1.12249 0.27081 1.51264
C7B C 1.93967 -0.08326 1.09851
C8B C 2.03187 -0.12215 1.11663
N3B N 1.88359 -0.1513 1.05315
N3C N 1.11641 0.3487 1.44685
C9B C 1.61562 -0.14497 0.99843
C10B C 1.50243 -0.10795 0.99412
C11B C 1.67654 -0.0775 1.02615
C12B C 1.55908 -0.03678 1.01269
N4B N 1.55165 -0.01438 1.11402
N5B N 1.4721 -0.02319 0.8999
H1C H 1.0504 0.2207 1.4302
H2C H 0.8564 0.1608 1.3543
H3B H 2.0533 -0.0619 1.1334
H4B H 2.1898 -0.1255 1.1793
H5B H 1.5066 -0.1663 0.969
H6B H 1.3047 -0.104 0.9575
loop_
_geom_bond_atom_site_label_1
_geom_bond_atom_site_label_2
_geom_bond_site_symmetry_1
_geom_bond_site_symmetry_2
Cu1 O1 1_555 1_555
O1 C1 1_555 1_555
C1 O2 1_555 1_555
C2 C1 1_555 1_555
N1 Cu1 1_555 1_555
C3 N1 1_555 1_555
C4 C3 1_555 1_555
N2 C4 1_555 1_555
C5 C2 1_555 1_555
C6 C5 1_555 1_555
O3 C6 1_555 1_555
O4 C6 1_555 1_555
C7 C8 1_555 1_555
C8 N3 1_555 1_555
N3 Cu1 1_555 1_555
C9 N3 1_555 1_555
C10 C9 1_555 1_555
C11 C7 1_555 1_555
C12 C11 1_555 1_555
N4 C12 1_555 1_555
N5 C12 1_555 1_555
H1 C3 1_555 1_555
H2 C4 1_555 1_555
H3 C7 1_555 1_555
H4 C8 1_555 1_555
H5 C9 1_555 1_555
H6 C10 1_555 1_555
Cu1C O1C 1_555 1_555
Cu1C_2 O3 1_555 1_555
Cu1C_3 O4 1_555 1_555
Cu1B N3B 1_555 1_555
Cu1_2 O4C 1_555 1_555
O1C C1C 1_555 1_555
C1C O2C 1_555 1_555
C2C C1C 1_555 1_555
N1C Cu1C 1_555 1_555
C3C N1C 1_555 1_555
C4C C3C 1_555 1_555
N2C C4C 1_555 1_555
C5C C2C 1_555 1_555
C6C C5C 1_555 1_555
O3C Cu1 1_555 1_555
O3_2 Cu1C 1_555 1_555
O4C C6C 1_555 1_555
O4C_2 Cu1 1_555 1_555
O4_2 Cu1C 1_555 1_555
C7B C8B 1_555 1_555
C8B N3B 1_555 1_555
N3B C9B 1_555 1_555
N3C Cu1C 1_555 1_555
C9B C10B 1_555 1_555
C10B C11B 1_555 1_555
C11B C7B 1_555 1_555
C12B C11B 1_555 1_555
N4B N5 1_555 1_555
N5B N4 1_555 1_555
H1C C3C 1_555 1_555
H2C C4C 1_555 1_555
H3B C7B 1_555 1_555
H4B C8B 1_555 1_555
H5B C9B 1_555 1_555
H6B C10B 1_555 1_555
C2 N1 1_555 1_555
N2 C5 1_555 1_555
C10 C11 1_555 1_555
C2C N1C 1_555 1_555
N2C C5C 1_555 1_555
C6C O3C 1_555 1_555
C12B N4B 1_555 1_555
C12B N5B 1_555 1_555

#END
