
#######################################################################
#
#                 Cambridge Crystallographic Data Centre
#                                CCDC 
#
#######################################################################
#
# If this CIF has been generated from an entry in the Cambridge 
# Structural Database, then it will include bibliographic, chemical, 
# crystal, experimental, refinement or atomic coordinate data resulting 
# from the CCDC's data processing and validation procedures.
#
#######################################################################

data_CABQEB
_symmetry_cell_setting           tetragonal
_symmetry_space_group_name_H-M   'I 41/a'
_symmetry_Int_Tables_number      88
_space_group_name_Hall           '-I 4ad'
loop_
_symmetry_equiv_pos_site_id
_symmetry_equiv_pos_as_xyz
1 x,y,z
2 3/4-y,1/4+x,1/4+z
3 1/2-x,-y,1/2+z
4 3/4+y,3/4-x,3/4+z
5 1/2+x,1/2+y,1/2+z
6 1/4-y,3/4+x,3/4+z
7 -x,1/2-y,z
8 1/4+y,1/4-x,1/4+z
9 -x,-y,-z
10 1/4+y,3/4-x,3/4-z
11 1/2+x,y,1/2-z
12 1/4-y,1/4+x,1/4-z
13 1/2-x,1/2-y,1/2-z
14 3/4+y,1/4-x,1/4-z
15 x,1/2+y,-z
16 3/4-y,3/4+x,3/4-z
_cell_length_a                   23.693(2)
_cell_length_b                   23.693(2)
_cell_length_c                   11.565(5)
_cell_angle_alpha                90
_cell_angle_beta                 90
_cell_angle_gamma                90
_cell_volume                     6492.11
loop_
_atom_site_label
_atom_site_type_symbol
_atom_site_fract_x
_atom_site_fract_y
_atom_site_fract_z
Co1 Co 0.2228(1) 0.5520(1) -0.0254(1)
Co2 Co 0.0000 0.5000 0.0000
Co3 Co 0.1277(1) 0.4601(1) 0.0024(1)
O1 O 0.1693(2) 0.5211(2) 0.0935(6)
O2 O 0.2048(3) 0.4691(3) -0.0946(6)
O3 O 0.1126(3) 0.4689(3) 0.2850(7)
O4 O 0.0599(3) 0.4653(3) 0.1220(7)
O5 O 0.1515(3) 0.5775(3) -0.1371(6)
O6 O 0.0788(2) 0.5270(3) -0.0762(6)
O7 O 0.0924(3) 0.4012(3) -0.1005(7)
O8 O 0.0025(3) 0.4285(3) -0.0969(8)
O9 O 0.2869(3) 0.4552(3) -0.1795(7)
C1 C 0.2407(4) 0.4374(4) -0.1452(8)
C2 C 0.2264(6) 0.3758(4) -0.162(2)
C3 C 0.0665(4) 0.4715(4) 0.232(1)
C4 C 0.0156(8) 0.4817(5) 0.307(1)
C5 C 0.0996(4) 0.5722(4) -0.115(1)
C6 C 0.0618(5) 0.6224(5) -0.137(1)
C7 C 0.0413(5) 0.3955(5) -0.128(1)
C8 C 0.0272(6) 0.3481(7) -0.207(2)
H1 H 0.1467 0.5463 0.1175
H2 H 0.2573 0.3525 -0.1365
H3 H 0.2186 0.3688 -0.2417
H4 H 0.1932 0.3668 -0.1177
H5 H -0.0001 0.4465 0.3329
H6 H -0.0129 0.5014 0.2639
H7 H 0.0266 0.5039 0.3728
H8 H 0.0675 0.6360 -0.2142
H9 H 0.0719 0.6520 -0.0841
H10 H 0.0230 0.6123 -0.1260
H11 H 0.0581 0.3423 -0.2597
H12 H 0.0228 0.3146 -0.1616
H13 H -0.0068 0.3552 -0.2502
O3H O -0.1126(3) 0.5311(3) -0.2850(7)
O4H O -0.0599(3) 0.5347(3) -0.1220(7)
C3H C -0.0665(4) 0.5285(4) -0.232(1)
C4H C -0.0156(8) 0.5183(5) -0.307(1)
H5H H 0.0001 0.5535 -0.3329
H6H H 0.0129 0.4986 -0.2639
H7H H -0.0266 0.4961 -0.3728
O5H O -0.1515(3) 0.4225(3) 0.1371(6)
O6H O -0.0788(2) 0.4730(3) 0.0762(6)
C5H C -0.0996(4) 0.4278(4) 0.115(1)
C6H C -0.0618(5) 0.3776(5) 0.137(1)
H8H H -0.0675 0.3640 0.2142
H9H H -0.0719 0.3480 0.0841
H10H H -0.0230 0.3877 0.1260
O7H O -0.0924(3) 0.5988(3) 0.1005(7)
O8H O -0.0025(3) 0.5715(3) 0.0969(8)
C7H C -0.0413(5) 0.6045(5) 0.128(1)
C8H C -0.0272(6) 0.6519(7) 0.207(2)
H11H H -0.0581 0.6577 0.2597
H12H H -0.0228 0.6854 0.1616
H13H H 0.0068 0.6448 0.2502
Co1I Co -0.1980(1) 0.5272(1) -0.2246(1)
Co1A Co 0.1980(1) 0.4728(1) 0.2246(1)
Co1H Co -0.2228(1) 0.4480(1) 0.0254(1)
Co3H Co -0.1277(1) 0.5399(1) -0.0024(1)
Co3C Co 0.2101(1) 0.6223(1) -0.2476(1)
Co3K Co -0.2101(1) 0.3777(1) 0.2476(1)
O5A O 0.1725(3) 0.4015(3) 0.1129(6)
O9A O 0.2948(3) 0.5369(3) 0.0705(7)
O1H O -0.1693(2) 0.4789(2) -0.0935(6)
H1H H -0.1467 0.4537 -0.1175
O9I O -0.2948(3) 0.4631(3) -0.0705(7)
O5I O -0.1725(3) 0.5985(3) -0.1129(6)
O2H O -0.2048(3) 0.5309(3) 0.0946(6)
O9H O -0.2869(3) 0.5448(3) 0.1795(7)
C1H C -0.2407(4) 0.5626(4) 0.1452(8)
C2H C -0.2264(6) 0.6242(4) 0.162(2)
H2H H -0.2573 0.6475 0.1365
H3H H -0.2186 0.6312 0.2417
H4H H -0.1932 0.6332 0.1177
Co1C Co 0.3020(1) 0.5272(1) -0.2754(1)
Co1K Co -0.3020(1) 0.4728(1) 0.2754(1)
O1C O 0.2711(2) 0.5807(2) -0.1565(6)
O3C O 0.2189(3) 0.6374(3) 0.0350(7)
O1K O -0.2711(2) 0.4193(2) 0.1565(6)
O3K O -0.2189(3) 0.3626(3) -0.0350(7)
H1C H 0.2963 0.6033 -0.1325
H1K H -0.2963 0.3967 0.1325
O10 O 0.1242(8) 0.6183(7) 0.214(2)
loop_
_geom_bond_atom_site_label_1
_geom_bond_atom_site_label_2
_geom_bond_site_symmetry_1
_geom_bond_site_symmetry_2
Co1 O1 1_555 1_555
Co2 O4 1_555 1_555
Co3 O1 1_555 1_555
O1 H1 1_555 1_555
O2 Co1 1_555 1_555
O3 C3 1_555 1_555
O4 Co3 1_555 1_555
O5 Co1 1_555 1_555
O6 Co2 1_555 1_555
O7 Co3 1_555 1_555
O8 Co2 1_555 1_555
O9 C1 1_555 1_555
C1 O2 1_555 1_555
C2 C1 1_555 1_555
C3 O4 1_555 1_555
C4 C3 1_555 1_555
C5 O5 1_555 1_555
C6 C5 1_555 1_555
C7 O7 1_555 1_555
C8 C7 1_555 1_555
H2 C2 1_555 1_555
H3 C2 1_555 1_555
H4 C2 1_555 1_555
H5 C4 1_555 1_555
H6 C4 1_555 1_555
H7 C4 1_555 1_555
H8 C6 1_555 1_555
H9 C6 1_555 1_555
H10 C6 1_555 1_555
H11 C8 1_555 1_555
H12 C8 1_555 1_555
H13 C8 1_555 1_555
O3H C3H 1_555 1_555
O4H Co2 1_555 1_555
C3H O4H 1_555 1_555
C4H C3H 1_555 1_555
H5H C4H 1_555 1_555
H6H C4H 1_555 1_555
H7H C4H 1_555 1_555
O5H C5H 1_555 1_555
O6H Co2 1_555 1_555
C5H O6H 1_555 1_555
C6H C5H 1_555 1_555
H8H C6H 1_555 1_555
H9H C6H 1_555 1_555
H10H C6H 1_555 1_555
O7H C7H 1_555 1_555
O8H Co2 1_555 1_555
C7H O8H 1_555 1_555
C8H C7H 1_555 1_555
H11H C8H 1_555 1_555
H12H C8H 1_555 1_555
H13H C8H 1_555 1_555
Co1I O3H 1_555 1_555
Co1A O1 1_555 1_555
Co1H O5H 1_555 1_555
Co3H O4H 1_555 1_555
Co3C O5 1_555 1_555
Co3K O5H 1_555 1_555
O5A Co3 1_555 1_555
O9A Co1 1_555 1_555
O1H Co1I 1_555 1_555
H1H O1H 1_555 1_555
O9I Co1H 1_555 1_555
O5I Co1I 1_555 1_555
O2H Co1H 1_555 1_555
O9H C1H 1_555 1_555
C1H O2H 1_555 1_555
C2H C1H 1_555 1_555
H2H C2H 1_555 1_555
H3H C2H 1_555 1_555
H4H C2H 1_555 1_555
Co1C O9 1_555 1_555
Co1K O9H 1_555 1_555
O1C Co1 1_555 1_555
O3C Co1 1_555 1_555
O1K Co1H 1_555 1_555
O3K Co1H 1_555 1_555
H1C O1C 1_555 1_555
H1K O1K 1_555 1_555
Co3 O2 1_555 1_555
Co3 O6 1_555 1_555
O3 Co1A 1_555 1_555
O6 C5 1_555 1_555
O8 C7 1_555 1_555
O6H Co3H 1_555 1_555
O7H Co3H 1_555 1_555
Co1A O5A 1_555 1_555
Co1H O1H 1_555 1_555
Co3H O2H 1_555 1_555
Co3H O1H 1_555 1_555
Co3H O5I 1_555 1_555
Co3C O1C 1_555 1_555
Co3K O1K 1_555 1_555
Co1C O1C 1_555 1_555
Co1K O1K 1_555 1_555

#END
