
#######################################################################
#
#                 Cambridge Crystallographic Data Centre
#                                CCDC 
#
#######################################################################
#
# If this CIF has been generated from an entry in the Cambridge 
# Structural Database, then it will include bibliographic, chemical, 
# crystal, experimental, refinement or atomic coordinate data resulting 
# from the CCDC's data processing and validation procedures.
#
#######################################################################

data_CAQCAZ
_symmetry_cell_setting           monoclinic
_symmetry_space_group_name_H-M   'P 21/c'
_symmetry_Int_Tables_number      14
_space_group_name_Hall           '-P 2ybc'
loop_
_symmetry_equiv_pos_site_id
_symmetry_equiv_pos_as_xyz
1 x,y,z
2 -x,1/2+y,1/2-z
3 -x,-y,-z
4 x,1/2-y,1/2+z
_cell_length_a                   7.2104(13)
_cell_length_b                   13.637(2)
_cell_length_c                   17.379(3)
_cell_angle_alpha                90.00
_cell_angle_beta                 100.657(7)
_cell_angle_gamma                90.00
_cell_volume                     1679.37
loop_
_atom_site_label
_atom_site_type_symbol
_atom_site_fract_x
_atom_site_fract_y
_atom_site_fract_z
N1 N 0.812(5) 0.080(3) 0.1140(19)
C11 C 0.949(4) 0.039(3) 0.173(2)
C12 C 1.145(5) 0.043(3) 0.171(2)
C13 C 1.238(5) 0.084(3) 0.115(2)
C14 C 1.102(4) 0.128(3) 0.057(2)
C15 C 0.907(5) 0.124(3) 0.060(2)
C16 C 1.445(5) 0.062(5) 0.140(3)
C17 C 1.549(9) 0.100(5) 0.080(4)
In1 In 0.46697(8) 0.09877(4) 0.44673(4)
In2 In 1.0000 0.0000 0.5000
O1 O 0.5741(9) 0.1584(5) 0.5619(4)
O2 O 0.6809(9) 0.0197(4) 0.6258(4)
O3 O 0.9862(9) 0.1200(4) 0.5738(3)
O4 O 1.2545(9) 0.1113(5) 0.6624(4)
O5 O 1.2322(9) 0.3063(5) 0.9131(4)
O6 O 0.9762(9) 0.4048(5) 0.9003(4)
O7 O 0.6639(10) 0.2808(5) 0.9219(4)
O8 O 0.5323(10) 0.3760(5) 0.8256(4)
O9 O 0.6913(8) -0.0123(4) 0.4713(4)
C1 C 0.7796(12) 0.1702(7) 0.6844(5)
C2 C 0.9762(12) 0.1776(6) 0.6996(5)
C3 C 1.0691(12) 0.2246(7) 0.7659(5)
H1 H 1.2031 0.2267 0.7771
C4 C 0.9651(12) 0.2687(6) 0.8160(5)
C5 C 0.7664(13) 0.2631(7) 0.7999(5)
C6 C 0.6753(12) 0.2141(6) 0.7343(5)
H2 H 0.5415 0.2104 0.7234
C7 C 0.6718(12) 0.1118(7) 0.6175(5)
C8 C 1.0856(13) 0.1329(7) 0.6415(6)
C9 C 1.0640(13) 0.3318(6) 0.8826(5)
C10 C 0.6502(13) 0.3105(7) 0.8525(5)
In1B In 1.53303(8) -0.09877(4) 0.55327(4)
In1B_2 In 0.53303(8) -0.09877(4) 0.55327(4)
In1C In 1.46697(8) 0.40123(4) 0.94673(4)
In1C_2 In 0.46697(8) 0.40123(4) 0.94673(4)
In1_2 In 1.46697(8) 0.09877(4) 0.44673(4)
In1A In 0.53303(8) -0.40123(4) 0.05327(4)
In1A_2 In 1.53303(8) -0.40123(4) 0.05327(4)
In2C In 1.0000 0.5000 1.0000
In2C_2 In 1.0000 -0.5000 0.0000
O1B O 1.4259(9) -0.1584(5) 0.4381(4)
O2B O 1.3191(9) -0.0197(4) 0.3742(4)
O2B_2 O 0.3191(9) -0.0197(4) 0.3742(4)
O2_2 O 1.6809(9) 0.0197(4) 0.6258(4)
O3B O 1.0138(9) -0.1200(4) 0.4262(3)
O4B O 0.7455(9) -0.1113(5) 0.3376(4)
O5B O 0.7678(9) -0.3063(5) 0.0869(4)
O5C O 0.2322(9) 0.1937(5) 0.4131(4)
O5A O 1.7678(9) -0.1937(5) 0.5869(4)
O6B O 1.0238(9) -0.4048(5) 0.0997(4)
O6C O 0.9762(9) 0.0952(5) 0.4003(4)
O6A O 1.0238(9) -0.0952(5) 0.5997(4)
O7B O 1.3361(10) -0.2808(5) 0.0781(4)
O7C O 0.6639(10) 0.2192(5) 0.4219(4)
O7A O 1.3361(10) -0.2192(5) 0.5781(4)
O8B O 1.4677(10) -0.3760(5) 0.1744(4)
O8C O 0.5323(10) 0.1240(5) 0.3256(4)
O8A O 1.4677(10) -0.1240(5) 0.6744(4)
O9B O 1.3087(8) 0.0123(4) 0.5287(4)
O9B_2 O 0.3087(8) 0.0123(4) 0.5287(4)
O9_2 O 1.6913(8) -0.0123(4) 0.4713(4)
C1B C 1.2204(12) -0.1702(7) 0.3156(5)
C2B C 1.0238(12) -0.1776(6) 0.3004(5)
C3B C 0.9309(12) -0.2246(7) 0.2341(5)
H1B H 0.7969 -0.2267 0.2229
C4B C 1.0349(12) -0.2687(6) 0.1840(5)
C5B C 1.2336(13) -0.2631(7) 0.2001(5)
C6B C 1.3247(12) -0.2141(6) 0.2657(5)
H2B H 1.4585 -0.2104 0.2766
C7B C 1.3282(12) -0.1118(7) 0.3825(5)
C8B C 0.9144(13) -0.1329(7) 0.3585(6)
C9B C 0.9360(13) -0.3318(6) 0.1174(5)
C10B C 1.3498(13) -0.3105(7) 0.1475(5)
loop_
_geom_bond_atom_site_label_1
_geom_bond_atom_site_label_2
_geom_bond_site_symmetry_1
_geom_bond_site_symmetry_2
In1 O1 1_555 1_555
In2 O3 1_555 1_555
O1 C7 1_555 1_555
O2 C7 1_555 1_555
O3 C8 1_555 1_555
O4 C8 1_555 1_555
O5 C9 1_555 1_555
O6 C9 1_555 1_555
O7 C10 1_555 1_555
O8 C10 1_555 1_555
O9 In1 1_555 1_555
N1 C11 1_555 1_555
C1 C2 1_555 1_555
C2 C3 1_555 1_555
C3 H1 1_555 1_555
C4 C3 1_555 1_555
C5 C4 1_555 1_555
C6 C1 1_555 1_555
H2 C6 1_555 1_555
C7 C1 1_555 1_555
C8 C2 1_555 1_555
C9 C4 1_555 1_555
C10 C5 1_555 1_555
C11 C12 1_555 1_555
C12 C13 1_555 1_555
C13 C14 1_555 1_555
C14 C15 1_555 1_555
C15 N1 1_555 1_555
C16 C13 1_555 1_555
C17 C16 1_555 1_555
In1B O1B 1_555 1_555
In1B_2 O2 1_555 1_555
In1C O5 1_555 1_555
In1C_2 O7 1_555 1_555
In1_2 O2B 1_555 1_555
In1A O5B 1_555 1_555
In1A_2 O7B 1_555 1_555
In2C O6 1_555 1_555
In2C_2 O6B 1_555 1_555
O1B C7B 1_555 1_555
O2B C7B 1_555 1_555
O2B_2 In1 1_555 1_555
O2_2 In1B 1_555 1_555
O3B In2 1_555 1_555
O4B C8B 1_555 1_555
O5B C9B 1_555 1_555
O5C In1 1_555 1_555
O5A In1B 1_555 1_555
O6B C9B 1_555 1_555
O6C In2 1_555 1_555
O6A In2 1_555 1_555
O7B C10B 1_555 1_555
O7C In1 1_555 1_555
O7A In1B 1_555 1_555
O8B In1A_2 1_555 1_555
O8C In1 1_555 1_555
O8A In1B 1_555 1_555
O9B In2 1_555 1_555
O9B_2 In1 1_555 1_555
O9_2 In1B 1_555 1_555
C1B C2B 1_555 1_555
C2B C3B 1_555 1_555
C3B H1B 1_555 1_555
C4B C3B 1_555 1_555
C5B C4B 1_555 1_555
C6B C1B 1_555 1_555
H2B C6B 1_555 1_555
C7B C1B 1_555 1_555
C8B O3B 1_555 1_555
C9B C4B 1_555 1_555
C10B O8B 1_555 1_555
In2 O9 1_555 1_555
O8 In1C_2 1_555 1_555
O9 In1B_2 1_555 1_555
C5 C6 1_555 1_555
In1B O9B 1_555 1_555
In1B_2 O9B_2 1_555 1_555
In1_2 O9B 1_555 1_555
In1_2 O9_2 1_555 1_555
C2B C8B 1_555 1_555
C5B C6B 1_555 1_555
C5B C10B 1_555 1_555

#END
