
#######################################################################
#
#                 Cambridge Crystallographic Data Centre
#                                CCDC 
#
#######################################################################
#
# If this CIF has been generated from an entry in the Cambridge 
# Structural Database, then it will include bibliographic, chemical, 
# crystal, experimental, refinement or atomic coordinate data resulting 
# from the CCDC's data processing and validation procedures.
#
#######################################################################

data_CAVLIW
_symmetry_cell_setting           cubic
_symmetry_space_group_name_H-M   'I 21 3'
_symmetry_Int_Tables_number      199
_space_group_name_Hall           'I 2b 2c 3'
loop_
_symmetry_equiv_pos_site_id
_symmetry_equiv_pos_as_xyz
1 x,y,z
2 1/2-x,-y,1/2+z
3 -x,1/2+y,1/2-z
4 1/2+x,1/2-y,-z
5 z,x,y
6 1/2+z,1/2-x,-y
7 1/2-z,-x,1/2+y
8 -z,1/2+x,1/2-y
9 y,z,x
10 -y,1/2+z,1/2-x
11 1/2+y,1/2-z,-x
12 1/2-y,-z,1/2+x
13 1/2+x,1/2+y,1/2+z
14 -x,1/2-y,z
15 1/2-x,y,-z
16 x,-y,1/2-z
17 1/2+z,1/2+x,1/2+y
18 z,-x,1/2-y
19 -z,1/2-x,y
20 1/2-z,x,-y
21 1/2+y,1/2+z,1/2+x
22 1/2-y,z,-x
23 y,-z,1/2-x
24 -y,1/2-z,x
_cell_length_a                   17.1078(9)
_cell_length_b                   17.1078(9)
_cell_length_c                   17.1078(9)
_cell_angle_alpha                90
_cell_angle_beta                 90
_cell_angle_gamma                90
_cell_volume                     5007.06
loop_
_atom_site_label
_atom_site_type_symbol
_atom_site_fract_x
_atom_site_fract_y
_atom_site_fract_z
Ca1 Ca 0.66297(4) 0.33703(4) 0.83703(4)
P1 P 0.54508(5) 0.04508(5) 0.45492(5)
O1 O 0.6509(2) 0.33082(15) 0.70539(17)
O2 O 0.65384(17) 0.39721(16) 0.59537(17)
O3 O 0.6727(4) 0.3282(11) 0.9691(4)
H1 H 0.6445(15) 0.3590(18) 0.997(2)
H2 H 0.7169(10) 0.3465(17) 0.980(2)
C1 C 0.4854(2) -0.0146(2) 0.5146(2)
H3 H 0.4728 -0.0551 0.4899
C2 C 0.6446(2) 0.3358(2) 0.6344(2)
C3 C 0.57210(19) 0.13108(19) 0.5890(2)
H4 H 0.5551 0.0862 0.6170
C4 C 0.6212(2) 0.2642(2) 0.5899(2)
C5 C 0.5965(2) 0.1967(2) 0.46908(19)
H5 H 0.5962 0.1974 0.4136
C6 C 0.57321(19) 0.13101(17) 0.50753(19)
C7 C 0.6207(2) 0.2632(2) 0.5098(2)
H6 H 0.6371 0.3082 0.4817
C8 C 0.5963(2) 0.1980(2) 0.6288(2)
H7 H 0.5956 0.1981 0.6844
Ca1C Ca 0.16297(4) 0.16297(4) 0.16297(4)
Ca1A Ca 0.83703(4) -0.33703(4) 0.33703(4)
O1G O 0.29461(17) 0.1509(2) 0.16918(15)
O1J O 0.83082(15) -0.20539(17) 0.3491(2)
O1I O 0.66918(15) 0.20539(17) 0.8491(2)
O1F O 0.79461(17) 0.3491(2) 0.83082(15)
O2G O 0.40463(17) 0.15384(17) 0.10279(16)
O2J O 0.89721(16) -0.09537(17) 0.34616(17)
O3F O 0.5309(4) 0.3273(4) 0.8282(11)
O3I O 0.6718(11) 0.4691(4) 0.8273(4)
H1F H 0.503(2) 0.3555(15) 0.8590(18)
H1I H 0.6410(18) 0.497(2) 0.8555(15)
H2F H 0.520(2) 0.2831(10) 0.8465(17)
H2I H 0.6535(17) 0.480(2) 0.7831(10)
H3G H 0.5101 -0.0272 0.5551
H3J H 0.4449 0.0101 0.5272
C2G C 0.3656(2) 0.1446(2) 0.1642(2)
C2J C 0.8358(2) -0.1344(2) 0.3554(2)
C3G C 0.4110(2) 0.07210(19) 0.36892(19)
C3J C 0.63108(19) -0.0890(2) 0.42790(19)
H4G H 0.3830 0.0551 0.4138
H4J H 0.5862 -0.1170 0.4449
C4G C 0.4101(2) 0.1212(2) 0.2358(2)
C4J C 0.7642(2) -0.0899(2) 0.3788(2)
C5G C 0.53092(19) 0.0965(2) 0.3033(2)
C5J C 0.6967(2) 0.03092(19) 0.4035(2)
H5G H 0.5864 0.0962 0.3026
H5J H 0.6974 0.0864 0.4038
C6G C 0.49247(19) 0.07321(19) 0.36899(17)
C6J C 0.63101(17) -0.00753(19) 0.42679(19)
C7G C 0.4902(2) 0.1207(2) 0.2368(2)
C7J C 0.7632(2) -0.0098(2) 0.3793(2)
H6G H 0.5183 0.1371 0.1918
H6J H 0.8082 0.0183 0.3629
C8G C 0.3712(2) 0.0963(2) 0.3020(2)
C8J C 0.6980(2) -0.1288(2) 0.4037(2)
H7G H 0.3156 0.0956 0.3019
H7J H 0.6981 -0.1844 0.4044
O4 O 0.5000 -0.2500 0.4709(3)
O5 O 0.7040(3) 0.2040(3) 0.2960(3)
H8? H 0.6445(15) 0.3590(18) 0.997(2)
H9? H 0.7169(10) 0.3465(17) 0.980(2)
O6? O 0.6826(5) 0.3822(9) 0.9728(3)
loop_
_geom_bond_atom_site_label_1
_geom_bond_atom_site_label_2
_geom_bond_site_symmetry_1
_geom_bond_site_symmetry_2
Ca1 O1 1_555 1_555
P1 C1 1_555 1_555
O1 C2 1_555 1_555
O2 C2 1_555 1_555
O3 Ca1 1_555 1_555
H1 O3 1_555 1_555
H2 O3 1_555 1_555
C1 H3 1_555 1_555
C2 C4 1_555 1_555
C3 H4 1_555 1_555
C4 C7 1_555 1_555
C5 H5 1_555 1_555
C6 P1 1_555 1_555
C7 C5 1_555 1_555
H6 C7 1_555 1_555
C8 C3 1_555 1_555
H7 C8 1_555 1_555
Ca1C O1G 1_555 1_555
Ca1A O1J 1_555 1_555
O1G C2G 1_555 1_555
O1J C2J 1_555 1_555
O1I Ca1 1_555 1_555
O1F Ca1 1_555 1_555
O2G C2G 1_555 1_555
O2J C2J 1_555 1_555
O3F Ca1 1_555 1_555
O3I Ca1 1_555 1_555
H1F O3F 1_555 1_555
H1I O3I 1_555 1_555
H2F O3F 1_555 1_555
H2I O3I 1_555 1_555
H3G C1 1_555 1_555
H3J C1 1_555 1_555
C2G C4G 1_555 1_555
C2J C4J 1_555 1_555
C3G H4G 1_555 1_555
C3J H4J 1_555 1_555
C4G C7G 1_555 1_555
C4J C7J 1_555 1_555
C5G H5G 1_555 1_555
C5J H5J 1_555 1_555
C6G P1 1_555 1_555
C6J P1 1_555 1_555
C7G C5G 1_555 1_555
C7J C5J 1_555 1_555
H6G C7G 1_555 1_555
H6J C7J 1_555 1_555
C8G C3G 1_555 1_555
C8J C3J 1_555 1_555
H7G C8G 1_555 1_555
H7J C8J 1_555 1_555
C3 C6 1_555 1_555
C4 C8 1_555 1_555
C5 C6 1_555 1_555
C3G C6G 1_555 1_555
C3J C6J 1_555 1_555
C4G C8G 1_555 1_555
C4J C8J 1_555 1_555
C5G C6G 1_555 1_555
C5J C6J 1_555 1_555

#END
