
#######################################################################
#
#                 Cambridge Crystallographic Data Centre
#                                CCDC 
#
#######################################################################
#
# If this CIF has been generated from an entry in the Cambridge 
# Structural Database, then it will include bibliographic, chemical, 
# crystal, experimental, refinement or atomic coordinate data resulting 
# from the CCDC's data processing and validation procedures.
#
#######################################################################

data_CAVRAU
_symmetry_cell_setting           orthorhombic
_symmetry_space_group_name_H-M   'P n m a'
_symmetry_Int_Tables_number      62
_space_group_name_Hall           '-P 2ac 2n'
loop_
_symmetry_equiv_pos_site_id
_symmetry_equiv_pos_as_xyz
1 x,y,z
2 1/2-x,-y,1/2+z
3 1/2+x,1/2-y,1/2-z
4 -x,1/2+y,-z
5 -x,-y,-z
6 1/2+x,y,1/2-z
7 1/2-x,1/2+y,1/2+z
8 x,1/2-y,z
_cell_length_a                   15.508(11)
_cell_length_b                   19.220(13)
_cell_length_c                   25.211(17)
_cell_angle_alpha                90
_cell_angle_beta                 90
_cell_angle_gamma                90
_cell_volume                     7514.49
loop_
_atom_site_label
_atom_site_type_symbol
_atom_site_fract_x
_atom_site_fract_y
_atom_site_fract_z
Zn1 Zn 0.94628(5) 0.16218(4) 0.77234(3)
Zn2 Zn 0.97421(6) 0.03568(4) 0.54987(3)
Zn3 Zn 0.81710(6) 0.2500 0.69581(4)
N1 N 0.9325(3) 0.1307(3) 0.69668(19)
N2 N 0.8732(3) 0.1656(3) 0.66595(19)
N3 N 0.9336(4) 0.0846(3) 0.6166(2)
N4 N 0.5595(3) 0.2147(3) 0.7189(2)
N5 N 0.6918(4) 0.2500 0.7020(3)
O1 O 0.9876(3) 0.1207(2) 0.5006(2)
O2 O 1.0205(4) 0.0664(3) 0.4261(2)
O3 O 0.6047(3) 0.0398(3) 0.9386(2)
O4 O 0.6409(3) -0.0163(3) 1.01296(19)
O5 O 0.8329(6) 0.1110(4) 0.8132(3)
O6 O 0.9608(5) 0.0867(5) 0.8282(3)
O7 O 0.8749(3) 0.2500 0.7663(2)
H1 H 0.8315 0.2500 0.7898
C1 C 1.0326(5) 0.0319(4) 0.6828(3)
H2 H 1.0887 0.0525 0.6793
H3 H 1.0292 -0.0090 0.6610
H4 H 1.0230 0.0193 0.7192
C2 C 0.9659(4) 0.0826(3) 0.6658(3)
C3 C 0.8751(4) 0.1364(4) 0.6183(3)
C4 C 0.8175(5) 0.1579(4) 0.5744(3)
H5 H 0.7764 0.1912 0.5873
H6 H 0.7877 0.1179 0.5609
H7 H 0.8512 0.1785 0.5466
C5 C 1.0061(5) 0.1198(4) 0.4529(3)
C6 C 1.0118(6) 0.1868(4) 0.4242(3)
C7 C 1.0281(9) 0.1873(5) 0.3707(4)
H8 H 1.0351 0.1454 0.3527
C8 C 1.0342(15) 0.2500 0.3429(6)
H9 H 1.0422 0.2500 0.3063
C9 C 1.0046(7) 0.2500 0.4507(4)
H10 H 0.9946 0.2500 0.4871
C10 C 0.8855(7) 0.0847(5) 0.8396(3)
C11 C 0.8595(7) 0.0433(6) 0.8894(4)
C12 C 0.9219(8) 0.0027(10) 0.9171(6)
H11 H 0.9777 -0.0030 0.9043
C13 C 0.8950(8) -0.0278(12) 0.9641(7)
H12 H 0.9356 -0.0493 0.9857
C14 C 0.8099(7) -0.0270(9) 0.9795(5)
H13 H 0.7931 -0.0523 1.0092
C15 C 0.7497(6) 0.0102(5) 0.9520(3)
C16 C 0.7747(5) 0.0449(4) 0.9065(3)
H14 H 0.7339 0.0697 0.8871
C17 C 0.6580(5) 0.0118(4) 0.9694(3)
C18 C 0.6677(5) 0.1213(4) 0.7055(3)
H15 H 0.7145 0.1135 0.7296
H16 H 0.6202 0.0916 0.7147
H17 H 0.6861 0.1110 0.6700
C19 C 0.6400(4) 0.1953(3) 0.7087(2)
Zn1G Zn 0.94628(5) 0.33782(4) 0.77234(3)
Zn1E Zn 0.44628(5) 0.16218(4) 0.72766(3)
Zn1B Zn 0.44628(5) 0.33782(4) 0.72766(3)
Zn1E_2 Zn 1.44628(5) 0.16218(4) 0.72766(3)
Zn2G Zn 0.97421(6) 0.46432(4) 0.54987(3)
Zn2D Zn 1.02579(6) -0.03568(4) 0.45013(3)
Zn2E Zn 0.47421(6) 0.03568(4) 0.95013(3)
Zn2A Zn 0.52579(6) -0.03568(4) 1.04987(3)
Zn2C Zn 1.02579(6) 0.53568(4) 0.45013(3)
N1G N 0.9325(3) 0.3693(3) 0.69668(19)
N2G N 0.8732(3) 0.3344(3) 0.66595(19)
N3G N 0.9336(4) 0.4154(3) 0.6166(2)
N4G N 0.5595(3) 0.2853(3) 0.7189(2)
N4E N 1.0595(3) 0.2147(3) 0.7811(2)
N4B N 1.0595(3) 0.2853(3) 0.7811(2)
O1G O 0.9876(3) 0.3793(2) 0.5006(2)
O2G O 1.0205(4) 0.4336(3) 0.4261(2)
O2D O 0.9795(4) -0.0664(3) 0.5739(2)
O2C O 0.9795(4) 0.5664(3) 0.5739(2)
O3E O 1.1047(3) 0.0398(3) 0.5614(2)
O3B O 1.1047(3) 0.4602(3) 0.5614(2)
O4E O 1.1409(3) -0.0163(3) 0.48704(19)
O4A O 0.8591(3) 0.0163(3) 0.51296(19)
O4F O 0.8591(3) 0.4837(3) 0.51296(19)
O5E O 1.3329(6) 0.1110(4) 0.6868(3)
O5G O 0.8329(6) 0.3890(4) 0.8132(3)
O6E O 1.4608(5) 0.0867(5) 0.6718(3)
O6G O 0.9608(5) 0.4133(5) 0.8282(3)
C1G C 1.0326(5) 0.4681(4) 0.6828(3)
H2G H 1.0887 0.4475 0.6793
H3G H 1.0292 0.5090 0.6610
H4G H 1.0230 0.4807 0.7192
C2G C 0.9659(4) 0.4174(3) 0.6658(3)
C3G C 0.8751(4) 0.3636(4) 0.6183(3)
C4G C 0.8175(5) 0.3421(4) 0.5744(3)
H5G H 0.7764 0.3088 0.5873
H6G H 0.7877 0.3821 0.5609
H7G H 0.8512 0.3215 0.5466
C5G C 1.0061(5) 0.3802(4) 0.4529(3)
C6G C 1.0118(6) 0.3132(4) 0.4242(3)
C7G C 1.0281(9) 0.3127(5) 0.3707(4)
H8G H 1.0351 0.3546 0.3527
C10E C 1.3855(7) 0.0847(5) 0.6604(3)
C11E C 1.3595(7) 0.0433(6) 0.6106(4)
C12E C 1.4219(8) 0.0027(10) 0.5829(6)
H11E H 1.4777 -0.0030 0.5957
C13E C 1.3950(8) -0.0278(12) 0.5359(7)
H12E H 1.4356 -0.0493 0.5143
C14E C 1.3099(7) -0.0270(9) 0.5205(5)
H13E H 1.2931 -0.0523 0.4908
C15E C 1.2497(6) 0.0102(5) 0.5480(3)
C16E C 1.2747(5) 0.0449(4) 0.5935(3)
H14E H 1.2339 0.0697 0.6129
C17E C 1.1580(5) 0.0118(4) 0.5306(3)
C18G C 0.6677(5) 0.3787(4) 0.7055(3)
H15G H 0.7145 0.3865 0.7296
H16G H 0.6202 0.4084 0.7147
H17G H 0.6861 0.3890 0.6700
C19G C 0.6400(4) 0.3047(3) 0.7087(2)
N6 N 0.6642(8) 0.2500 0.9014(4)
O8 O 0.7253(7) 0.2500 0.8233(6)
C20 C 0.7388(18) 0.2500 0.8665(6)
H18 H 0.7948 0.2500 0.8796
C21 C 0.5781(11) 0.2500 0.8890(8)
C22 C 0.6779(12) 0.2500 0.9551(6)
H19 H 0.7109 0.2096 0.9647
H20 H 0.6236 0.2500 0.9733
H19G H 0.7109 0.2904 0.9647
O9 O 1.068(3) 0.2500 0.9332(10)
H21 H 1.0293 0.2500 0.9571
H22 H 1.1180 0.2500 0.9470
H23? H 0.5549 0.2958 0.8943
H24? H 0.5483 0.2175 0.9113
H25? H 0.5709 0.2367 0.8525
H26? H 0.7092 0.2088 0.9649
loop_
_geom_bond_atom_site_label_1
_geom_bond_atom_site_label_2
_geom_bond_site_symmetry_1
_geom_bond_site_symmetry_2
Zn1 N1 1_555 1_555
Zn2 N3 1_555 1_555
Zn3 N2 1_555 1_555
N1 N2 1_555 1_555
N2 C3 1_555 1_555
N3 C2 1_555 1_555
N4 C19 1_555 1_555
N5 Zn3 1_555 1_555
O1 Zn2 1_555 1_555
O2 C5 1_555 1_555
O3 C17 1_555 1_555
O4 C17 1_555 1_555
O5 Zn1 1_555 1_555
O6 Zn1 1_555 1_555
O7 Zn1 1_555 1_555
H1 O7 1_555 1_555
C1 H2 1_555 1_555
H3 C1 1_555 1_555
H4 C1 1_555 1_555
C2 N1 1_555 1_555
C3 N3 1_555 1_555
C4 C3 1_555 1_555
H5 C4 1_555 1_555
H6 C4 1_555 1_555
H7 C4 1_555 1_555
C5 O1 1_555 1_555
C6 C5 1_555 1_555
C7 C6 1_555 1_555
H8 C7 1_555 1_555
C8 C7 1_555 1_555
H9 C8 1_555 1_555
C9 C6 1_555 1_555
H10 C9 1_555 1_555
C10 O5 1_555 1_555
C11 C10 1_555 1_555
C12 C11 1_555 1_555
H11 C12 1_555 1_555
C13 C12 1_555 1_555
H12 C13 1_555 1_555
C14 C13 1_555 1_555
H13 C14 1_555 1_555
C15 C14 1_555 1_555
C16 C11 1_555 1_555
H14 C16 1_555 1_555
C17 C15 1_555 1_555
C18 H15 1_555 1_555
H16 C18 1_555 1_555
H17 C18 1_555 1_555
C19 N5 1_555 1_555
N6 C20 1_555 1_555
O8 C20 1_555 1_555
C20 H18 1_555 1_555
C21 N6 1_555 1_555
C22 N6 1_555 1_555
H19 C22 1_555 1_555
H20 C22 1_555 1_555
O9 H21 1_555 1_555
H22 O9 1_555 1_555
Zn1G O7 1_555 1_555
Zn1E N4 1_555 1_555
Zn1B N4G 1_555 1_555
Zn1E_2 O5E 1_555 1_555
Zn2G N3G 1_555 1_555
Zn2D O2 1_555 1_555
Zn2E O3 1_555 1_555
Zn2A O4 1_555 1_555
Zn2C O2G 1_555 1_555
N1G Zn1G 1_555 1_555
N2G Zn3 1_555 1_555
N3G C2G 1_555 1_555
N4G N4 1_555 1_555
N4E Zn1 1_555 1_555
N4B Zn1G 1_555 1_555
O1G Zn2G 1_555 1_555
O2G C5G 1_555 1_555
O2D Zn2 1_555 1_555
O2C Zn2G 1_555 1_555
O3E Zn2 1_555 1_555
O3B Zn2G 1_555 1_555
O4E Zn2D 1_555 1_555
O4A Zn2 1_555 1_555
O4F Zn2G 1_555 1_555
O5E C10E 1_555 1_555
O5G Zn1G 1_555 1_555
O6E Zn1E_2 1_555 1_555
O6G Zn1G 1_555 1_555
C1G H2G 1_555 1_555
H3G C1G 1_555 1_555
H4G C1G 1_555 1_555
C2G N1G 1_555 1_555
C3G N2G 1_555 1_555
C4G C3G 1_555 1_555
H5G C4G 1_555 1_555
H6G C4G 1_555 1_555
H7G C4G 1_555 1_555
C5G O1G 1_555 1_555
C6G C9 1_555 1_555
C7G C8 1_555 1_555
H8G C7G 1_555 1_555
C10E O6E 1_555 1_555
C11E C10E 1_555 1_555
C12E C11E 1_555 1_555
H11E C12E 1_555 1_555
C13E C12E 1_555 1_555
H12E C13E 1_555 1_555
C14E C13E 1_555 1_555
H13E C14E 1_555 1_555
C15E C14E 1_555 1_555
C16E C11E 1_555 1_555
H14E C16E 1_555 1_555
C17E O3E 1_555 1_555
C18G H15G 1_555 1_555
H16G C18G 1_555 1_555
H17G C18G 1_555 1_555
C19G N5 1_555 1_555
H19G C22 1_555 1_555
Zn3 O7 1_555 1_555
O6 C10 1_555 1_555
C1 C2 1_555 1_555
C15 C16 1_555 1_555
C18 C19 1_555 1_555
N1G N2G 1_555 1_555
N3G C3G 1_555 1_555
N4G C19G 1_555 1_555
N4E N4B 1_555 1_555
O4E C17E 1_555 1_555
C1G C2G 1_555 1_555
C5G C6G 1_555 1_555
C6G C7G 1_555 1_555
C15E C16E 1_555 1_555
C15E C17E 1_555 1_555
C18G C19G 1_555 1_555

#END
