
#######################################################################
#
#                 Cambridge Crystallographic Data Centre
#                                CCDC 
#
#######################################################################
#
# If this CIF has been generated from an entry in the Cambridge 
# Structural Database, then it will include bibliographic, chemical, 
# crystal, experimental, refinement or atomic coordinate data resulting 
# from the CCDC's data processing and validation procedures.
#
#######################################################################

data_CAVSOJ
_symmetry_cell_setting           monoclinic
_symmetry_space_group_name_H-M   'P 21'
_symmetry_Int_Tables_number      4
_space_group_name_Hall           'P 2yb'
loop_
_symmetry_equiv_pos_site_id
_symmetry_equiv_pos_as_xyz
1 x,y,z
2 -x,1/2+y,-z
_cell_length_a                   12.2967(15)
_cell_length_b                   17.7483(21)
_cell_length_c                   5.9887(8)
_cell_angle_alpha                90
_cell_angle_beta                 104.626(6)
_cell_angle_gamma                90
_cell_volume                     1264.65
loop_
_atom_site_label
_atom_site_type_symbol
_atom_site_fract_x
_atom_site_fract_y
_atom_site_fract_z
La1 La 0.6920(4) 0.2500 0.3874(13)
P1 P 0.4447(12) 0.1314(15) 0.093(4)
P2 P -0.2390(17) 0.1259(14) 0.929(5)
O1 O 0.4682(24) 0.1580(30) -0.135(6)
O2 O 0.4719(26) 0.1938(20) 0.276(7)
O3 O 0.5009(26) 0.0561(16) 0.175(7)
O4 O -0.1116(18) 0.1117(25) 0.974(8)
O5 O -0.2742(33) 0.1905(18) 0.752(8)
O6 O -0.273(4) 0.1448(22) 1.153(7)
C1 C 0.2911(14) 0.1165(20) 0.031(7)
C2 C -0.3124(31) 0.0416(16) 0.807(7)
N1 N 0.2365(20) 0.0646(14) 0.169(6)
C3 C 0.1424(32) 0.1049(21) 0.233(7)
C4 C 0.1156(33) 0.0760(29) 0.447(5)
C5 C -0.0082(32) 0.063(4) 0.421(10)
P3 P -0.4983(17) -0.1146(13) 0.803(4)
P4 P 0.2013(17) -0.1158(14) 0.061(5)
O7 O -0.5298(32) -0.1312(32) 1.031(5)
O8 O -0.5211(30) -0.1844(20) 0.644(8)
O9 O -0.5611(26) -0.0446(18) 0.685(8)
O10 O 0.0870(23) -0.1368(25) 0.101(7)
O11 O 0.2957(28) -0.1502(24) 0.255(7)
O12 O 0.2143(34) -0.1437(22) -0.175(6)
C6 C -0.3488(18) -0.0964(19) 0.858(7)
C7 C 0.217(4) -0.0147(14) 0.080(8)
N2 N -0.3179(25) -0.0367(15) 0.706(5)
C8 C -0.221(4) -0.0546(25) 0.604(9)
C9 C -0.1248(33) 0.0004(34) 0.668(6)
C10 C -0.036(4) -0.0061(30) 0.540(11)
La1_2 La -0.3080(4) 0.2500 0.3874(13)
La1_3 La -0.3080(4) 0.2500 1.3874(13)
La1A La -0.6920(4) -0.2500 0.6126(13)
La1A_2 La 0.3080(4) -0.2500 0.6126(13)
La1A_3 La 0.3080(4) -0.2500 -0.3874(13)
O5_2 O 0.7258(33) 0.1905(18) 0.752(8)
O6_2 O 0.727(4) 0.1448(22) 0.153(7)
O8A O 0.5211(30) 0.3156(20) 0.356(8)
O11A O 0.7043(28) 0.3498(24) 0.745(7)
O12A O 0.7857(34) 0.3563(22) 0.175(6)
loop_
_geom_bond_atom_site_label_1
_geom_bond_atom_site_label_2
_geom_bond_site_symmetry_1
_geom_bond_site_symmetry_2
La1 O2 1_555 1_555
P1 O1 1_555 1_555
P2 O4 1_555 1_555
O2 P1 1_555 1_555
O3 P1 1_555 1_555
O5 P2 1_555 1_555
O6 P2 1_555 1_555
C1 P1 1_555 1_555
C2 P2 1_555 1_555
N1 C1 1_555 1_555
C3 N1 1_555 1_555
C4 C3 1_555 1_555
C5 C4 1_555 1_555
P3 O7 1_555 1_555
P4 O10 1_555 1_555
O8 P3 1_555 1_555
O9 P3 1_555 1_555
O11 P4 1_555 1_555
O12 P4 1_555 1_555
C6 P3 1_555 1_555
C7 N1 1_555 1_555
N2 C2 1_555 1_555
C8 N2 1_555 1_555
C9 C8 1_555 1_555
C10 C5 1_555 1_555
La1_2 O5 1_555 1_555
La1_3 O6 1_555 1_555
La1A O8 1_555 1_555
La1A_2 O11 1_555 1_555
La1A_3 O12 1_555 1_555
O5_2 La1 1_555 1_555
O6_2 La1 1_555 1_555
O8A La1 1_555 1_555
O11A La1 1_555 1_555
O12A La1 1_555 1_555
P4 C7 1_555 1_555
C6 N2 1_555 1_555
C9 C10 1_555 1_555

#END
