
#######################################################################
#
#                 Cambridge Crystallographic Data Centre
#                                CCDC 
#
#######################################################################
#
# If this CIF has been generated from an entry in the Cambridge 
# Structural Database, then it will include bibliographic, chemical, 
# crystal, experimental, refinement or atomic coordinate data resulting 
# from the CCDC's data processing and validation procedures.
#
#######################################################################

data_CAXZOS
_symmetry_cell_setting           tetragonal
_symmetry_space_group_name_H-M   'I 4'
_symmetry_Int_Tables_number      79
_space_group_name_Hall           'I 4'
loop_
_symmetry_equiv_pos_site_id
_symmetry_equiv_pos_as_xyz
1 x,y,z
2 -y,x,z
3 -x,-y,z
4 y,-x,z
5 1/2+x,1/2+y,1/2+z
6 1/2-y,1/2+x,1/2+z
7 1/2-x,1/2-y,1/2+z
8 1/2+y,1/2-x,1/2+z
_cell_length_a                   31.9819(12)
_cell_length_b                   31.9819(12)
_cell_length_c                   25.3323(11)
_cell_angle_alpha                90
_cell_angle_beta                 90
_cell_angle_gamma                90
_cell_volume                     25910.9
loop_
_atom_site_label
_atom_site_type_symbol
_atom_site_fract_x
_atom_site_fract_y
_atom_site_fract_z
Co1 Co 0.98396(5) 0.24451(6) 0.41547(8)
Co2 Co 0.48165(5) 0.74845(6) 0.41472(8)
Co3 Co 0.75374(6) 0.51673(6) 0.66632(7)
Co4 Co 1.24585(6) 0.48308(5) 0.17014(7)
O1 O 0.8140(4) 0.4762(3) 0.6693(4)
O2 O 1.1809(4) 0.5164(4) 0.1694(4)
O3 O 1.0178(3) 0.1838(2) 0.4159(4)
O4 O 0.5164(3) 0.6865(2) 0.4128(4)
O5 O 1.2326(3) 0.4414(3) 0.2306(4)
O6 O 1.4439(2) 0.7346(3) 0.3545(4)
O7 O 1.0164(3) 0.2287(4) 0.4838(4)
O8 O 1.2269(3) 0.5179(3) 0.1060(4)
O9 O 0.9452(3) 0.2310(3) 0.3543(4)
O10 O 0.5134(3) 0.7305(3) 0.4803(4)
C1 C 0.8333(4) 0.4412(4) 0.5906(5)
O11 O 0.7722(3) 0.4809(2) 0.6030(4)
O12 O 1.2097(3) 0.4228(3) 0.1551(5)
C2 C 0.8022(5) 0.4682(4) 0.6228(5)
C3 C 0.5279(4) 0.6930(3) 0.4600(5)
C4 C 0.8908(5) 0.1817(4) 0.3536(6)
C5 C 1.0545(4) 0.1646(4) 0.4964(6)
C6 C 0.8155(5) 0.0503(6) 0.2853(7)
H1 H 0.8296 0.0428 0.3169
C7 C 1.1963(7) 0.5250(4) 0.1212(6)
N1 N 1.2723(3) 0.5327(3) 0.2112(4)
N2 N 0.9574(3) 0.2926(4) 0.4486(5)
O13 O 0.9270(3) 0.2031(3) 0.4309(4)
C8 C 1.1863(4) 0.3823(5) 0.2849(6)
H2 H 1.2052 0.3997 0.3036
C9 C 1.0866(4) 0.6334(4) 0.0030(6)
C10 C 1.0284(4) 0.1911(3) 0.4622(5)
N3 N 0.7759(3) 0.0307(3) 0.2081(4)
C11 C 1.1399(4) 0.0854(5) 0.5825(6)
N4 N 1.0412(3) 0.7009(4) -0.0512(5)
O14 O 1.4215(4) 0.7090(3) 0.4331(5)
C12 C 1.1628(5) 0.5529(5) 0.0908(5)
C13 C 0.8834(4) 0.1877(4) 0.2995(6)
H3 H 0.8944 0.2110 0.2809
C14 C 1.3872(4) 0.6872(4) 0.3537(6)
C15 C 0.5539(4) 0.6677(4) 0.4901(6)
C16 C 1.2959(5) 0.6022(6) 0.2202(6)
H4 H 1.2971 0.6294 0.2054
C17 C 1.1853(4) 0.3857(4) 0.2306(5)
C18 C 1.2784(5) 0.5712(5) 0.1936(6)
H5 H 1.2693 0.5771 0.1586
C19 C 1.0978(4) 0.3108(4) 0.3153(6)
C20 C 1.3559(4) 0.6598(4) 0.2720(6)
H6 H 1.3540 0.6607 0.2346
C21 C 1.2107(4) 0.4198(4) 0.2033(7)
C22 C 1.3341(4) 0.6296(4) 0.2983(6)
C23 C 1.0409(5) 0.6967(4) 0.0025(5)
H7 H 1.0255 0.7168 0.0221
C24 C 1.0558(4) 0.3058(4) 0.2933(5)
H8 H 1.0494 0.3164 0.2592
C25 C 1.3813(4) 0.6900(4) 0.2979(6)
H9 H 1.3943 0.7118 0.2783
C26 C 0.6430(5) 0.5925(5) 0.5772(6)
C27 C 1.3126(5) 0.5948(5) 0.2699(5)
C28 C 0.7973(5) 0.0991(6) 0.2217(7)
H10 H 0.7969 0.1272 0.2095
C29 C 0.9510(5) 0.6849(5) 0.7947(6)
H11 H 0.9592 0.6723 0.7624
C30 C 1.0615(4) 0.6649(4) 0.0313(6)
H12 H 1.0592 0.6639 0.0687
C31 C 0.8583(5) 0.1564(4) 0.2737(6)
H13 H 0.8549 0.1575 0.2365
C32 C 0.8768(4) 0.6578(4) 0.7844(5)
C33 C 0.8197(5) 0.4288(6) 0.5413(6)
H14 H 0.7944 0.4393 0.5267
C34 C 0.9209(5) 0.2061(5) 0.3814(6)
C35 C 0.9326(3) 0.7242(3) 0.8860(5)
H15 H 0.9263 0.7404 0.9163
C36 C 1.1039(3) 0.2947(4) 0.3649(5)
H16 H 1.1307 0.2968 0.3808
C37 C 0.9073(4) 0.3553(5) 0.5025(6)
C38 C 0.6102(5) 0.6186(5) 0.5466(6)
C39 C 1.1649(7) 0.0627(5) 0.5571(7)
H17 H 1.1612 0.0585 0.5203
C40 C 1.1053(7) 0.1114(6) 0.5527(6)
C41 C 0.8389(5) 0.1249(5) 0.3018(7)
C42 C 1.1626(4) 0.3562(4) 0.3127(6)
H18 H 1.1674 0.3516 0.3492
C43 C 0.9627(5) 0.3030(5) 0.5021(6)
H19 H 0.9841 0.2890 0.5211
C44 C 0.8691(4) 0.4237(4) 0.6124(6)
H20 H 0.8761 0.4307 0.6478
C45 C 0.8412(4) 0.6427(4) 0.8075(6)
H21 H 0.8338 0.6510 0.8422
C46 C 0.8170(4) 0.6162(5) 0.7808(5)
H22 H 0.7957 0.6016 0.7993
C47 C 0.5726(7) 0.6791(6) 0.5389(9)
H23 H 0.5655 0.7060 0.5520
C48 C 1.0622(4) 0.6695(4) -0.0759(5)
H24 H 1.0637 0.6711 -0.1133
C49 C 1.4157(4) 0.7120(4) 0.3826(5)
C50 C 1.0929(5) 0.1504(5) 0.5735(6)
H25 H 1.1033 0.1600 0.6064
C51 C 0.8544(4) 0.6264(4) 0.7010(5)
H26 H 0.8593 0.6197 0.6651
N5 N 0.9741(4) 0.7217(3) 0.8701(5)
C52 C 0.7952(4) 0.0183(5) 0.2548(6)
H27 H 0.7950 -0.0100 0.2661
C53 C 1.2912(5) 0.5236(6) 0.2592(6)
H28 H 1.2906 0.4957 0.2723
C54 C 0.7811(5) 0.0698(5) 0.1921(6)
H29 H 0.7726 0.0769 0.1573
C55 C 1.1303(5) 0.3362(5) 0.2860(6)
C56 C 0.8990(4) 0.7039(4) 0.8596(5)
H30 H 0.8714 0.7048 0.8734
C57 C 1.0706(3) 0.2747(4) 0.3932(5)
H31 H 1.0761 0.2618 0.4262
C58 C 0.9076(4) 0.6823(5) 0.8125(8)
C59 C 0.8790(5) 0.6524(5) 0.7262(6)
H32 H 0.8987 0.6683 0.7066
C60 C 1.1116(4) 0.6038(4) 0.0308(6)
C61 C 1.3639(4) 0.6582(4) 0.3814(5)
H33 H 1.3637 0.6582 0.4189
C62 C 0.8699(5) 0.1513(5) 0.3805(6)
H34 H 0.8715 0.1503 0.4180
C63 C 0.8958(5) 0.3961(6) 0.5847(6)
H35 H 0.9204 0.3847 0.5999
C64 C 0.5648(5) 0.6278(4) 0.4730(6)
H36 H 0.5521 0.6158 0.4426
C65 C 1.1567(4) 0.3609(5) 0.2039(6)
H37 H 1.1559 0.3623 0.1664
C66 C 1.3391(5) 0.6270(5) 0.3514(6)
H38 H 1.3264 0.6046 0.3699
C67 C 1.1425(5) 0.0874(4) 0.6368(6)
H39 H 1.1230 0.1040 0.6557
C68 C 1.1796(6) 0.5689(5) 0.0442(6)
H40 H 1.2076 0.5639 0.0331
C69 C 1.0925(4) 0.1004(5) 0.5051(6)
H41 H 1.1028 0.0751 0.4904
C70 C 0.8452(5) 0.1205(5) 0.3524(6)
H42 H 0.8338 0.0972 0.3706
N6 N 1.0296(4) 0.2741(3) 0.3722(4)
C71 C 0.5948(5) 0.6060(4) 0.5015(6)
H43 H 0.6048 0.5804 0.4873
C72 C 0.8458(5) 0.3989(7) 0.5127(6)
H44 H 0.8364 0.3880 0.4799
C73 C 0.8150(4) 0.0905(5) 0.2702(5)
C74 C 1.0818(5) 0.6350(5) -0.0525(6)
H45 H 1.0918 0.6128 -0.0739
C75 C 0.9786(4) 0.7051(5) 0.8240(6)
H46 H 1.0057 0.7077 0.8090
C76 C 1.0644(4) 0.1244(4) 0.4752(6)
H47 H 1.0527 0.1145 0.4431
C77 C 0.5990(6) 0.6565(5) 0.5690(8)
H48 H 0.6090 0.6657 0.6023
C78 C 0.6957(5) 0.5430(5) 0.5812(7)
H49 H 0.7128 0.5234 0.5631
H50 H 0.6824 0.5770 0.6962
N7 N 0.7012(3) 0.5472(3) 0.6314(4)
C79 C 1.1502(4) 0.5938(5) 0.0146(6)
H51 H 1.1589 0.6040 -0.0190
C80 C 0.9234(8) 0.3164(7) 0.4284(6)
H52 H 0.9179 0.3133 0.3917
C81 C 0.6665(7) 0.5651(7) 0.5519(8)
H53 H 0.6636 0.5608 0.5149
C82 C 0.6491(6) 0.5978(6) 0.6296(7)
H54 H 0.6326 0.6176 0.6482
C83 C 0.8973(7) 0.3435(7) 0.4551(8)
H55 H 0.8724 0.3534 0.4391
N8 N 1.2002(3) 0.0450(3) 0.6359(4)
C84 C 1.1993(5) 0.0430(4) 0.5845(7)
H56 H 1.2207 0.0289 0.5655
C85 C 1.1718(5) 0.0663(5) 0.6635(7)
H57 H 1.1724 0.0666 0.7009
C86 C 1.1222(7) 0.5636(6) 0.1060(7)
H58 H 1.1118 0.5531 0.1385
C93 C 0.8828(5) 0.3868(4) 0.5320(6)
C94 C 1.0653(6) 0.1738(6) 0.5449(6)
H73 H 1.0535 0.1979 0.5609
C96 C 1.3113(6) 0.5554(5) 0.2890(6)
H75 H 1.3237 0.5490 0.3221
C97 C 1.1302(5) 0.3352(5) 0.2285(6)
H76 H 1.1121 0.3171 0.2094
C98 C 1.0985(5) 0.5870(7) 0.0781(7)
H77 H 1.0710 0.5930 0.0903
C99 C 1.0268(4) 0.2865(4) 0.3214(6)
H78 H 1.0012 0.2807 0.3040
C101 C 0.9392(4) 0.3318(4) 0.5287(6)
H82 H 0.9441 0.3363 0.5652
C102 C 0.8218(4) 0.6093(4) 0.7274(6)
C104 C 0.7912(5) 0.5763(4) 0.7006(7)
O18 O 0.7671(3) 0.5578(3) 0.7264(4)
O19 O 0.7938(3) 0.5713(3) 0.6526(4)
C110 C 0.6789(7) 0.5747(6) 0.6567(7)
Co2_2 Co 1.48165(5) 0.74845(6) 0.41472(8)
Co2F Co 1.01835(5) 0.75155(6) -0.08528(8)
Co2F_2 Co 1.01835(5) 0.75155(6) 0.91472(8)
Co3F Co 0.74626(6) -0.01673(6) 0.16632(7)
Co4F Co 1.25415(6) 0.01692(5) 0.67014(7)
O6_2 O 0.4439(2) 0.7346(3) 0.3545(4)
N3F N 0.7241(3) 0.4693(3) 0.7081(4)
N4F N 0.4588(3) 0.7991(4) 0.4488(5)
O14_2 O 0.4215(4) 0.7090(3) 0.4331(5)
N5F N 0.5259(4) 0.7783(3) 0.3701(5)
N8F N 1.2998(3) 0.4550(3) 0.1359(4)
C87 C 1.2527(6) 0.1378(5) 0.5422(7)
H59 H 1.2664 0.1235 0.5718
H60 H 1.2734 0.1547 0.5231
H61 H 1.2406 0.1170 0.5183
N10 N 1.2199(4) 0.1649(4) 0.5623(4)
C90 C 1.2139(5) 0.1685(5) 0.6136(4)
H66 H 1.2326 0.1539 0.6362
C91 C 1.1937(6) 0.1872(7) 0.5252(6)
H67 H 1.1907 0.2163 0.5367
H68 H 1.1661 0.1739 0.5236
H69 H 1.2067 0.1865 0.4901
O16 O 1.1861(4) 0.1893(4) 0.6346(5)
C88 C 1.3635(5) 0.7517(6) 0.5492(7)
H62 H 1.3694 0.7297 0.5233
H63 H 1.3499 0.7395 0.5802
H64 H 1.3897 0.7651 0.5599
N9 N 1.3361(4) 0.7826(3) 0.5256(4)
C89 C 1.3379(4) 0.7904(5) 0.4744(4)
H65 H 1.3568 0.7745 0.4536
C92 C 1.3127(6) 0.8097(5) 0.5605(5)
H70 H 1.3018 0.8335 0.5404
H71 H 1.3310 0.8199 0.5886
H72 H 1.2894 0.7940 0.5760
O17 O 1.3164(4) 0.8171(3) 0.4520(4)
O15 O 1.6937(5) 0.8111(6) 0.4205(8)
C95 C 1.7283(6) 0.8074(5) 0.4003(10)
H74 H 1.7448 0.8319 0.3967
C100 C 1.7195(9) 0.7339(5) 0.3839(16)
H79 H 1.7100 0.7284 0.4200
H80 H 1.7365 0.7104 0.3715
H81 H 1.6952 0.7374 0.3607
C103 C 1.7881(5) 0.7690(7) 0.3699(10)
H83 H 1.8020 0.7954 0.3788
H84 H 1.7911 0.7636 0.3320
H85 H 1.8011 0.7462 0.3899
N12 N 1.7443(5) 0.7717(5) 0.3832(10)
O20 O 0.9716(11) 0.3776(11) 0.2817(15)
C105 C 0.9821(15) 0.4069(14) 0.2003(17)
H86 H 1.0117 0.3996 0.1970
H87 H 0.9762 0.4320 0.1794
H88 H 0.9649 0.3837 0.1874
C106 C 0.9733(12) 0.4141(12) 0.2495(15)
H89 H 0.9459 0.4285 0.2514
H90 H 0.9946 0.4333 0.2642
O21 O 0.9671(7) 0.1157(8) 0.2703(10)
O22 O 1.0539(15) 0.4141(14) 0.3487(19)
N11 N 0.7689(4) 0.2487(4) 0.2043(7)
C107 C 0.8045(4) 0.2313(6) 0.1886(10)
H91 H 0.8296 0.2464 0.1947
O23 O 0.8072(5) 0.1972(5) 0.1668(6)
C108 C 0.7695(7) 0.2893(6) 0.2296(12)
H92 H 0.7986 0.2979 0.2355
H93 H 0.7549 0.2877 0.2635
H94 H 0.7555 0.3098 0.2069
C109 C 0.7299(4) 0.2265(8) 0.1965(14)
H95 H 0.7259 0.2209 0.1588
H96 H 0.7067 0.2436 0.2096
H97 H 0.7307 0.2000 0.2158
O24 O 0.8843(7) -0.0327(6) 0.7725(9)
O25? O 0.9339(18) 0.450(2) 0.283(2)
loop_
_geom_bond_atom_site_label_1
_geom_bond_atom_site_label_2
_geom_bond_site_symmetry_1
_geom_bond_site_symmetry_2
Co1 O3 1_555 1_555
Co2 O4 1_555 1_555
Co3 O1 1_555 1_555
Co4 O2 1_555 1_555
O1 C2 1_555 1_555
O2 C7 1_555 1_555
O3 C10 1_555 1_555
O4 C3 1_555 1_555
O5 Co4 1_555 1_555
O6 C49 1_555 1_555
O7 Co1 1_555 1_555
O8 Co4 1_555 1_555
O9 Co1 1_555 1_555
O10 Co2 1_555 1_555
C1 C2 1_555 1_555
O11 Co3 1_555 1_555
O12 Co4 1_555 1_555
C2 O11 1_555 1_555
C3 O10 1_555 1_555
C4 C13 1_555 1_555
C5 C10 1_555 1_555
C6 H1 1_555 1_555
C7 O8 1_555 1_555
N1 Co4 1_555 1_555
N2 Co1 1_555 1_555
O13 Co1 1_555 1_555
C8 H2 1_555 1_555
C9 C30 1_555 1_555
C10 O7 1_555 1_555
N3 C52 1_555 1_555
C11 C39 1_555 1_555
N4 C23 1_555 1_555
O14 C49 1_555 1_555
C12 C7 1_555 1_555
C13 H3 1_555 1_555
C14 C25 1_555 1_555
C15 C3 1_555 1_555
C16 H4 1_555 1_555
C17 C8 1_555 1_555
C18 N1 1_555 1_555
H5 C18 1_555 1_555
C19 C24 1_555 1_555
C20 H6 1_555 1_555
C21 O5 1_555 1_555
C22 C20 1_555 1_555
C23 H7 1_555 1_555
C24 H8 1_555 1_555
C25 C20 1_555 1_555
H9 C25 1_555 1_555
C26 C38 1_555 1_555
C27 C16 1_555 1_555
C28 H10 1_555 1_555
C29 H11 1_555 1_555
C30 C23 1_555 1_555
H12 C30 1_555 1_555
C31 C13 1_555 1_555
H13 C31 1_555 1_555
C32 C45 1_555 1_555
C33 C1 1_555 1_555
H14 C33 1_555 1_555
C34 O9 1_555 1_555
C35 H15 1_555 1_555
C36 C19 1_555 1_555
H16 C36 1_555 1_555
C37 C83 1_555 1_555
C38 C71 1_555 1_555
C39 H17 1_555 1_555
C40 C11 1_555 1_555
C41 C31 1_555 1_555
C42 C8 1_555 1_555
H18 C42 1_555 1_555
C43 N2 1_555 1_555
H19 C43 1_555 1_555
C44 C1 1_555 1_555
H20 C44 1_555 1_555
C45 H21 1_555 1_555
C46 C45 1_555 1_555
H22 C46 1_555 1_555
C47 C15 1_555 1_555
H23 C47 1_555 1_555
C48 N4 1_555 1_555
H24 C48 1_555 1_555
C49 C14 1_555 1_555
C50 C40 1_555 1_555
H25 C50 1_555 1_555
C51 H26 1_555 1_555
N5 C35 1_555 1_555
C52 C6 1_555 1_555
H27 C52 1_555 1_555
C53 N1 1_555 1_555
H28 C53 1_555 1_555
C54 N3 1_555 1_555
H29 C54 1_555 1_555
C55 C19 1_555 1_555
C56 C35 1_555 1_555
H30 C56 1_555 1_555
C57 C36 1_555 1_555
H31 C57 1_555 1_555
C58 C29 1_555 1_555
C59 C32 1_555 1_555
H32 C59 1_555 1_555
C60 C9 1_555 1_555
C61 C14 1_555 1_555
H33 C61 1_555 1_555
C62 C4 1_555 1_555
H34 C62 1_555 1_555
C63 C44 1_555 1_555
H35 C63 1_555 1_555
C64 C15 1_555 1_555
H36 C64 1_555 1_555
C65 C17 1_555 1_555
H37 C65 1_555 1_555
C66 C22 1_555 1_555
H38 C66 1_555 1_555
C67 C11 1_555 1_555
H39 C67 1_555 1_555
C68 C12 1_555 1_555
H40 C68 1_555 1_555
C69 C40 1_555 1_555
H41 C69 1_555 1_555
C70 C41 1_555 1_555
H42 C70 1_555 1_555
N6 Co1 1_555 1_555
C71 C64 1_555 1_555
H43 C71 1_555 1_555
C72 C33 1_555 1_555
H44 C72 1_555 1_555
C73 C6 1_555 1_555
C74 C9 1_555 1_555
H45 C74 1_555 1_555
C75 C29 1_555 1_555
H46 C75 1_555 1_555
C76 C5 1_555 1_555
H47 C76 1_555 1_555
C77 C38 1_555 1_555
H48 C77 1_555 1_555
C78 H49 1_555 1_555
H50 C110 1_555 1_555
N7 Co3 1_555 1_555
C79 C60 1_555 1_555
H51 C79 1_555 1_555
C80 N2 1_555 1_555
H52 C80 1_555 1_555
C81 C26 1_555 1_555
H53 C81 1_555 1_555
C82 C26 1_555 1_555
H54 C82 1_555 1_555
C83 C80 1_555 1_555
H55 C83 1_555 1_555
N8 C84 1_555 1_555
C84 C39 1_555 1_555
H56 C84 1_555 1_555
C85 C67 1_555 1_555
H57 C85 1_555 1_555
C86 C12 1_555 1_555
H58 C86 1_555 1_555
C87 H59 1_555 1_555
H60 C87 1_555 1_555
H61 C87 1_555 1_555
C88 H62 1_555 1_555
H63 C88 1_555 1_555
H64 C88 1_555 1_555
N9 C88 1_555 1_555
O15 C95 1_555 1_555
N10 C87 1_555 1_555
C89 N9 1_555 1_555
H65 C89 1_555 1_555
C90 N10 1_555 1_555
H66 C90 1_555 1_555
C91 N10 1_555 1_555
H67 C91 1_555 1_555
H68 C91 1_555 1_555
H69 C91 1_555 1_555
C92 N9 1_555 1_555
H70 C92 1_555 1_555
H71 C92 1_555 1_555
H72 C92 1_555 1_555
C93 C37 1_555 1_555
C94 C5 1_555 1_555
H73 C94 1_555 1_555
C95 H74 1_555 1_555
C96 C27 1_555 1_555
H75 C96 1_555 1_555
O16 C90 1_555 1_555
C97 C55 1_555 1_555
H76 C97 1_555 1_555
C98 C60 1_555 1_555
H77 C98 1_555 1_555
C99 C24 1_555 1_555
H78 C99 1_555 1_555
C100 H79 1_555 1_555
H80 C100 1_555 1_555
H81 C100 1_555 1_555
C101 C37 1_555 1_555
H82 C101 1_555 1_555
C102 C46 1_555 1_555
C103 H83 1_555 1_555
H84 C103 1_555 1_555
H85 C103 1_555 1_555
O17 C89 1_555 1_555
C104 C102 1_555 1_555
O18 Co3 1_555 1_555
O19 Co3 1_555 1_555
O20 C106 1_555 1_555
C105 H86 1_555 1_555
H87 C105 1_555 1_555
H88 C105 1_555 1_555
C106 C105 1_555 1_555
H89 C106 1_555 1_555
H90 C106 1_555 1_555
N11 C107 1_555 1_555
C107 H91 1_555 1_555
O23 C107 1_555 1_555
C108 N11 1_555 1_555
H92 C108 1_555 1_555
H93 C108 1_555 1_555
H94 C108 1_555 1_555
C109 N11 1_555 1_555
H95 C109 1_555 1_555
H96 C109 1_555 1_555
H97 C109 1_555 1_555
N12 C95 1_555 1_555
C110 N7 1_555 1_555
Co2_2 O6 1_555 1_555
Co2F N4 1_555 1_555
Co2F_2 N5 1_555 1_555
Co3F N3 1_555 1_555
Co4F N8 1_555 1_555
O6_2 Co2 1_555 1_555
N3F Co3 1_555 1_555
N4F Co2 1_555 1_555
O14_2 Co2 1_555 1_555
N5F Co2 1_555 1_555
N8F Co4 1_555 1_555
O12 C21 1_555 1_555
C4 C34 1_555 1_555
O13 C34 1_555 1_555
O14 Co2_2 1_555 1_555
C16 C18 1_555 1_555
C17 C21 1_555 1_555
C22 C27 1_555 1_555
C28 C54 1_555 1_555
C28 C73 1_555 1_555
C32 C58 1_555 1_555
C41 C73 1_555 1_555
C42 C55 1_555 1_555
C43 C101 1_555 1_555
C47 C77 1_555 1_555
C48 C74 1_555 1_555
C50 C94 1_555 1_555
C51 C59 1_555 1_555
C51 C102 1_555 1_555
N5 C75 1_555 1_555
C53 C96 1_555 1_555
C56 C58 1_555 1_555
C57 N6 1_555 1_555
C61 C66 1_555 1_555
C62 C70 1_555 1_555
C63 C93 1_555 1_555
C65 C97 1_555 1_555
C68 C79 1_555 1_555
C69 C76 1_555 1_555
N6 C99 1_555 1_555
C72 C93 1_555 1_555
C78 N7 1_555 1_555
C78 C81 1_555 1_555
C82 C110 1_555 1_555
N8 C85 1_555 1_555
C86 C98 1_555 1_555
C100 N12 1_555 1_555
C103 N12 1_555 1_555
C104 O18 1_555 1_555
C104 O19 1_555 1_555

#END
