
#######################################################################
#
#                 Cambridge Crystallographic Data Centre
#                                CCDC 
#
#######################################################################
#
# If this CIF has been generated from an entry in the Cambridge 
# Structural Database, then it will include bibliographic, chemical, 
# crystal, experimental, refinement or atomic coordinate data resulting 
# from the CCDC's data processing and validation procedures.
#
#######################################################################

data_CAYDOX02
_symmetry_cell_setting           tetragonal
_symmetry_space_group_name_H-M   'P 41'
_symmetry_Int_Tables_number      76
_space_group_name_Hall           'P 4w'
loop_
_symmetry_equiv_pos_site_id
_symmetry_equiv_pos_as_xyz
1 x,y,z
2 -y,x,1/4+z
3 -x,-y,1/2+z
4 y,-x,3/4+z
_cell_length_a                   12.3684(2)
_cell_length_b                   12.3684(2)
_cell_length_c                   7.9094(2)
_cell_angle_alpha                90
_cell_angle_beta                 90
_cell_angle_gamma                90
_cell_volume                     1209.96
loop_
_atom_site_label
_atom_site_type_symbol
_atom_site_fract_x
_atom_site_fract_y
_atom_site_fract_z
Cu1 Cu 0.51404(6) 0.82289(6) 0.52132(14)
C1 C 0.6641(6) 0.6457(6) 0.4426(9)
C2 C 0.6763(7) 0.6182(7) 0.6250(11)
H1 H 0.7235 0.5559 0.6347
H2 H 0.6061 0.5976 0.6692
C3 C 0.7211(7) 0.7079(7) 0.7327(11)
H3 H 0.7272 0.6836 0.8490
H4 H 0.7927 0.7275 0.6931
C4 C 0.6811(6) 0.8841(7) 0.8406(11)
H5 H 0.7592 0.8907 0.8434
H6 H 0.6565 0.8655 0.9533
C5 C 0.6323(6) 0.9891(7) 0.7880(14)
H7 H 0.6570 1.0451 0.8646
H8 H 0.6584 1.0071 0.6758
C6 C 0.5132(6) 0.9898(5) 0.7856(11)
N1 N 0.5995(5) 0.7252(5) 0.3867(8)
N2 N 0.6067(6) 0.7243(5) 0.2158(8)
N3 N 0.6729(6) 0.6457(6) 0.1695(9)
N4 N 0.7104(5) 0.5967(5) 0.3131(8)
N5 N 0.4541(5) 0.9234(4) 0.6905(8)
N6 N 0.3514(5) 0.9451(5) 0.7214(9)
N7 N 0.3464(5) 1.0242(6) 0.8284(10)
N8 N 0.4487(5) 1.0525(5) 0.8710(8)
O1 O 0.6508(4) 0.8003(4) 0.7242(7)
Cu1B Cu 0.48596(6) 1.17711(6) 1.02132(14)
Cu1C Cu 0.82289(6) 0.48596(6) 0.27132(14)
N4A N 0.4033(5) 0.7104(5) 0.5631(8)
N8B N 0.5513(5) 0.9475(5) 0.3710(8)
loop_
_geom_bond_atom_site_label_1
_geom_bond_atom_site_label_2
_geom_bond_site_symmetry_1
_geom_bond_site_symmetry_2
Cu1 N1 1_555 1_555
C1 C2 1_555 1_555
C2 H1 1_555 1_555
H2 C2 1_555 1_555
C3 C2 1_555 1_555
H3 C3 1_555 1_555
H4 C3 1_555 1_555
C4 H5 1_555 1_555
H6 C4 1_555 1_555
C5 C4 1_555 1_555
H7 C5 1_555 1_555
H8 C5 1_555 1_555
C6 C5 1_555 1_555
N1 C1 1_555 1_555
N2 N1 1_555 1_555
N3 N2 1_555 1_555
N4 C1 1_555 1_555
N5 Cu1 1_555 1_555
N6 N5 1_555 1_555
N7 N6 1_555 1_555
N8 C6 1_555 1_555
O1 Cu1 1_555 1_555
Cu1B N8 1_555 1_555
Cu1C N4 1_555 1_555
N4A Cu1 1_555 1_555
N8B Cu1 1_555 1_555
C3 O1 1_555 1_555
C4 O1 1_555 1_555
C6 N5 1_555 1_555
N3 N4 1_555 1_555
N7 N8 1_555 1_555

#END
