
#######################################################################
#
#                 Cambridge Crystallographic Data Centre
#                                CCDC 
#
#######################################################################
#
# If this CIF has been generated from an entry in the Cambridge 
# Structural Database, then it will include bibliographic, chemical, 
# crystal, experimental, refinement or atomic coordinate data resulting 
# from the CCDC's data processing and validation procedures.
#
#######################################################################

data_CAYSIE
_symmetry_cell_setting           rhombohedral
_symmetry_space_group_name_H-M   'R -3'
_symmetry_Int_Tables_number      148
_space_group_name_Hall           '-R 3'
loop_
_symmetry_equiv_pos_site_id
_symmetry_equiv_pos_as_xyz
1 x,y,z
2 -y,x-y,z
3 -x+y,-x,z
4 1/3+x,2/3+y,2/3+z
5 1/3-y,2/3+x-y,2/3+z
6 1/3-x+y,2/3-x,2/3+z
7 2/3+x,1/3+y,1/3+z
8 2/3-y,1/3+x-y,1/3+z
9 2/3-x+y,1/3-x,1/3+z
10 -x,-y,-z
11 y,-x+y,-z
12 x-y,x,-z
13 2/3-x,1/3-y,1/3-z
14 2/3+y,1/3-x+y,1/3-z
15 2/3+x-y,1/3+x,1/3-z
16 1/3-x,2/3-y,2/3-z
17 1/3+y,2/3-x+y,2/3-z
18 1/3+x-y,2/3+x,2/3-z
_cell_length_a                   32.7432(3)
_cell_length_b                   32.7432(3)
_cell_length_c                   9.3124(2)
_cell_angle_alpha                90
_cell_angle_beta                 90
_cell_angle_gamma                120.00
_cell_volume                     8646.38
loop_
_atom_site_label
_atom_site_type_symbol
_atom_site_fract_x
_atom_site_fract_y
_atom_site_fract_z
O1 O -0.4311(4) -0.7263(4) -0.6603(17)
H13 H -0.4233 -0.7121 -0.7456
H14 H -0.4534 -0.7299 -0.5981
Co1 Co 0.3333 0.1666 0.1667
N1 N 0.3349(2) 0.1333(2) -0.0116(5)
N2 N 0.2768(2) 0.1086(2) 0.2370(5)
N3 N 0.4983(4) 0.2370(4) -0.4948(10)
N4 N 0.1961(2) -0.0929(2) -0.0701(6)
C1 C 0.3077(2) 0.0859(2) -0.0387(7)
C2 C 0.3440(3) 0.2594(3) 0.5013(8)
H1 H 0.3576(3) 0.2891(3) 0.5431(8)
C3 C 0.3069(3) 0.2201(3) 0.5513(8)
H2 H 0.2895(3) 0.2173(3) 0.6334(8)
C4 C 0.2990(2) 0.1827(2) 0.4535(7)
C5 C 0.2618(2) 0.1363(2) 0.4658(7)
C6 C 0.2525(2) 0.1022(2) 0.3645(7)
C7 C 0.4512(3) 0.2802(3) -0.0454(8)
H3 H 0.4728(3) 0.2931(3) -0.1201(8)
C8 C 0.4482(3) 0.3033(3) 0.0697(8)
H4 H 0.4670(3) 0.3353(3) 0.0890(8)
C9 C 0.4101(2) 0.2688(2) 0.1579(7)
C10 C 0.2710(2) 0.0536(2) 0.0473(7)
C11 C 0.4373(2) 0.2103(2) -0.2589(8)
C12 C 0.4219(3) 0.2112(3) -0.3985(8)
H5 H 0.3906(3) 0.2023(3) -0.4161(8)
C13 C 0.4539(4) 0.2256(4) -0.5089(9)
H6 H 0.4433(4) 0.2273(4) -0.6002(9)
C14 C 0.5129(4) 0.2357(3) -0.3645(14)
H7 H 0.5444(4) 0.2442(3) -0.3530(14)
C15 C 0.4843(3) 0.2222(3) -0.2413(10)
H8 H 0.4963(3) 0.2214(3) -0.1515(10)
C16 C 0.2451(2) 0.0024(2) 0.0038(7)
C17 C 0.2549(3) -0.0296(3) 0.0683(8)
H9 H 0.3884(3) 0.3527(3) 0.1949(8)
C18 C 0.2303(3) -0.0766(3) 0.0293(8)
H10 H 0.4291(3) 0.4310(3) 0.2599(8)
C19 C 0.4797(3) 0.3954(3) 0.4640(8)
H11 H 0.5033(3) 0.4064(3) 0.5332(8)
C20 C 0.4566(3) 0.3477(3) 0.4322(9)
H12 H 0.4645(3) 0.3275(3) 0.4790(9)
Co1D Co 0.1667 -0.1666 -0.1666
N1L N 0.3318(2) 0.2000(2) 0.3449(5)
C1L C 0.3590(2) 0.2474(2) 0.3720(7)
N2L N 0.3899(2) 0.2247(2) 0.0963(5)
C6L C 0.4142(2) 0.2311(2) -0.0312(7)
C5L C 0.4049(2) 0.1970(2) -0.1325(7)
C4L C 0.3677(2) 0.1506(2) -0.1202(7)
C3L C 0.3598(3) 0.1132(3) -0.2180(8)
C2L C 0.3227(3) 0.0739(3) -0.1680(8)
H1L H 0.3091(3) 0.0442(3) -0.2098(8)
H2L H 0.3772(3) 0.1160(3) -0.3001(8)
C10L C 0.3957(2) 0.2797(2) 0.2860(7)
C16L C 0.4216(2) 0.3309(2) 0.3295(7)
C17L C 0.4118(3) 0.3629(3) 0.2650(8)
C18L C 0.4364(3) 0.4099(3) 0.3040(8)
N4L N 0.4706(2) 0.4262(2) 0.4034(6)
Co1G Co 0.5001 0.5000 0.5000
N4K N 0.2890(3) 0.1961(2) 0.0701(6)
N4H N 0.3777(3) 0.1372(2) 0.2632(6)
C9L C 0.2566(2) 0.0645(2) 0.1754(7)
C8L C 0.2185(3) 0.0300(3) 0.2636(8)
C7L C 0.2155(3) 0.0531(3) 0.3787(8)
H3L H 0.1939(3) 0.0402(3) 0.4534(8)
H4L H 0.1997(3) -0.0020(3) 0.2443(8)
C11L C 0.2294(2) 0.1230(2) 0.5922(8)
C12L C 0.2448(3) 0.1221(3) 0.7318(8)
H5L H 0.2761(3) 0.1310(3) 0.7494(8)
C13L C 0.2128(4) 0.1077(4) 0.8422(9)
N3L N 0.1684(4) 0.0963(4) 0.8281(10)
C14L C 0.1538(4) 0.0976(3) 0.6978(14)
H7L H 0.1223(4) 0.0891(3) 0.6863(14)
C15L C 0.1824(3) 0.1111(3) 0.5746(10)
H8L H 0.1704(3) 0.1119(3) 0.4848(10)
H6L H 0.2234(4) 0.1060(4) 0.9335(9)
C20L C 0.2101(3) -0.0144(3) -0.0989(9)
H9L H 0.2783(3) -0.0194(3) 0.1384(8)
H10L H 0.2376(3) -0.0977(3) 0.0734(8)
C19L C 0.1870(3) -0.0621(3) -0.1307(8)
H11L H 0.1634(3) -0.0731(3) -0.1999(8)
H12L H 0.2022(3) 0.0058(3) -0.1457(9)
loop_
_geom_bond_atom_site_label_1
_geom_bond_atom_site_label_2
_geom_bond_site_symmetry_1
_geom_bond_site_symmetry_2
Co1 N1 1_555 1_555
N1 C1 1_555 1_555
N2 Co1 1_555 1_555
N3 C13 1_555 1_555
N4 C18 1_555 1_555
C1 C10 1_555 1_555
C2 H1 1_555 1_555
C3 C2 1_555 1_555
H2 C3 1_555 1_555
C4 C3 1_555 1_555
C5 C4 1_555 1_555
C6 N2 1_555 1_555
C7 H3 1_555 1_555
C8 C7 1_555 1_555
H4 C8 1_555 1_555
C9 C8 1_555 1_555
C10 C16 1_555 1_555
C11 C12 1_555 1_555
C12 H5 1_555 1_555
C13 C12 1_555 1_555
H6 C13 1_555 1_555
C14 N3 1_555 1_555
H7 C14 1_555 1_555
C15 C11 1_555 1_555
H8 C15 1_555 1_555
C16 C17 1_555 1_555
C17 C18 1_555 1_555
H9 C17L 1_555 1_555
C18 H10L 1_555 1_555
H10 C18L 1_555 1_555
C19 H11 1_555 1_555
C20 C19 1_555 1_555
H12 C20 1_555 1_555
O1 H13 1_555 1_555
H14 O1 1_555 1_555
Co1D N4 1_555 1_555
N1L Co1 1_555 1_555
C1L C2 1_555 1_555
N2L Co1 1_555 1_555
C6L C7 1_555 1_555
C5L C11 1_555 1_555
C4L N1 1_555 1_555
C3L C4L 1_555 1_555
C2L C1 1_555 1_555
H1L C2L 1_555 1_555
H2L C3L 1_555 1_555
C10L C9 1_555 1_555
C16L C20 1_555 1_555
C17L C16L 1_555 1_555
C18L C17L 1_555 1_555
N4L C19 1_555 1_555
Co1G N4L 1_555 1_555
N4K Co1 1_555 1_555
N4H Co1 1_555 1_555
C9L N2 1_555 1_555
C8L C9L 1_555 1_555
C7L C6 1_555 1_555
H3L C7L 1_555 1_555
H4L C8L 1_555 1_555
C11L C5 1_555 1_555
C12L C11L 1_555 1_555
H5L C12L 1_555 1_555
C13L C12L 1_555 1_555
N3L C13L 1_555 1_555
C14L N3L 1_555 1_555
H7L C14L 1_555 1_555
C15L C11L 1_555 1_555
H8L C15L 1_555 1_555
H6L C13L 1_555 1_555
C20L C16 1_555 1_555
H9L C17 1_555 1_555
C19L N4 1_555 1_555
H11L C19L 1_555 1_555
H12L C20L 1_555 1_555
C4 N1L 1_555 1_555
C5 C6 1_555 1_555
C9 N2L 1_555 1_555
C10 C9L 1_555 1_555
C14 C15 1_555 1_555
N1L C1L 1_555 1_555
C1L C10L 1_555 1_555
N2L C6L 1_555 1_555
C6L C5L 1_555 1_555
C5L C4L 1_555 1_555
C3L C2L 1_555 1_555
C10L C16L 1_555 1_555
C18L N4L 1_555 1_555
C8L C7L 1_555 1_555
C14L C15L 1_555 1_555
C20L C19L 1_555 1_555

#END
