
#######################################################################
#
#                 Cambridge Crystallographic Data Centre
#                                CCDC 
#
#######################################################################
#
# If this CIF has been generated from an entry in the Cambridge 
# Structural Database, then it will include bibliographic, chemical, 
# crystal, experimental, refinement or atomic coordinate data resulting 
# from the CCDC's data processing and validation procedures.
#
#######################################################################

data_CAZFOA
_symmetry_cell_setting           triclinic
_symmetry_space_group_name_H-M   'P -1'
_symmetry_Int_Tables_number      2
_space_group_name_Hall           '-P 1'
loop_
_symmetry_equiv_pos_site_id
_symmetry_equiv_pos_as_xyz
1 x,y,z
2 -x,-y,-z
_cell_length_a                   10.3547(16)
_cell_length_b                   10.5172(17)
_cell_length_c                   12.390(2)
_cell_angle_alpha                70.646(2)
_cell_angle_beta                 89.451(2)
_cell_angle_gamma                63.849(2)
_cell_volume                     1127.8
loop_
_atom_site_label
_atom_site_type_symbol
_atom_site_fract_x
_atom_site_fract_y
_atom_site_fract_z
Co1 Co 1.0000 0.0000 1.0000
Co2 Co 1.0000 -0.5000 1.0000
O1 O 1.0207(4) -0.3300(3) 0.8670(2)
O2 O 1.0059(4) -0.1772(3) 0.9585(2)
O3 O 1.4038(4) -0.1889(4) 0.9079(3)
O4 O 1.1958(4) -0.0354(4) 0.9463(3)
O5 O 1.1187(4) -0.6525(4) 0.9165(3)
H1 H 1.1067 -0.7316 0.9381
H2 H 1.1932 -0.6707 0.8829
N1 N 0.6152(5) 0.4822(5) 0.2945(3)
H3 H 0.6133 0.5371 0.2248
N2 N 0.7040(5) 0.4501(5) 0.3899(3)
N3 N 0.5636(5) 0.3363(5) 0.4411(3)
N4 N 0.1966(5) 0.4527(4) 0.1023(3)
N5 N 0.8771(4) 0.1565(4) 0.8281(3)
C1 C 0.2914(5) 0.5040(6) 0.0607(4)
H4 H 0.2827 0.5479 -0.0193
C2 C 0.2188(8) 0.3825(8) 0.2168(4)
H5 H 0.1585 0.3402 0.2482
C3 C 0.3257(7) 0.3689(7) 0.2911(4)
H6 H 0.3342 0.3213 0.3706
C4 C 0.4196(5) 0.4255(5) 0.2483(4)
C5 C 0.4009(5) 0.4957(5) 0.1290(4)
H7 H 0.4616 0.5365 0.0957
C6 C 0.5325(5) 0.4145(5) 0.3266(4)
C7 C 0.6697(5) 0.3605(5) 0.4765(4)
C8 C 0.7405(5) 0.2951(5) 0.5983(4)
C9 C 0.6844(5) 0.2232(5) 0.6840(4)
H8 H 0.5989 0.2205 0.6660
C10 C 0.7545(5) 0.1555(6) 0.7958(4)
H9 H 0.7152 0.1063 0.8524
C11 C 0.9283(5) 0.2322(5) 0.7452(4)
H10 H 1.0108 0.2384 0.7662
C12 C 0.8647(6) 0.3017(5) 0.6302(4)
H11 H 0.9044 0.3521 0.5750
C13 C 1.2682(5) -0.1113(5) 0.8875(4)
C14 C 1.1903(5) -0.0949(5) 0.7771(4)
C15 C 1.2313(6) -0.0306(6) 0.6750(4)
H12 H 1.3109 -0.0124 0.6787
C16 C 1.1580(6) 0.0072(6) 0.5682(4)
H13 H 1.1863 0.0543 0.5016
C17 C 1.0424(5) -0.0238(5) 0.5581(3)
C18 C 1.0101(5) -0.0999(5) 0.6602(4)
H14 H 0.9389 -0.1300 0.6559
C19 C 1.0790(5) -0.1336(5) 0.7691(3)
C20 C 1.0322(5) -0.2182(5) 0.8723(3)
Co1_2 Co 0.0000 0.0000 0.0000
Co1_3 Co 1.0000 0.0000 0.0000
Co2_2 Co 0.0000 0.5000 0.0000
Co2_3 Co 1.0000 0.5000 0.0000
O1A O 0.9793(4) 0.3300(3) 0.1330(2)
O1A_2 O 0.9793(4) -0.6700(3) 1.1330(2)
O2A O 0.9941(4) 0.1772(3) 0.0415(2)
O2A_2 O 0.9941(4) 0.1772(3) 1.0415(2)
O3A O 0.5962(4) 0.1889(4) 0.0921(3)
O4A O 0.8042(4) 0.0354(4) 0.0537(3)
O4A_2 O 0.8042(4) 0.0354(4) 1.0537(3)
O5A O 0.8813(4) -0.3475(4) 1.0835(3)
H1A H 0.8933 -0.2684 1.0619
H2A H 0.8068 -0.3293 1.1171
N1A N 0.3848(5) -0.4822(5) 0.7055(3)
H3A H 0.3867 -0.5371 0.7752
N2A N 0.2960(5) -0.4501(5) 0.6101(3)
N3A N 0.4364(5) -0.3363(5) 0.5589(3)
N4A N 0.8034(5) -0.4527(4) 0.8977(3)
N4_2 N 1.1966(5) -0.5473(4) 1.1023(3)
N5A N 0.1229(4) -0.1565(4) 0.1719(3)
N5A_2 N 1.1229(4) -0.1565(4) 1.1719(3)
C1A C 0.7086(5) -0.5040(6) 0.9393(4)
H4A H 0.7173 -0.5479 1.0193
C2A C 0.7812(8) -0.3825(8) 0.7832(4)
H5A H 0.8415 -0.3402 0.7518
C3A C 0.6743(7) -0.3689(7) 0.7089(4)
H6A H 0.6658 -0.3213 0.6294
C4A C 0.5804(5) -0.4255(5) 0.7517(4)
C5A C 0.5991(5) -0.4957(5) 0.8710(4)
H7A H 0.5384 -0.5365 0.9043
C6A C 0.4675(5) -0.4145(5) 0.6734(4)
C7A C 0.3303(5) -0.3605(5) 0.5235(4)
C8A C 0.2595(5) -0.2951(5) 0.4017(4)
C9A C 0.3156(5) -0.2232(5) 0.3160(4)
H8A H 0.4011 -0.2205 0.3340
C10A C 0.2455(5) -0.1555(6) 0.2042(4)
H9A H 0.2848 -0.1063 0.1476
C11A C 0.0717(5) -0.2322(5) 0.2548(4)
H10A H -0.0108 -0.2384 0.2338
C12A C 0.1353(6) -0.3017(5) 0.3698(4)
H11A H 0.0956 -0.3521 0.4250
C13A C 0.7318(5) 0.1113(5) 0.1125(4)
C14A C 0.8097(5) 0.0949(5) 0.2229(4)
C15A C 0.7687(6) 0.0306(6) 0.3250(4)
H12A H 0.6891 0.0124 0.3213
C16A C 0.8420(6) -0.0072(6) 0.4318(4)
H13A H 0.8137 -0.0543 0.4984
C17A C 0.9576(5) 0.0238(5) 0.4419(3)
C18A C 0.9899(5) 0.0999(5) 0.3398(4)
H14A H 1.0611 0.1300 0.3441
C19A C 0.9210(5) 0.1336(5) 0.2309(3)
C20A C 0.9678(5) 0.2182(5) 0.1277(3)
O6 O 0.1934(16) 0.3287(16) 0.5349(14)
H15 H 0.1519 0.3820 0.5753
H16 H 0.1289 0.3717 0.4795
O7 O 0.0517(13) 0.5075(16) 0.6557(10)
H17 H 0.1093 0.5425 0.6643
H18 H 0.0298 0.4735 0.7217
O8 O 0.5129(7) 0.0236(7) 0.8066(4)
H19 H 0.5114 0.0402 0.7349
H20 H 0.4815 -0.0399 0.8368
O9 O 0.5053(8) 0.0804(7) 0.5646(4)
H21 H 0.5127 0.1568 0.5191
H22 H 0.4152 0.1045 0.5612
O10 O 0.5876(4) 0.7379(5) 0.1015(3)
H23 H 0.5491 0.8158 0.1205
H24 H 0.5498 0.7644 0.0361
loop_
_geom_bond_atom_site_label_1
_geom_bond_atom_site_label_2
_geom_bond_site_symmetry_1
_geom_bond_site_symmetry_2
Co1 O2 1_555 1_555
Co2 O1 1_555 1_555
O1 C20 1_555 1_555
O2 C20 1_555 1_555
O3 C13 1_555 1_555
O4 Co1 1_555 1_555
O5 Co2 1_555 1_555
H1 O5 1_555 1_555
H2 O5 1_555 1_555
N1 H3 1_555 1_555
N2 N1 1_555 1_555
N3 C6 1_555 1_555
N4 C1 1_555 1_555
N5 Co1 1_555 1_555
C1 H4 1_555 1_555
C2 N4 1_555 1_555
H5 C2 1_555 1_555
C3 C2 1_555 1_555
H6 C3 1_555 1_555
C4 C3 1_555 1_555
C5 C1 1_555 1_555
H7 C5 1_555 1_555
C6 N1 1_555 1_555
C7 N2 1_555 1_555
C8 C7 1_555 1_555
C9 C8 1_555 1_555
H8 C9 1_555 1_555
C10 N5 1_555 1_555
H9 C10 1_555 1_555
C11 N5 1_555 1_555
H10 C11 1_555 1_555
C12 C8 1_555 1_555
H11 C12 1_555 1_555
C13 O4 1_555 1_555
C14 C13 1_555 1_555
C15 C14 1_555 1_555
H12 C15 1_555 1_555
C16 C15 1_555 1_555
H13 C16 1_555 1_555
C17 C16 1_555 1_555
C18 C17 1_555 1_555
H14 C18 1_555 1_555
C19 C14 1_555 1_555
C20 C19 1_555 1_555
O6 H15 1_555 1_555
H16 O6 1_555 1_555
O7 H17 1_555 1_555
H18 O7 1_555 1_555
O8 H19 1_555 1_555
H20 O8 1_555 1_555
O9 H21 1_555 1_555
H22 O9 1_555 1_555
O10 H23 1_555 1_555
H24 O10 1_555 1_555
Co1_2 N5A 1_555 1_555
Co1_3 O2A 1_555 1_555
Co2_2 N4 1_555 1_555
Co2_3 O1A 1_555 1_555
O1A C20A 1_555 1_555
O1A_2 Co2 1_555 1_555
O2A C20A 1_555 1_555
O2A_2 Co1 1_555 1_555
O3A C13A 1_555 1_555
O4A Co1_3 1_555 1_555
O4A_2 Co1 1_555 1_555
O5A Co2 1_555 1_555
H1A O5A 1_555 1_555
H2A O5A 1_555 1_555
N1A H3A 1_555 1_555
N2A N1A 1_555 1_555
N3A C6A 1_555 1_555
N4A Co2 1_555 1_555
N4_2 Co2 1_555 1_555
N5A C10A 1_555 1_555
N5A_2 Co1 1_555 1_555
C1A N4A 1_555 1_555
H4A C1A 1_555 1_555
C2A N4A 1_555 1_555
H5A C2A 1_555 1_555
C3A C2A 1_555 1_555
H6A C3A 1_555 1_555
C4A C3A 1_555 1_555
C5A C1A 1_555 1_555
H7A C5A 1_555 1_555
C6A N1A 1_555 1_555
C7A N2A 1_555 1_555
C8A C7A 1_555 1_555
C9A C8A 1_555 1_555
H8A C9A 1_555 1_555
C10A C9A 1_555 1_555
H9A C10A 1_555 1_555
C11A N5A 1_555 1_555
H10A C11A 1_555 1_555
C12A C8A 1_555 1_555
H11A C12A 1_555 1_555
C13A O4A 1_555 1_555
C14A C13A 1_555 1_555
C15A C14A 1_555 1_555
H12A C15A 1_555 1_555
C16A C15A 1_555 1_555
H13A C16A 1_555 1_555
C17A C17 1_555 1_555
C18A C17A 1_555 1_555
H14A C18A 1_555 1_555
C19A C14A 1_555 1_555
C20A C19A 1_555 1_555
N3 C7 1_555 1_555
C4 C5 1_555 1_555
C4 C6 1_555 1_555
C9 C10 1_555 1_555
C11 C12 1_555 1_555
C18 C19 1_555 1_555
N3A C7A 1_555 1_555
C4A C5A 1_555 1_555
C4A C6A 1_555 1_555
C11A C12A 1_555 1_555
C16A C17A 1_555 1_555
C18A C19A 1_555 1_555

#END
