
#######################################################################
#
#                 Cambridge Crystallographic Data Centre
#                                CCDC 
#
#######################################################################
#
# If this CIF has been generated from an entry in the Cambridge 
# Structural Database, then it will include bibliographic, chemical, 
# crystal, experimental, refinement or atomic coordinate data resulting 
# from the CCDC's data processing and validation procedures.
#
#######################################################################

data_CEJZAU
_symmetry_cell_setting           monoclinic
_symmetry_space_group_name_H-M   'C 2/c'
_symmetry_Int_Tables_number      15
_space_group_name_Hall           '-C 2yn'
loop_
_symmetry_equiv_pos_site_id
_symmetry_equiv_pos_as_xyz
1 x,y,z
2 -x,y,1/2-z
3 1/2+x,1/2+y,z
4 1/2-x,1/2+y,1/2-z
5 -x,-y,-z
6 x,-y,1/2+z
7 1/2-x,1/2-y,-z
8 1/2+x,1/2-y,1/2+z
_cell_length_a                   27.4499(17)
_cell_length_b                   17.0811(10)
_cell_length_c                   29.4964(18)
_cell_angle_alpha                90
_cell_angle_beta                 108.5660(10)
_cell_angle_gamma                90
_cell_volume                     13110.4
loop_
_atom_site_label
_atom_site_type_symbol
_atom_site_fract_x
_atom_site_fract_y
_atom_site_fract_z
C1 C 0.61732(9) 0.30089(15) 0.61755(8)
H1 H 0.6314 0.3488 0.6134
C2 C 0.63325(9) 0.26720(15) 0.66231(9)
H2 H 0.6575 0.2922 0.6876
C3 C 0.61295(9) 0.19605(15) 0.66941(8)
C4 C 0.57859(9) 0.16024(14) 0.62976(8)
H3 H 0.5649 0.1114 0.6326
C5 C 0.56496(9) 0.19759(14) 0.58619(8)
H4 H 0.5423 0.1724 0.5599
C6 C 0.62671(9) 0.15717(15) 0.71652(8)
C7 C 0.67727(10) 0.15530(16) 0.74624(9)
H5 H 0.7023 0.1833 0.7380
C8 C 0.69087(9) 0.11183(15) 0.78835(9)
C9 C 0.65372(9) 0.07115(14) 0.80113(8)
H6 H 0.6626 0.0410 0.8288
C10 C 0.60304(9) 0.07600(13) 0.77201(8)
C11 C 0.58931(9) 0.11756(14) 0.73028(8)
H7 H 0.5551 0.1194 0.7111
C12 C 0.74578(9) 0.10948(15) 0.81864(9)
C13 C 0.77153(10) 0.17693(16) 0.83714(10)
H8 H 0.7547 0.2250 0.8311
C14 C 0.82219(10) 0.17308(16) 0.86461(10)
H9 H 0.8388 0.2195 0.8771
C15 C 0.82406(10) 0.04267(16) 0.85567(10)
H10 H 0.8421 -0.0044 0.8609
C16 C 0.77305(11) 0.04112(16) 0.82897(10)
H11 H 0.7570 -0.0063 0.8179
C17 C 0.56796(9) -0.04039(13) 0.79024(8)
C18 C 0.57036(10) -0.07198(14) 0.83368(8)
H12 H 0.5708 -0.0395 0.8591
C19 C 0.57209(10) -0.15280(14) 0.83935(8)
C20 C 0.57103(10) -0.19991(15) 0.80071(8)
H13 H 0.5728 -0.2540 0.8045
C21 C 0.56737(10) -0.16790(14) 0.75652(8)
C22 C 0.56628(9) -0.08677(14) 0.75170(8)
H14 H 0.5644 -0.0641 0.7225
C23 C 0.57296(10) -0.18770(14) 0.88566(8)
C24 C 0.54623(12) -0.15327(16) 0.91319(10)
H15 H 0.5304 -0.1049 0.9045
C25 C 0.54321(12) -0.19081(15) 0.95336(9)
H16 H 0.5243 -0.1672 0.9708
C26 C 0.59399(11) -0.28961(16) 0.94347(9)
H17 H 0.6117 -0.3359 0.9543
C27 C 0.59826(11) -0.25679(16) 0.90276(9)
H18 H 0.6182 -0.2809 0.8865
C28 C 0.56389(10) -0.21919(14) 0.71447(8)
C29 C 0.55082(14) -0.29710(18) 0.71258(10)
H19 H 0.5430 -0.3195 0.7382
C30 C 0.54912(14) -0.34253(17) 0.67375(10)
H20 H 0.5409 -0.3952 0.6745
C31 C 0.56823(13) -0.23923(16) 0.63601(9)
H21 H 0.5732 -0.2173 0.6089
C32 C 0.57147(14) -0.19048(17) 0.67391(9)
H22 H 0.5789 -0.1377 0.6720
C33 C 0.61493(8) 0.47300(13) 0.52720(7)
C34 C 0.66963(8) 0.49684(13) 0.53477(8)
C35 C 0.68369(9) 0.57446(15) 0.53378(9)
H23 H 0.6586 0.6132 0.5258
C36 C 0.73490(10) 0.59471(16) 0.54456(10)
H24 H 0.7443 0.6469 0.5442
C37 C 0.77141(9) 0.53754(17) 0.55576(10)
C38 C 0.75858(10) 0.46030(17) 0.55668(11)
H25 H 0.7840 0.4220 0.5644
C39 C 0.70765(9) 0.43994(15) 0.54599(10)
H26 H 0.6986 0.3875 0.5463
C40 C 0.84576(9) 0.60795(16) 0.55010(10)
C41 C 0.82397(10) 0.63934(19) 0.50505(10)
H27 H 0.7906 0.6259 0.4871
C42 C 0.85154(9) 0.69038(16) 0.48661(9)
H28 H 0.8363 0.7120 0.4565
C43 C 0.90150(8) 0.70999(13) 0.51219(8)
C44 C 0.92296(9) 0.67713(14) 0.55746(9)
H29 H 0.9567 0.6891 0.5751
C45 C 0.89535(9) 0.62752(16) 0.57659(9)
H30 H 0.9100 0.6073 0.6072
C46 C 0.93255(8) 0.76362(12) 0.49228(7)
C47 C 0.46447(8) 0.55344(13) 0.39689(7)
C48 C 0.47201(9) 0.60290(13) 0.35802(8)
C49 C 0.44726(12) 0.58496(17) 0.31035(9)
H31 H 0.4248 0.5426 0.3027
C50 C 0.45526(15) 0.62828(18) 0.27459(9)
H32 H 0.4374 0.6169 0.2428
C51 C 0.49001(13) 0.68914(15) 0.28581(9)
C52 C 0.51378(12) 0.70970(15) 0.33232(9)
H33 H 0.5359 0.7525 0.3396
C53 C 0.50487(10) 0.66678(14) 0.36837(8)
H34 H 0.5211 0.6808 0.4001
Co1 Co 0.5000 0.5000 0.5000
Co2 Co 0.542680(10) 0.332070(16) 0.517000(9)
Co3 Co 0.571210(11) 0.608830(17) 0.580900(10)
N1 N 0.58259(7) 0.26798(11) 0.57975(6)
N2 N 0.84914(7) 0.10674(11) 0.87445(7)
N3 N 0.56584(8) -0.25932(11) 0.96879(7)
N4 N 0.55851(8) -0.31589(12) 0.63527(7)
O1 O 0.56443(6) 0.04017(9) 0.78594(6)
O2 O 0.82387(6) 0.55267(13) 0.57153(8)
O3 O 0.5000 0.73340(15) 0.2500
O4 O 0.60659(5) 0.40116(8) 0.52758(5)
O5 O 0.58137(5) 0.52607(9) 0.52143(5)
O6 O 0.90956(6) 0.79968(9) 0.45428(5)
O7 O 0.97947(5) 0.76870(9) 0.51500(5)
O8 O 0.43796(6) 0.49225(9) 0.38403(5)
O9 O 0.48540(5) 0.57504(8) 0.43981(5)
O10 O 0.50331(5) 0.40343(8) 0.46134(5)
C1E C 0.61732(9) -0.30089(15) 0.11755(8)
H1E H 0.6314 -0.3488 0.1134
C2E C 0.63325(9) -0.26720(15) 0.16231(9)
H2E H 0.6575 -0.2922 0.1876
C3E C 0.61295(9) -0.19605(15) 0.16941(8)
C4E C 0.57859(9) -0.16024(14) 0.12976(8)
H3E H 0.5649 -0.1114 0.1326
C5E C 0.56496(9) -0.19759(14) 0.08619(8)
H4E H 0.5423 -0.1724 0.0599
C6E C 0.62671(9) -0.15717(15) 0.21652(8)
C7E C 0.67727(10) -0.15530(16) 0.24624(9)
H5E H 0.7023 -0.1833 0.2380
C8E C 0.69087(9) -0.11183(15) 0.28835(9)
C9E C 0.65372(9) -0.07115(14) 0.30113(8)
H6E H 0.6626 -0.0410 0.3288
C10E C 0.60304(9) -0.07600(13) 0.27201(8)
C11E C 0.58931(9) -0.11756(14) 0.23028(8)
H7E H 0.5551 -0.1194 0.2111
C12E C 0.74578(9) -0.10948(15) 0.31864(9)
C13E C 0.77153(10) -0.17693(16) 0.33714(10)
H8E H 0.7547 -0.2250 0.3311
C14E C 0.82219(10) -0.17308(16) 0.36461(10)
H9E H 0.8388 -0.2195 0.3771
C15E C 0.82406(10) -0.04267(16) 0.35567(10)
H10E H 0.8421 0.0044 0.3609
C16E C 0.77305(11) -0.04112(16) 0.32897(10)
H11E H 0.7570 0.0063 0.3179
C17E C 0.56796(9) 0.04039(13) 0.29024(8)
C18E C 0.57036(10) 0.07198(14) 0.33368(8)
H12E H 0.5708 0.0395 0.3591
C19E C 0.57209(10) 0.15280(14) 0.33935(8)
C20E C 0.57103(10) 0.19991(15) 0.30071(8)
H13E H 0.5728 0.2540 0.3045
C21E C 0.56737(10) 0.16790(14) 0.25652(8)
C22E C 0.56628(9) 0.08677(14) 0.25170(8)
H14E H 0.5644 0.0641 0.2225
C23E C 0.57296(10) 0.18770(14) 0.38566(8)
C24E C 0.54623(12) 0.15327(16) 0.41319(10)
H15E H 0.5304 0.1049 0.4045
C25E C 0.54321(12) 0.19081(15) 0.45336(9)
H16E H 0.5243 0.1672 0.4708
C26E C 0.59399(11) 0.28961(16) 0.44347(9)
H17E H 0.6117 0.3359 0.4543
C27E C 0.59826(11) 0.25679(16) 0.40276(9)
H18E H 0.6182 0.2809 0.3865
C28E C 0.56389(10) 0.21919(14) 0.21447(8)
C29E C 0.55082(14) 0.29710(18) 0.21258(10)
H19E H 0.5430 0.3195 0.2382
C30E C 0.54912(14) 0.34253(17) 0.17375(10)
H20E H 0.5409 0.3952 0.1745
C31E C 0.56823(13) 0.23923(16) 0.13601(9)
H21E H 0.5732 0.2173 0.1089
C32E C 0.57147(14) 0.19048(17) 0.17391(9)
H22E H 0.5789 0.1377 0.1720
C33D C 0.38507(8) 0.52700(13) 0.47280(7)
C34D C 0.33037(8) 0.50316(13) 0.46523(8)
C35D C 0.31631(9) 0.42554(15) 0.46622(9)
H23D H 0.3414 0.3868 0.4742
C36D C 0.26510(10) 0.40529(16) 0.45544(10)
H24D H 0.2557 0.3531 0.4558
C37D C 0.22859(9) 0.46246(17) 0.44424(10)
C38D C 0.24142(10) 0.53970(17) 0.44332(11)
H25D H 0.2160 0.5780 0.4356
C39D C 0.29235(9) 0.56006(15) 0.45401(10)
H26D H 0.3014 0.6125 0.4537
C40D C 0.15424(9) 0.39205(16) 0.44990(10)
C41D C 0.17603(10) 0.36066(19) 0.49495(10)
H27D H 0.2094 0.3741 0.5129
C42D C 0.14846(9) 0.30962(16) 0.51339(9)
H28D H 0.1637 0.2880 0.5435
C43D C 0.09850(8) 0.29001(13) 0.48781(8)
C44D C 0.07704(9) 0.32287(14) 0.44254(9)
H29D H 0.0433 0.3109 0.4249
C45D C 0.10465(9) 0.37248(16) 0.42341(9)
H30D H 0.0900 0.3927 0.3928
C46D C 0.06745(8) 0.23638(12) 0.50772(7)
C47A C 0.53553(8) 0.55344(13) 0.10311(7)
C48A C 0.52799(9) 0.60290(13) 0.14198(8)
C49A C 0.55274(12) 0.58496(17) 0.18965(9)
H31A H 0.5752 0.5426 0.1973
C50A C 0.54474(15) 0.62828(18) 0.22541(9)
H32A H 0.5626 0.6169 0.2572
C51A C 0.50999(13) 0.68914(15) 0.21419(9)
C52A C 0.48622(12) 0.70970(15) 0.16768(9)
H33A H 0.4641 0.7525 0.1604
C53A C 0.49513(10) 0.66678(14) 0.13163(8)
H34A H 0.4789 0.6808 0.0999
Co1A Co 0.5000 0.5000 0.0000
Co2D Co 0.457320(10) 0.667930(16) 0.483000(9)
Co2E Co 0.542680(10) -0.332070(16) 1.017000(9)
Co2B Co 1.042680(10) 0.832070(16) 0.517000(9)
Co2E_2 Co 0.542680(10) 0.667930(16) 0.017000(9)
Co2F Co -0.042680(10) 0.167930(16) 0.483000(9)
Co2E_3 Co 0.542680(10) -0.332070(16) 0.017000(9)
Co3D Co 0.428790(11) 0.391170(17) 0.419100(10)
Co3C Co 0.928790(11) 0.108830(17) 0.919100(10)
Co3_2 Co 0.571210(11) -0.391170(17) 0.580900(10)
Co3F Co 0.928790(11) 0.891170(17) 0.419100(10)
Co3E Co 0.571210(11) 0.391170(17) 0.080900(10)
Co3B Co 0.071210(11) 0.108830(17) 0.580900(10)
Co3F_2 Co 0.928790(11) -0.108830(17) 0.419100(10)
N1E N 0.58259(7) -0.26798(11) 0.07975(6)
N1D N 0.41741(7) 0.73202(11) 0.42025(6)
N2E N 0.84914(7) -0.10674(11) 0.37445(7)
N2C N 0.65086(7) 0.60674(11) 0.62555(7)
N2G N 0.34914(7) 0.39326(11) 0.37445(7)
N3E N 0.56584(8) 0.25932(11) 0.46879(7)
N3A N 0.43416(8) 0.74068(11) 0.53121(7)
N4E N 0.55851(8) 0.31589(12) 0.13527(7)
N4_2 N 0.55851(8) 0.68411(12) 0.63527(7)
N4D N 0.44149(8) 0.31589(12) 0.36473(7)
O1E O 0.56443(6) -0.04017(9) 0.28594(6)
O2D O 0.17613(6) 0.44733(13) 0.42847(8)
O4D O 0.39341(5) 0.59884(8) 0.47242(5)
O5D O 0.41863(5) 0.47393(9) 0.47857(5)
O6D O 0.09044(6) 0.20032(9) 0.54572(5)
O6F O 0.59044(6) 0.70032(9) 0.54572(5)
O6B O 0.40956(6) 0.29968(9) 0.45428(5)
O7D O 0.02053(5) 0.23130(9) 0.48500(5)
O7B O 0.47947(5) 0.26870(9) 0.51500(5)
O7F O 0.52053(5) 0.73130(9) 0.48500(5)
O8A O 0.56204(6) 0.49225(9) 0.11597(5)
O8D O 0.56204(6) 0.50775(9) 0.61597(5)
O9A O 0.51460(5) 0.57504(8) 0.06019(5)
O9D O 0.51460(5) 0.42496(8) 0.56019(5)
O10D O 0.49669(5) 0.59657(8) 0.53866(5)
O11 O 0.93732(14) 1.0460(2) 0.59674(14)
C54 C 0.9119(2) 0.9880(5) 0.5912(2)
H35 H 0.9121 0.9556 0.5659
N5 N 0.8822(3) 0.9642(5) 0.6187(4)
C55 C 0.8523(4) 0.8875(6) 0.6054(4)
H36 H 0.8645 0.8590 0.5831
H37 H 0.8164 0.8988 0.5910
H38 H 0.8572 0.8566 0.6337
C56 C 0.8907(7) 1.0275(10) 0.6658(5)
H39 H 0.9261 1.0273 0.6854
H40 H 0.8696 1.0112 0.6846
H41 H 0.8810 1.0794 0.6539
loop_
_geom_bond_atom_site_label_1
_geom_bond_atom_site_label_2
_geom_bond_site_symmetry_1
_geom_bond_site_symmetry_2
C1 H1 1_555 1_555
C2 C1 1_555 1_555
H2 C2 1_555 1_555
C3 C2 1_555 1_555
C4 C3 1_555 1_555
H3 C4 1_555 1_555
C5 C4 1_555 1_555
H4 C5 1_555 1_555
C6 C3 1_555 1_555
C7 C6 1_555 1_555
H5 C7 1_555 1_555
C8 C7 1_555 1_555
C9 C8 1_555 1_555
H6 C9 1_555 1_555
C10 C9 1_555 1_555
C11 C6 1_555 1_555
H7 C11 1_555 1_555
C12 C8 1_555 1_555
C13 C12 1_555 1_555
H8 C13 1_555 1_555
C14 C13 1_555 1_555
H9 C14 1_555 1_555
C15 H10 1_555 1_555
C16 C12 1_555 1_555
H11 C16 1_555 1_555
C17 C18 1_555 1_555
C18 H12 1_555 1_555
C19 C18 1_555 1_555
C20 C19 1_555 1_555
H13 C20 1_555 1_555
C21 C20 1_555 1_555
C22 C17 1_555 1_555
H14 C22 1_555 1_555
C23 C19 1_555 1_555
C24 C23 1_555 1_555
H15 C24 1_555 1_555
C25 C24 1_555 1_555
H16 C25 1_555 1_555
C26 H17 1_555 1_555
C27 C23 1_555 1_555
H18 C27 1_555 1_555
C28 C21 1_555 1_555
C29 C28 1_555 1_555
H19 C29 1_555 1_555
C30 C29 1_555 1_555
H20 C30 1_555 1_555
C31 H21 1_555 1_555
C32 C28 1_555 1_555
H22 C32 1_555 1_555
C33 C34 1_555 1_555
C34 C35 1_555 1_555
C35 H23 1_555 1_555
C36 C35 1_555 1_555
H24 C36 1_555 1_555
C37 C36 1_555 1_555
C38 C37 1_555 1_555
H25 C38 1_555 1_555
C39 C34 1_555 1_555
H26 C39 1_555 1_555
C40 C41 1_555 1_555
C41 H27 1_555 1_555
C42 C41 1_555 1_555
H28 C42 1_555 1_555
C43 C42 1_555 1_555
C44 C43 1_555 1_555
H29 C44 1_555 1_555
C45 C40 1_555 1_555
H30 C45 1_555 1_555
C46 C43 1_555 1_555
C47 C48 1_555 1_555
C48 C49 1_555 1_555
C49 H31 1_555 1_555
C50 C49 1_555 1_555
H32 C50 1_555 1_555
C51 C50 1_555 1_555
C52 C51 1_555 1_555
H33 C52 1_555 1_555
C53 C48 1_555 1_555
H34 C53 1_555 1_555
Co1 O5 1_555 1_555
Co2 N1 1_555 1_555
Co3 O5 1_555 1_555
N1 C1 1_555 1_555
N2 C14 1_555 1_555
N3 C25 1_555 1_555
N4 C30 1_555 1_555
O1 C10 1_555 1_555
O2 C37 1_555 1_555
O3 C51 1_555 1_555
O4 C33 1_555 1_555
O5 C33 1_555 1_555
O6 C46 1_555 1_555
O7 C46 1_555 1_555
O8 C47 1_555 1_555
O9 C47 1_555 1_555
O10 Co1 1_555 1_555
O11 C54 1_555 1_555
C54 H35 1_555 1_555
N5 C54 1_555 1_555
C55 N5 1_555 1_555
H36 C55 1_555 1_555
H37 C55 1_555 1_555
H38 C55 1_555 1_555
C56 N5 1_555 1_555
H39 C56 1_555 1_555
H40 C56 1_555 1_555
H41 C56 1_555 1_555
C1E H1E 1_555 1_555
C2E C1E 1_555 1_555
H2E C2E 1_555 1_555
C3E C2E 1_555 1_555
C4E C3E 1_555 1_555
H3E C4E 1_555 1_555
C5E C4E 1_555 1_555
H4E C5E 1_555 1_555
C6E C3E 1_555 1_555
C7E C6E 1_555 1_555
H5E C7E 1_555 1_555
C8E C7E 1_555 1_555
C9E C8E 1_555 1_555
H6E C9E 1_555 1_555
C10E C9E 1_555 1_555
C11E C6E 1_555 1_555
H7E C11E 1_555 1_555
C12E C8E 1_555 1_555
C13E C12E 1_555 1_555
H8E C13E 1_555 1_555
C14E C13E 1_555 1_555
H9E C14E 1_555 1_555
C15E H10E 1_555 1_555
C16E C12E 1_555 1_555
H11E C16E 1_555 1_555
C17E C18E 1_555 1_555
C18E H12E 1_555 1_555
C19E C18E 1_555 1_555
C20E C19E 1_555 1_555
H13E C20E 1_555 1_555
C21E C20E 1_555 1_555
C22E C17E 1_555 1_555
H14E C22E 1_555 1_555
C23E C19E 1_555 1_555
C24E C23E 1_555 1_555
H15E C24E 1_555 1_555
C25E C24E 1_555 1_555
H16E C25E 1_555 1_555
C26E H17E 1_555 1_555
C27E C23E 1_555 1_555
H18E C27E 1_555 1_555
C28E C21E 1_555 1_555
C29E C28E 1_555 1_555
H19E C29E 1_555 1_555
C30E C29E 1_555 1_555
H20E C30E 1_555 1_555
C31E H21E 1_555 1_555
C32E C28E 1_555 1_555
H22E C32E 1_555 1_555
C33D C34D 1_555 1_555
C34D C35D 1_555 1_555
C35D H23D 1_555 1_555
C36D C35D 1_555 1_555
H24D C36D 1_555 1_555
C37D C36D 1_555 1_555
C38D C37D 1_555 1_555
H25D C38D 1_555 1_555
C39D C34D 1_555 1_555
H26D C39D 1_555 1_555
C40D C41D 1_555 1_555
C41D H27D 1_555 1_555
C42D C41D 1_555 1_555
H28D C42D 1_555 1_555
C43D C42D 1_555 1_555
C44D C43D 1_555 1_555
H29D C44D 1_555 1_555
C45D C40D 1_555 1_555
H30D C45D 1_555 1_555
C46D C43D 1_555 1_555
C47A C48A 1_555 1_555
C48A C49A 1_555 1_555
C49A H31A 1_555 1_555
C50A C49A 1_555 1_555
H32A C50A 1_555 1_555
C51A O3 1_555 1_555
C52A C51A 1_555 1_555
H33A C52A 1_555 1_555
C53A C48A 1_555 1_555
H34A C53A 1_555 1_555
Co1A O9A 1_555 1_555
Co2D O9 1_555 1_555
Co2E N3 1_555 1_555
Co2B O7 1_555 1_555
Co2E_2 O9A 1_555 1_555
Co2F O7D 1_555 1_555
Co2E_3 N1E 1_555 1_555
Co3D O8 1_555 1_555
Co3C N2 1_555 1_555
Co3_2 N4 1_555 1_555
Co3F O6 1_555 1_555
Co3E N4E 1_555 1_555
Co3B O6D 1_555 1_555
Co3F_2 N2E 1_555 1_555
N1E C1E 1_555 1_555
N1D Co2D 1_555 1_555
N2E C14E 1_555 1_555
N2C Co3 1_555 1_555
N2G Co3D 1_555 1_555
N3E Co2 1_555 1_555
N3A Co2D 1_555 1_555
N4E C30E 1_555 1_555
N4_2 Co3 1_555 1_555
N4D Co3D 1_555 1_555
O1E C10E 1_555 1_555
O2D C37D 1_555 1_555
O4D C33D 1_555 1_555
O5D Co1 1_555 1_555
O6D C46D 1_555 1_555
O6F Co3 1_555 1_555
O6B Co3D 1_555 1_555
O7D C46D 1_555 1_555
O7B Co2 1_555 1_555
O7F Co2D 1_555 1_555
O8A C47A 1_555 1_555
O8D Co3 1_555 1_555
O9A C47A 1_555 1_555
O9D Co1 1_555 1_555
O10D Co1 1_555 1_555
C5 N1 1_555 1_555
C10 C11 1_555 1_555
C15 C16 1_555 1_555
C15 N2 1_555 1_555
C17 O1 1_555 1_555
C21 C22 1_555 1_555
C26 C27 1_555 1_555
C26 N3 1_555 1_555
C31 C32 1_555 1_555
C31 N4 1_555 1_555
C38 C39 1_555 1_555
C40 O2 1_555 1_555
C44 C45 1_555 1_555
C52 C53 1_555 1_555
Co1 O9 1_555 1_555
Co2 O4 1_555 1_555
Co2 O10 1_555 1_555
Co2 O9D 1_555 1_555
Co3 O10D 1_555 1_555
O10 Co3D 1_555 1_555
C5E N1E 1_555 1_555
C10E C11E 1_555 1_555
C15E C16E 1_555 1_555
C15E N2E 1_555 1_555
C17E O1E 1_555 1_555
C21E C22E 1_555 1_555
C25E N3E 1_555 1_555
C26E C27E 1_555 1_555
C26E N3E 1_555 1_555
C31E C32E 1_555 1_555
C31E N4E 1_555 1_555
C33D O5D 1_555 1_555
C38D C39D 1_555 1_555
C40D O2D 1_555 1_555
C44D C45D 1_555 1_555
C50A C51A 1_555 1_555
C52A C53A 1_555 1_555
Co2D O4D 1_555 1_555
Co2D O10D 1_555 1_555
Co3D O5D 1_555 1_555
Co3E O8A 1_555 1_555

#END
