
#######################################################################
#
#                 Cambridge Crystallographic Data Centre
#                                CCDC 
#
#######################################################################
#
# If this CIF has been generated from an entry in the Cambridge 
# Structural Database, then it will include bibliographic, chemical, 
# crystal, experimental, refinement or atomic coordinate data resulting 
# from the CCDC's data processing and validation procedures.
#
#######################################################################

data_CEKHEH
_symmetry_cell_setting           tetragonal
_symmetry_space_group_name_H-M   'I -4'
_symmetry_Int_Tables_number      82
_space_group_name_Hall           'I -4'
loop_
_symmetry_equiv_pos_site_id
_symmetry_equiv_pos_as_xyz
1 x,y,z
2 -x,-y,z
3 y,-x,-z
4 -y,x,-z
5 1/2+x,1/2+y,1/2+z
6 1/2-x,1/2-y,1/2+z
7 1/2+y,1/2-x,1/2-z
8 1/2-y,1/2+x,1/2-z
_cell_length_a                   29.573(3)
_cell_length_b                   29.573(3)
_cell_length_c                   9.736(3)
_cell_angle_alpha                90
_cell_angle_beta                 90
_cell_angle_gamma                90
_cell_volume                     8514.74
loop_
_atom_site_label
_atom_site_type_symbol
_atom_site_fract_x
_atom_site_fract_y
_atom_site_fract_z
Cu1 Cu 0.26898(4) 0.06604(4) 0.03431(12)
Cu2 Cu 0.26460(4) 0.04490(4) -0.46915(12)
P1 P 0.19687(8) 0.05410(8) -0.2059(2)
P2 P 0.27072(8) 0.12083(8) -0.2417(2)
P3 P 0.20140(8) 0.08466(8) -0.7102(2)
P4 P 0.24127(8) -0.00634(8) -0.7414(2)
O1 O 0.2176(2) 0.1047(2) -0.8412(6)
O2 O 0.2049(2) 0.0295(2) -0.3374(6)
O3 O 0.2905(2) 0.10810(19) -0.1044(5)
O4 O 0.28859(18) 0.09684(19) -0.3660(5)
O5 O 0.2226(2) 0.03882(19) -0.0819(6)
O6 O 0.2328(2) 0.08679(17) -0.5898(6)
O7 O 0.27054(19) 0.01063(18) -0.8570(6)
O8 O 0.2606(2) -0.00456(18) -0.5997(6)
N1 N 0.4095(3) -0.1823(3) 0.3418(8)
N2 N 0.3013(3) 0.0037(3) -0.3474(7)
C1 C 0.2112(3) 0.1118(3) -0.2304(10)
H1 H 0.1990 0.1297 -0.1529
H2 H 0.1967 0.1228 -0.3157
C2 C 0.1890(3) 0.0251(3) -0.7401(9)
H3 H 0.1689 0.0135 -0.6667
H4 H 0.1733 0.0214 -0.8292
C3 C 0.2802(3) 0.1805(3) -0.2643(9)
C4 C 0.2628(3) 0.2019(4) -0.3773(12)
H5 H 0.2480 0.1848 -0.4467
C5 C 0.2669(4) 0.2493(4) -0.3910(17)
H6 H 0.2545 0.2647 -0.4676
C6 C 0.2898(5) 0.2724(4) -0.2883(19)
H7 H 0.2915 0.3044 -0.2927
C7 C 0.3092(5) 0.2514(4) -0.1854(14)
H8 H 0.3265 0.2681 -0.1208
C8 C 0.3048(4) 0.2055(4) -0.1699(11)
H9 H 0.3187 0.1908 -0.0942
C9 C 0.1371(3) 0.0532(3) -0.1684(10)
C10 C 0.1204(4) 0.0775(4) -0.0591(12)
H10 H 0.1405 0.0929 0.0013
C11 C 0.0738(4) 0.0794(4) -0.0376(15)
H11 H 0.0621 0.0969 0.0361
C12 C 0.0449(4) 0.0566(5) -0.1204(15)
H12 H 0.0132 0.0593 -0.1068
C13 C 0.0611(4) 0.0300(4) -0.2225(14)
H13 H 0.0411 0.0119 -0.2757
C14 C 0.1071(3) 0.0295(3) -0.2483(10)
H14 H 0.1182 0.0123 -0.3234
C15 C 0.1493(3) 0.1107(3) -0.6614(10)
C16 C 0.1269(3) 0.1415(3) -0.7430(10)
H15 H 0.1396 0.1492 -0.8296
C17 C 0.0874(4) 0.1612(3) -0.7040(11)
H16 H 0.0723 0.1813 -0.7645
C18 C 0.0699(4) 0.1522(4) -0.5802(12)
H17 H 0.0430 0.1672 -0.5520
C19 C 0.0903(3) 0.1214(4) -0.4923(11)
H18 H 0.0774 0.1145 -0.4055
C20 C 0.1298(3) 0.1010(3) -0.5340(11)
H19 H 0.1441 0.0799 -0.4749
C21 C 0.2299(3) -0.0646(3) -0.7781(10)
C22 C 0.2302(4) -0.0960(4) -0.6813(12)
H20 H 0.2345 -0.0877 -0.5879
C23 C 0.2241(4) -0.1423(4) -0.7176(18)
H21 H 0.2237 -0.1647 -0.6475
C24 C 0.2189(4) -0.1548(4) -0.8478(17)
H22 H 0.2154 -0.1858 -0.8710
C25 C 0.2186(4) -0.1229(4) -0.9459(15)
H23 H 0.2145 -0.1314 -1.0392
C26 C 0.2242(4) -0.0785(4) -0.9132(12)
H24 H 0.2242 -0.0565 -0.9844
C27 C 0.4353(4) -0.1520(4) 0.2845(15)
H25 H 0.4666 -0.1519 0.3060
C28 C 0.4189(5) -0.1197(5) 0.1928(19)
H26 H 0.4391 -0.0985 0.1528
C29 C 0.3742(5) -0.1180(5) 0.1599(16)
C30 C 0.3484(5) -0.1529(4) 0.2120(15)
H27 H 0.3178 -0.1564 0.1843
C31 C 0.3673(4) -0.1823(4) 0.3040(13)
H28 H 0.3481 -0.2046 0.3432
C32 C 0.3554(5) -0.0790(5) 0.0713(13)
H29 H 0.3223 -0.0760 0.0837
H30 H 0.3699 -0.0499 0.0961
C33 C 0.3663(5) -0.0915(4) -0.0709(12)
H31 H 0.3552 -0.1224 -0.0908
H32 H 0.3994 -0.0910 -0.0851
C34 C 0.3431(5) -0.0571(4) -0.1664(13)
C35 C 0.3372(4) 0.0156(4) -0.2775(12)
H33 H 0.3489 0.0453 -0.2887
C36 C 0.3583(4) -0.0135(5) -0.1882(14)
H34 H 0.3843 -0.0033 -0.1399
C37 C 0.3051(5) -0.0679(4) -0.2321(12)
H35 H 0.2911 -0.0963 -0.2155
C38 C 0.2857(4) -0.0377(4) -0.3254(12)
H36 H 0.2599 -0.0473 -0.3758
Cu1G Cu 0.43396(4) -0.23102(4) 0.46569(12)
Cu1_2 Cu 0.26898(4) 0.06604(4) -0.96569(12)
O1_2 O 0.2176(2) 0.1047(2) 0.1588(6)
O7_2 O 0.27054(19) 0.01063(18) 0.1430(6)
N1F N 0.3177(3) 0.0905(3) 0.1582(8)
loop_
_geom_bond_atom_site_label_1
_geom_bond_atom_site_label_2
_geom_bond_site_symmetry_1
_geom_bond_site_symmetry_2
Cu1 O3 1_555 1_555
Cu2 O2 1_555 1_555
P1 O2 1_555 1_555
P2 O3 1_555 1_555
P3 O1 1_555 1_555
P4 O7 1_555 1_555
O1 Cu1_2 1_555 1_555
O4 Cu2 1_555 1_555
O5 Cu1 1_555 1_555
O6 Cu2 1_555 1_555
O7 Cu1_2 1_555 1_555
O8 Cu2 1_555 1_555
N1 C27 1_555 1_555
N2 Cu2 1_555 1_555
C1 P1 1_555 1_555
H1 C1 1_555 1_555
H2 C1 1_555 1_555
C2 P3 1_555 1_555
H3 C2 1_555 1_555
H4 C2 1_555 1_555
C3 P2 1_555 1_555
C4 C3 1_555 1_555
H5 C4 1_555 1_555
C5 C4 1_555 1_555
H6 C5 1_555 1_555
C6 C5 1_555 1_555
H7 C6 1_555 1_555
C7 C6 1_555 1_555
H8 C7 1_555 1_555
C8 C3 1_555 1_555
H9 C8 1_555 1_555
C9 P1 1_555 1_555
C10 C9 1_555 1_555
H10 C10 1_555 1_555
C11 C10 1_555 1_555
H11 C11 1_555 1_555
C12 C11 1_555 1_555
H12 C12 1_555 1_555
C13 C12 1_555 1_555
H13 C13 1_555 1_555
C14 C9 1_555 1_555
H14 C14 1_555 1_555
C15 P3 1_555 1_555
C16 C15 1_555 1_555
H15 C16 1_555 1_555
C17 C16 1_555 1_555
H16 C17 1_555 1_555
C18 C17 1_555 1_555
H17 C18 1_555 1_555
C19 C18 1_555 1_555
H18 C19 1_555 1_555
C20 C15 1_555 1_555
H19 C20 1_555 1_555
C21 P4 1_555 1_555
C22 C21 1_555 1_555
H20 C22 1_555 1_555
C23 C22 1_555 1_555
H21 C23 1_555 1_555
C24 C23 1_555 1_555
H22 C24 1_555 1_555
C25 C24 1_555 1_555
H23 C25 1_555 1_555
C26 C21 1_555 1_555
H24 C26 1_555 1_555
C27 H25 1_555 1_555
C28 C27 1_555 1_555
H26 C28 1_555 1_555
C29 C28 1_555 1_555
C30 C29 1_555 1_555
H27 C30 1_555 1_555
C31 N1 1_555 1_555
H28 C31 1_555 1_555
C32 C29 1_555 1_555
H29 C32 1_555 1_555
H30 C32 1_555 1_555
C33 C32 1_555 1_555
H31 C33 1_555 1_555
H32 C33 1_555 1_555
C34 C33 1_555 1_555
C35 N2 1_555 1_555
H33 C35 1_555 1_555
C36 C34 1_555 1_555
H34 C36 1_555 1_555
C37 C34 1_555 1_555
H35 C37 1_555 1_555
C38 N2 1_555 1_555
H36 C38 1_555 1_555
Cu1G N1 1_555 1_555
O1_2 Cu1 1_555 1_555
O7_2 Cu1 1_555 1_555
N1F Cu1 1_555 1_555
P1 O5 1_555 1_555
P2 O4 1_555 1_555
P2 C1 1_555 1_555
P3 O6 1_555 1_555
P4 O8 1_555 1_555
P4 C2 1_555 1_555
C7 C8 1_555 1_555
C13 C14 1_555 1_555
C19 C20 1_555 1_555
C25 C26 1_555 1_555
C30 C31 1_555 1_555
C35 C36 1_555 1_555
C37 C38 1_555 1_555

#END
