
#######################################################################
#
#                 Cambridge Crystallographic Data Centre
#                                CCDC 
#
#######################################################################
#
# If this CIF has been generated from an entry in the Cambridge 
# Structural Database, then it will include bibliographic, chemical, 
# crystal, experimental, refinement or atomic coordinate data resulting 
# from the CCDC's data processing and validation procedures.
#
#######################################################################

data_CELKEL
_symmetry_cell_setting           orthorhombic
_symmetry_space_group_name_H-M   'P 21 21 21'
_symmetry_Int_Tables_number      19
_space_group_name_Hall           'P 2ac 2ab'
loop_
_symmetry_equiv_pos_site_id
_symmetry_equiv_pos_as_xyz
1 x,y,z
2 1/2+x,1/2-y,-z
3 -x,1/2+y,1/2-z
4 1/2-x,-y,1/2+z
_cell_length_a                   8.5750(17)
_cell_length_b                   8.5750(17)
_cell_length_c                   52.520(11)
_cell_angle_alpha                90
_cell_angle_beta                 90
_cell_angle_gamma                90
_cell_volume                     3861.83
loop_
_atom_site_label
_atom_site_type_symbol
_atom_site_fract_x
_atom_site_fract_y
_atom_site_fract_z
Cu1 Cu 0.90957(13) 0.55432(14) 0.26255(2)
Cu2 Cu 0.63470(14) 0.33875(13) 0.01547(2)
N1 N 0.9228(12) 0.5938(12) 0.30032(15)
N2 N 0.8895(9) 0.5083(9) 0.22531(14)
N3 N 0.6739(10) 0.3237(10) 0.05286(15)
N4 N 0.8970(11) 0.6482(10) 0.47781(15)
O1 O 1.1353(8) 0.5509(8) 0.26153(12)
O2 O 1.6841(7) 0.5314(8) 0.26588(12)
O3 O 1.4448(8) 0.3223(10) 0.23670(17)
H1 H 1.3882 0.2423 0.2369
O4 O 1.3759(11) 0.3104(10) 0.29397(16)
H2 H 1.4101 0.2235 0.2891
O5 O 0.6136(8) 0.5693(8) 0.01869(12)
O6 O 0.6217(8) 1.1139(7) 0.01504(12)
O7 O 0.3954(9) 1.1149(8) -0.00603(14)
O8 O 1.1308(8) 0.3098(7) 0.24638(12)
O9 O 0.3854(10) 0.5634(9) 0.03965(19)
O10 O 1.6880(9) 0.3064(8) 0.28652(16)
C1 C 0.8205(14) 0.6970(13) 0.3106(2)
H3 H 0.7541 0.7533 0.2994
C2 C 0.8078(15) 0.7240(14) 0.3359(2)
H4 H 0.7376 0.8015 0.3418
C3 C 0.8951(13) 0.6409(14) 0.3530(2)
C4 C 1.0038(15) 0.5326(16) 0.3421(2)
H5 H 1.0699 0.4733 0.3529
C5 C 1.0134(14) 0.5134(16) 0.3156(2)
H6 H 1.0862 0.4415 0.3087
C6 C 0.9708(13) 0.5957(13) 0.20802(19)
H7 H 1.0421 0.6720 0.2141
C7 C 0.9529(12) 0.5767(13) 0.18222(19)
H8 H 1.0069 0.6430 0.1707
C8 C 0.8566(13) 0.4618(14) 0.17313(17)
C9 C 0.7739(13) 0.3737(13) 0.1909(2)
H9 H 0.7023 0.2963 0.1854
C10 C 0.7959(12) 0.3991(12) 0.21627(18)
H10 H 0.7412 0.3352 0.2280
C11 C 0.8389(14) 0.4442(14) 0.1457(2)
H11 H 0.9050 0.5063 0.1353
C12 C 0.7401(13) 0.3506(13) 0.1336(2)
H12 H 0.6748 0.2866 0.1438
C13 C 0.7228(13) 0.3370(14) 0.10591(18)
C14 C 0.8051(15) 0.4314(15) 0.0893(2)
H13 H 0.8806 0.5017 0.0958
C15 C 0.7796(11) 0.4257(12) 0.06315(19)
H14 H 0.8364 0.4935 0.0523
C16 C 0.5977(12) 0.2317(13) 0.06891(18)
H15 H 0.5256 0.1591 0.0620
C17 C 0.6158(13) 0.2341(13) 0.0947(2)
H16 H 0.5558 0.1661 0.1051
C18 C 0.8156(12) 0.7332(12) 0.46266(17)
H17 H 0.7426 0.8049 0.4696
C19 C 0.8315(14) 0.7228(14) 0.4364(2)
H18 H 0.7673 0.7858 0.4258
C20 C 0.9365(18) 0.6250(16) 0.4254(3)
C21 C 1.0255(15) 0.5371(15) 0.4416(2)
H19 H 1.0998 0.4659 0.4349
C22 C 1.0076(13) 0.5514(13) 0.46766(19)
H20 H 1.0731 0.4931 0.4787
C23 C 0.9606(16) 0.6035(15) 0.3981(2)
H21 H 1.0427 0.5360 0.3930
C24 C 0.8807(15) 0.6678(16) 0.3805(2)
H22 H 0.8037 0.7407 0.3857
C25 C 1.2011(12) 0.4224(12) 0.25301(17)
C26 C 1.3787(11) 0.4369(12) 0.25218(17)
H23 H 1.4056 0.5413 0.2449
C27 C 1.6217(11) 0.4125(11) 0.27768(16)
C28 C 1.4428(11) 0.4289(12) 0.27927(18)
H24 H 1.4193 0.5306 0.2878
C29 C 0.5182(12) 0.8718(11) 0.00290(18)
H25 H 0.6235 0.8447 -0.0040
C30 C 0.5019(13) 0.6288(13) 0.0297(2)
C31 C 0.5085(12) 0.8086(12) 0.03064(19)
H26 H 0.6084 0.8374 0.0393
C32 C 0.5054(11) 1.0498(11) 0.00373(16)
O11 O 0.4059(10) 0.8025(9) -0.01290(15)
H27 H 0.3164 0.8294 -0.0081
O12 O 0.3886(11) 0.8761(9) 0.04456(16)
H28 H 0.3034 0.8348 0.0405
Cu1_2 Cu 1.90957(13) 0.55432(14) 0.26255(2)
Cu1B Cu 1.09043(13) 0.05432(14) 0.23745(2)
Cu2C Cu 0.86530(14) 0.66125(13) 0.51547(2)
Cu2_2 Cu 0.63470(14) 1.33875(13) 0.01547(2)
Cu2A Cu 0.13470(14) 1.16125(13) -0.01547(2)
N4C N 0.6030(11) 0.3518(10) -0.02219(15)
O2_2 O 0.6841(7) 0.5314(8) 0.26588(12)
O6_2 O 0.6217(8) 0.1139(7) 0.01504(12)
O7A O 0.8954(9) 0.3851(8) 0.00603(14)
O8B O 0.8692(8) 0.8098(7) 0.25362(12)
O13 O 0.1063(13) 0.6812(14) 0.0577(2)
O14 O 0.425(2) 0.5354(15) 0.1916(3)
loop_
_geom_bond_atom_site_label_1
_geom_bond_atom_site_label_2
_geom_bond_site_symmetry_1
_geom_bond_site_symmetry_2
Cu1 N1 1_555 1_555
Cu2 N3 1_555 1_555
N1 C1 1_555 1_555
N2 Cu1 1_555 1_555
N3 C15 1_555 1_555
N4 C18 1_555 1_555
O1 Cu1 1_555 1_555
O2 C27 1_555 1_555
O3 H1 1_555 1_555
O4 H2 1_555 1_555
O5 Cu2 1_555 1_555
O6 C32 1_555 1_555
O7 C32 1_555 1_555
O8 C25 1_555 1_555
O9 C30 1_555 1_555
O10 C27 1_555 1_555
C1 H3 1_555 1_555
C2 C1 1_555 1_555
H4 C2 1_555 1_555
C3 C2 1_555 1_555
C4 C3 1_555 1_555
H5 C4 1_555 1_555
C5 N1 1_555 1_555
H6 C5 1_555 1_555
C6 N2 1_555 1_555
H7 C6 1_555 1_555
C7 C6 1_555 1_555
H8 C7 1_555 1_555
C8 C7 1_555 1_555
C9 C8 1_555 1_555
H9 C9 1_555 1_555
C10 N2 1_555 1_555
H10 C10 1_555 1_555
C11 C8 1_555 1_555
H11 C11 1_555 1_555
C12 C11 1_555 1_555
H12 C12 1_555 1_555
C13 C12 1_555 1_555
C14 C13 1_555 1_555
H13 C14 1_555 1_555
C15 C14 1_555 1_555
H14 C15 1_555 1_555
C16 N3 1_555 1_555
H15 C16 1_555 1_555
C17 C13 1_555 1_555
H16 C17 1_555 1_555
C18 H17 1_555 1_555
C19 C18 1_555 1_555
H18 C19 1_555 1_555
C20 C19 1_555 1_555
C21 C20 1_555 1_555
H19 C21 1_555 1_555
C22 N4 1_555 1_555
H20 C22 1_555 1_555
C23 C20 1_555 1_555
H21 C23 1_555 1_555
C24 C3 1_555 1_555
H22 C24 1_555 1_555
C25 O1 1_555 1_555
C26 O3 1_555 1_555
H23 C26 1_555 1_555
C27 C28 1_555 1_555
C28 O4 1_555 1_555
H24 C28 1_555 1_555
C29 H25 1_555 1_555
C30 O5 1_555 1_555
C31 C29 1_555 1_555
H26 C31 1_555 1_555
C32 C29 1_555 1_555
O11 C29 1_555 1_555
H27 O11 1_555 1_555
O12 C31 1_555 1_555
H28 O12 1_555 1_555
Cu1_2 O2 1_555 1_555
Cu1B O8 1_555 1_555
Cu2C N4 1_555 1_555
Cu2_2 O6 1_555 1_555
Cu2A O7 1_555 1_555
N4C Cu2 1_555 1_555
O2_2 Cu1 1_555 1_555
O6_2 Cu2 1_555 1_555
O7A Cu2 1_555 1_555
O8B Cu1 1_555 1_555
C4 C5 1_555 1_555
C9 C10 1_555 1_555
C16 C17 1_555 1_555
C21 C22 1_555 1_555
C23 C24 1_555 1_555
C25 C26 1_555 1_555
C26 C28 1_555 1_555
C30 C31 1_555 1_555

#END
