
#######################################################################
#
#                 Cambridge Crystallographic Data Centre
#                                CCDC 
#
#######################################################################
#
# If this CIF has been generated from an entry in the Cambridge 
# Structural Database, then it will include bibliographic, chemical, 
# crystal, experimental, refinement or atomic coordinate data resulting 
# from the CCDC's data processing and validation procedures.
#
#######################################################################

data_CETFOX
_symmetry_cell_setting           triclinic
_symmetry_space_group_name_H-M   'P -1'
_symmetry_Int_Tables_number      2
_space_group_name_Hall           '-P 1'
loop_
_symmetry_equiv_pos_site_id
_symmetry_equiv_pos_as_xyz
1 x,y,z
2 -x,-y,-z
_cell_length_a                   7.768(3)
_cell_length_b                   14.344(6)
_cell_length_c                   16.125(7)
_cell_angle_alpha                92.980(7)
_cell_angle_beta                 95.605(7)
_cell_angle_gamma                99.593(7)
_cell_volume                     1758.85
loop_
_atom_site_label
_atom_site_type_symbol
_atom_site_fract_x
_atom_site_fract_y
_atom_site_fract_z
O1 O -0.5981(5) -0.1962(3) -0.0810(2)
O2 O -0.5534(5) -0.4000(3) -0.1307(2)
O3 O 0.3711(5) 0.3359(3) 0.4121(2)
O4 O -0.0711(5) 0.3502(3) 0.1139(2)
O5 O 0.4136(5) 0.1488(3) 0.3432(2)
O6 O 0.0375(5) 0.1723(3) 0.3782(2)
O7 O 0.2085(5) 0.3416(3) 0.1551(2)
O8 O 0.0900(5) 0.0785(3) 0.2149(2)
C1 C -0.4529(7) -0.1754(4) -0.1062(4)
C2 C 0.5080(8) 0.3638(4) 0.3816(4)
C3 C 0.0873(8) 0.3636(4) 0.1032(4)
C4 C 0.5713(8) 0.1464(4) 0.3602(4)
C5 C -0.3052(8) -0.1105(5) -0.0560(4)
H1 H -0.2800 -0.0530 -0.0851
H2 H -0.2019 -0.1404 -0.0545
C6 C 0.6715(8) 0.4093(4) 0.4360(4)
H3 H 0.7045 0.4734 0.4195
H4 H 0.7649 0.3751 0.4241
C7 C 0.1434(8) 0.4039(4) 0.0246(4)
H5 H 0.1677 0.3529 -0.0119
H6 H 0.2525 0.4483 0.0385
C8 C 0.0130(8) 0.4544(4) -0.0235(3)
H7 H -0.0992 0.4121 -0.0344
H8 H 0.0541 0.4696 -0.0769
C11 C 0.6190(8) 0.0798(5) 0.4245(4)
H11 H 0.6715 0.0313 0.3972
H12 H 0.7081 0.1151 0.4660
C12 C 0.4739(8) 0.0322(5) 0.4684(4)
H13 H 0.3850 -0.0040 0.4273
H14 H 0.4207 0.0803 0.4958
Nd1 Nd 0.22432(4) 0.24325(2) 0.275948(18)
Nd2 Nd -0.72824(4) -0.30122(2) -0.212400(18)
O9 O 0.6971(5) 0.1943(3) 0.3289(2)
O10 O -0.0816(5) 0.1829(3) 0.2029(2)
O11 O -0.4251(5) -0.2069(3) -0.1777(2)
O12 O 0.5180(5) 0.3545(3) 0.3036(2)
O13 O 0.9810(5) 0.6463(3) 0.6970(2)
O14 O 1.1208(5) 0.5324(3) 0.7349(3)
C19 C -0.0580(8) 0.0975(4) 0.1960(3)
C20 C 0.8275(7) 0.4880(4) 0.6679(3)
H21 H 0.8301 0.4276 0.6919
H22 H 0.7217 0.5102 0.6817
C21 C 0.9852(8) 0.5579(4) 0.7038(3)
C22 C -0.2087(7) 0.0223(4) 0.1619(3)
H23 H -0.3184 0.0452 0.1661
H24 H -0.2098 -0.0331 0.1940
C23 C 0.8250(7) 0.4756(4) 0.5735(3)
H25 H 0.9266 0.4485 0.5610
H26 H 0.8366 0.5377 0.5514
C24 C 0.6640(7) 0.4144(4) 0.5291(3)
H27 H 0.5609 0.4400 0.5418
H28 H 0.6537 0.3511 0.5486
C25 C -0.1913(8) -0.0038(4) 0.0726(3)
H29 H -0.0777 -0.0226 0.0692
H30 H -0.1938 0.0519 0.0412
C26 C -0.3320(8) -0.0829(4) 0.0317(3)
H31 H -0.3339 -0.1378 0.0644
H32 H -0.4454 -0.0630 0.0320
O1A O 0.5981(5) 0.1962(3) 0.0810(2)
O2A O 0.5534(5) 0.4000(3) 0.1307(2)
O3A O 0.6289(5) 0.6641(3) 0.5879(2)
O4A O 0.0711(5) 0.6498(3) -0.1139(2)
O4A_2 O -0.9289(5) -0.3502(3) -0.1139(2)
O4_2 O 0.9289(5) 0.3502(3) 0.1139(2)
O5A O 0.5864(5) -0.1488(3) 0.6568(2)
O5A_2 O 0.5864(5) 0.8512(3) 0.6568(2)
O6A O 0.9625(5) 0.8277(3) 0.6218(2)
O7A O -0.2085(5) 0.6584(3) -0.1551(2)
O7A_2 O 0.7915(5) 0.6584(3) 0.8449(2)
O8A O -0.0900(5) -0.0785(3) -0.2149(2)
O8A_2 O 0.9100(5) 0.9215(3) 0.7851(2)
C1A C 0.4529(7) 0.1754(4) 0.1062(4)
C2A C 0.4920(8) 0.6362(4) 0.6184(4)
C3A C -0.0873(8) 0.6364(4) -0.1032(4)
C4A C 0.4287(8) -0.1464(4) 0.6398(4)
C5A C 0.3052(8) 0.1105(5) 0.0560(4)
H1A H 0.2800 0.0530 0.0851
H2A H 0.2019 0.1404 0.0545
C6A C 0.3285(8) 0.5907(4) 0.5640(4)
H3A H 0.2955 0.5266 0.5805
H4A H 0.2351 0.6249 0.5759
C7A C -0.1434(8) 0.5961(4) -0.0246(4)
H5A H -0.1677 0.6471 0.0119
H6A H -0.2525 0.5517 -0.0385
C8A C -0.0130(8) 0.5456(4) 0.0235(3)
H7A H 0.0992 0.5879 0.0344
H8A H -0.0541 0.5304 0.0769
C11A C 0.3810(8) -0.0798(5) 0.5755(4)
H11A H 0.3285 -0.0313 0.6028
H12A H 0.2919 -0.1151 0.5340
C12A C 0.5261(8) -0.0322(5) 0.5316(4)
H13A H 0.6150 0.0040 0.5727
H14A H 0.5793 -0.0803 0.5042
Nd1A Nd 0.77568(4) 0.75675(2) 0.724052(18)
Nd1A_2 Nd -0.22432(4) -0.24325(2) -0.275948(18)
Nd1A_3 Nd -0.22432(4) 0.75675(2) -0.275948(18)
Nd1A_4 Nd 0.77568(4) -0.24325(2) 0.724052(18)
Nd2A Nd 0.72824(4) 0.30122(2) 0.212400(18)
Nd2A_2 Nd -0.27176(4) 0.30122(2) 0.212400(18)
Nd2_2 Nd 1.27176(4) 0.69878(2) 0.787600(18)
Nd2_3 Nd 0.27176(4) 0.69878(2) -0.212400(18)
Nd2_4 Nd 0.27176(4) -0.30122(2) 0.787600(18)
Nd2_5 Nd 0.27176(4) -0.30122(2) -0.212400(18)
Nd2_6 Nd 0.27176(4) 0.69878(2) 0.787600(18)
O9A O 0.3029(5) -0.1943(3) 0.6711(2)
O9A_2 O -0.6971(5) -0.1943(3) -0.3289(2)
O10A O 0.0816(5) -0.1829(3) -0.2029(2)
O10A_2 O -0.9184(5) -0.1829(3) -0.2029(2)
O10A_3 O 1.0816(5) 0.8171(3) 0.7971(2)
O10_2 O 0.9184(5) 0.1829(3) 0.2029(2)
O11A O 0.4251(5) 0.2069(3) 0.1777(2)
O11_2 O 0.5749(5) 0.7931(3) 0.8223(2)
O12A O 0.4820(5) 0.6455(3) 0.6964(2)
O12A_2 O -0.5180(5) -0.3545(3) -0.3036(2)
O13A O 0.0190(5) 0.3537(3) 0.3030(2)
O13_2 O -1.0190(5) -0.3537(3) -0.3030(2)
O13A_2 O 1.0190(5) 0.3537(3) 0.3030(2)
O14A O -0.1208(5) 0.4676(3) 0.2651(3)
O14_2 O -0.8792(5) -0.4676(3) -0.2651(3)
O14A_2 O 0.8792(5) 0.4676(3) 0.2651(3)
C19A C 0.0580(8) -0.0975(4) -0.1960(3)
C20A C 0.1725(7) 0.5120(4) 0.3321(3)
H21A H 0.1699 0.5724 0.3081
H22A H 0.2783 0.4898 0.3183
C21A C 0.0148(8) 0.4421(4) 0.2962(3)
C22A C 0.2087(7) -0.0223(4) -0.1619(3)
H23A H 0.3184 -0.0452 -0.1661
H24A H 0.2098 0.0331 -0.1940
C23A C 0.1750(7) 0.5244(4) 0.4265(3)
H25A H 0.0734 0.5515 0.4390
H26A H 0.1634 0.4623 0.4486
C24A C 0.3360(7) 0.5856(4) 0.4709(3)
H27A H 0.4391 0.5600 0.4582
H28A H 0.3463 0.6489 0.4514
C25A C 0.1913(8) 0.0038(4) -0.0726(3)
H29A H 0.0777 0.0226 -0.0692
H30A H 0.1938 -0.0519 -0.0412
C26A C 0.3320(8) 0.0829(4) -0.0317(3)
H31A H 0.3339 0.1378 -0.0644
H32A H 0.4454 0.0630 -0.0320
C9 C 1.0165(9) 0.8830(5) 0.3253(4)
H9 H 1.0549 0.9348 0.2954
C10 C 1.4137(9) 0.7165(5) 0.1079(5)
H10 H 1.3672 0.7463 0.0632
C13 C 1.4152(9) 0.7536(5) 0.1879(5)
C14 C 0.9797(10) 0.8968(6) 0.4064(4)
H15 H 0.9946 0.9587 0.4298
C15 C 1.3460(12) 0.8444(6) 0.2068(6)
H16 H 1.3464 0.8546 0.2668
H17 H 1.4243 0.8972 0.1881
N1 N 1.5455(8) 0.5876(4) 0.1528(5)
C16 C 1.4804(9) 0.6360(5) 0.0938(5)
H18 H 1.4801 0.6135 0.0386
C17 C 1.4810(11) 0.7041(6) 0.2503(5)
H19 H 1.4830 0.7252 0.3059
C18 C 1.5450(10) 0.6216(6) 0.2295(6)
H20 H 1.5899 0.5891 0.2727
C27 C 0.9968(9) 0.7930(6) 0.2888(4)
C28 C 1.0269(11) 0.7728(7) 0.1988(4)
H33 H 1.0592 0.7105 0.1932
H34 H 0.9170 0.7707 0.1640
C29 C 0.9040(11) 0.7420(7) 0.4179(5)
H35 H 0.8633 0.6921 0.4495
N2 N 0.9249(9) 0.8279(5) 0.4523(4)
C30 C 0.9389(10) 0.7202(6) 0.3363(5)
H36 H 0.9232 0.6576 0.3148
C31 C 1.1649(14) 0.8427(6) 0.1660(5)
H37 H 1.1633 0.8279 0.1065
H38 H 1.1355 0.9055 0.1735
loop_
_geom_bond_atom_site_label_1
_geom_bond_atom_site_label_2
_geom_bond_site_symmetry_1
_geom_bond_site_symmetry_2
O1 C1 1_555 1_555
O2 Nd2 1_555 1_555
O3 C2 1_555 1_555
O4 C3 1_555 1_555
O5 C4 1_555 1_555
O6 Nd1 1_555 1_555
O7 C3 1_555 1_555
O8 Nd1 1_555 1_555
C1 C5 1_555 1_555
C2 C6 1_555 1_555
C3 C7 1_555 1_555
C4 C11 1_555 1_555
C5 H1 1_555 1_555
H2 C5 1_555 1_555
C6 H3 1_555 1_555
H4 C6 1_555 1_555
C7 H5 1_555 1_555
H6 C7 1_555 1_555
C8 C7 1_555 1_555
H7 C8 1_555 1_555
H8 C8 1_555 1_555
C9 H9 1_555 1_555
C10 H10 1_555 1_555
C11 H11 1_555 1_555
H12 C11 1_555 1_555
C12 C11 1_555 1_555
H13 C12 1_555 1_555
H14 C12 1_555 1_555
C13 C10 1_555 1_555
C14 C9 1_555 1_555
H15 C14 1_555 1_555
C15 C13 1_555 1_555
H16 C15 1_555 1_555
H17 C15 1_555 1_555
N1 C16 1_555 1_555
C16 C10 1_555 1_555
H18 C16 1_555 1_555
C17 C13 1_555 1_555
H19 C17 1_555 1_555
C18 N1 1_555 1_555
H20 C18 1_555 1_555
Nd1 O3 1_555 1_555
Nd2 O1 1_555 1_555
O9 C4 1_555 1_555
O10 Nd1 1_555 1_555
O11 C1 1_555 1_555
O12 C2 1_555 1_555
O13 C21 1_555 1_555
O14 C21 1_555 1_555
C19 O8 1_555 1_555
C20 H21 1_555 1_555
H22 C20 1_555 1_555
C21 C20 1_555 1_555
C22 C19 1_555 1_555
H23 C22 1_555 1_555
H24 C22 1_555 1_555
C23 C20 1_555 1_555
H25 C23 1_555 1_555
H26 C23 1_555 1_555
C24 C6 1_555 1_555
H27 C24 1_555 1_555
H28 C24 1_555 1_555
C25 C22 1_555 1_555
H29 C25 1_555 1_555
H30 C25 1_555 1_555
C26 C5 1_555 1_555
H31 C26 1_555 1_555
H32 C26 1_555 1_555
C27 C9 1_555 1_555
C28 C27 1_555 1_555
H33 C28 1_555 1_555
H34 C28 1_555 1_555
C29 H35 1_555 1_555
N2 C14 1_555 1_555
C30 C27 1_555 1_555
H36 C30 1_555 1_555
C31 C15 1_555 1_555
H37 C31 1_555 1_555
H38 C31 1_555 1_555
O1A C1A 1_555 1_555
O2A Nd2A 1_555 1_555
O3A C2A 1_555 1_555
O4A C3A 1_555 1_555
O4A_2 Nd2 1_555 1_555
O4_2 Nd2A 1_555 1_555
O5A C4A 1_555 1_555
O5A_2 Nd1A 1_555 1_555
O6A Nd1A 1_555 1_555
O7A C3A 1_555 1_555
O7A_2 Nd1A 1_555 1_555
O8A Nd1A_2 1_555 1_555
O8A_2 Nd1A 1_555 1_555
C1A C5A 1_555 1_555
C2A C6A 1_555 1_555
C3A C7A 1_555 1_555
C4A C11A 1_555 1_555
C5A H1A 1_555 1_555
H2A C5A 1_555 1_555
C6A H3A 1_555 1_555
H4A C6A 1_555 1_555
C7A H5A 1_555 1_555
H6A C7A 1_555 1_555
C8A C8 1_555 1_555
H7A C8A 1_555 1_555
H8A C8A 1_555 1_555
C11A H11A 1_555 1_555
H12A C11A 1_555 1_555
C12A C12 1_555 1_555
H13A C12A 1_555 1_555
H14A C12A 1_555 1_555
Nd1A O13 1_555 1_555
Nd1A_2 O11 1_555 1_555
Nd1A_3 O7A 1_555 1_555
Nd1A_4 O5A 1_555 1_555
Nd2A O9 1_555 1_555
Nd2A_2 O4 1_555 1_555
Nd2_2 O13 1_555 1_555
Nd2_3 O4A 1_555 1_555
Nd2_4 O9A 1_555 1_555
Nd2_5 O10A 1_555 1_555
Nd2_6 O11_2 1_555 1_555
O9A C4A 1_555 1_555
O9A_2 Nd2 1_555 1_555
O10A Nd1A_2 1_555 1_555
O10A_2 Nd2 1_555 1_555
O10A_3 Nd1A 1_555 1_555
O10_2 Nd2A 1_555 1_555
O11A Nd1 1_555 1_555
O11_2 Nd1A 1_555 1_555
O12A C2A 1_555 1_555
O12A_2 Nd2 1_555 1_555
O13A Nd1 1_555 1_555
O13_2 Nd2 1_555 1_555
O13A_2 Nd2A 1_555 1_555
O14A Nd2A_2 1_555 1_555
O14_2 Nd2 1_555 1_555
O14A_2 Nd2A 1_555 1_555
C19A O8A 1_555 1_555
C20A H21A 1_555 1_555
H22A C20A 1_555 1_555
C21A O13A 1_555 1_555
C22A C19A 1_555 1_555
H23A C22A 1_555 1_555
H24A C22A 1_555 1_555
C23A C20A 1_555 1_555
H25A C23A 1_555 1_555
H26A C23A 1_555 1_555
C24A C6A 1_555 1_555
H27A C24A 1_555 1_555
H28A C24A 1_555 1_555
C25A C22A 1_555 1_555
H29A C25A 1_555 1_555
H30A C25A 1_555 1_555
C26A C5A 1_555 1_555
H31A C26A 1_555 1_555
H32A C26A 1_555 1_555
O5 Nd1 1_555 1_555
O7 Nd1 1_555 1_555
C17 C18 1_555 1_555
Nd1 O12 1_555 1_555
Nd2 O11 1_555 1_555
O10 C19 1_555 1_555
O10 Nd2A_2 1_555 1_555
O12 Nd2A 1_555 1_555
O14 Nd2_2 1_555 1_555
C23 C24 1_555 1_555
C25 C26 1_555 1_555
C28 C31 1_555 1_555
C29 N2 1_555 1_555
C29 C30 1_555 1_555
O1A Nd2A 1_555 1_555
O3A Nd1A 1_555 1_555
C1A O11A 1_555 1_555
C7A C8A 1_555 1_555
C11A C12A 1_555 1_555
Nd1A O12A 1_555 1_555
Nd1A_2 O12A_2 1_555 1_555
Nd2A O11A 1_555 1_555
Nd2A_2 O13A 1_555 1_555
Nd2_2 O10A_3 1_555 1_555
Nd2_6 O12A 1_555 1_555
O10A C19A 1_555 1_555
O14A C21A 1_555 1_555
C20A C21A 1_555 1_555
C23A C24A 1_555 1_555
C25A C26A 1_555 1_555

#END
