
#######################################################################
#
#                 Cambridge Crystallographic Data Centre
#                                CCDC 
#
#######################################################################
#
# If this CIF has been generated from an entry in the Cambridge 
# Structural Database, then it will include bibliographic, chemical, 
# crystal, experimental, refinement or atomic coordinate data resulting 
# from the CCDC's data processing and validation procedures.
#
#######################################################################

data_CETNUL
_symmetry_cell_setting           rhombohedral
_symmetry_space_group_name_H-M   'R -3'
_symmetry_Int_Tables_number      148
_space_group_name_Hall           '-R 3'
loop_
_symmetry_equiv_pos_site_id
_symmetry_equiv_pos_as_xyz
1 x,y,z
2 -y,x-y,z
3 -x+y,-x,z
4 2/3+x,1/3+y,1/3+z
5 2/3-y,1/3+x-y,1/3+z
6 2/3-x+y,1/3-x,1/3+z
7 1/3+x,2/3+y,2/3+z
8 1/3-y,2/3+x-y,2/3+z
9 1/3-x+y,2/3-x,2/3+z
10 -x,-y,-z
11 y,-x+y,-z
12 x-y,x,-z
13 1/3-x,2/3-y,2/3-z
14 1/3+y,2/3-x+y,2/3-z
15 1/3+x-y,2/3+x,2/3-z
16 2/3-x,1/3-y,1/3-z
17 2/3+y,1/3-x+y,1/3-z
18 2/3+x-y,1/3+x,1/3-z
_cell_length_a                   20.1077(11)
_cell_length_b                   20.1077(11)
_cell_length_c                   20.234(2)
_cell_angle_alpha                90
_cell_angle_beta                 90
_cell_angle_gamma                120.00
_cell_volume                     7084.96
loop_
_atom_site_label
_atom_site_type_symbol
_atom_site_fract_x
_atom_site_fract_y
_atom_site_fract_z
N1 N 0.2803(2) 0.55563(18) 0.09932(16)
N2 N 0.2730(2) 0.55942(19) 0.03213(16)
N3 N 0.2325(3) 0.4403(2) 0.05854(19)
N4 N 0.1795(3) 0.3209(2) 0.10817(19)
N5 N 0.1268(3) 0.2054(2) 0.1644(2)
N6 N 0.1070(4) 0.1819(3) 0.2698(2)
N7 N 0.0672(2) 0.1135(2) 0.23558(18)
C1 C 0.2556(3) 0.4840(2) 0.1144(2)
H1 H 0.2540 0.4655 0.1569
C2 C 0.2438(3) 0.4901(2) 0.0089(2)
H2 H 0.2324 0.4767 -0.0353
C3 C 0.2048(3) 0.3599(3) 0.0528(2)
C4 C 0.2062(5) 0.3289(3) -0.0078(3)
H3 H 0.2244 0.3592 -0.0455
C5 C 0.1795(5) 0.2510(3) -0.0100(3)
H4 H 0.1788 0.2275 -0.0497
C6 C 0.1535(4) 0.2080(3) 0.0477(3)
H5 H 0.1363 0.1556 0.0480
C7 C 0.1545(3) 0.2462(3) 0.1040(2)
C8 C 0.0811(3) 0.1293(3) 0.1735(2)
H6 H 0.0621 0.0931 0.1396
C9 C 0.1408(5) 0.2351(3) 0.2254(3)
H7 H 0.1708 0.2871 0.2348
Cd1 Cd 0.3333 0.6667 0.1667
Cd2 Cd 0.3333 0.6667 -0.03816(2)
N1A N 0.44437(18) 0.72467(27) 0.09932(16)
N1B N 0.27533(27) 0.7197(2) 0.09932(16)
N1P N 0.22230(18) 0.60866(27) 0.23401(16)
N1Q N 0.39134(27) 0.6136(2) 0.23401(16)
N1O N 0.3864(2) 0.77770(18) 0.23401(16)
N1F N 0.6136(2) 1.22230(18) -0.23401(16)
N1G N -0.22230(18) 0.39134(27) -0.23401(16)
N1C N -0.0530(2) -0.11104(18) 0.43265(16)
N1D N 0.11104(18) 0.05800(27) 0.43265(16)
N1E N -0.05800(27) 0.0530(2) 0.43265(16)
N2A N 0.44058(19) 0.71358(28) 0.03213(16)
N2B N 0.28642(28) 0.7270(2) 0.03213(16)
N2P N 0.22609(19) 0.61975(28) 0.30120(16)
N2Q N 0.38025(28) 0.6063(2) 0.30120(16)
N2O N 0.3937(2) 0.77391(19) 0.30120(16)
N2F N 0.6063(2) 1.22609(19) -0.30120(16)
N2G N -0.22609(19) 0.38025(28) -0.30120(16)
N2C N -0.0603(2) -0.10725(19) 0.36546(16)
N2D N 0.10725(19) 0.04691(28) 0.36546(16)
N2E N -0.04691(28) 0.0603(2) 0.36546(16)
N3A N 0.5597(2) 0.7922(4) 0.05854(19)
N3P N 0.1070(2) 0.5411(4) 0.27479(19)
N3Q N 0.4589(4) 0.5658(3) 0.27479(19)
N3F N 0.5658(3) 1.1070(2) -0.27479(19)
N3G N -0.1070(2) 0.4589(4) -0.27479(19)
N4A N 0.6791(2) 0.8586(4) 0.10817(19)
N4P N -0.0124(2) 0.4747(4) 0.22516(19)
N4Q N 0.5253(4) 0.5128(3) 0.22516(19)
N4F N 0.5128(3) 0.9876(2) -0.22516(19)
N4G N 0.0124(2) 0.5253(4) -0.22516(19)
N5A N 0.7946(2) 0.9214(4) 0.1644(2)
N5P N -0.1279(2) 0.4119(4) 0.1689(2)
N5Q N 0.5881(4) 0.4601(3) 0.1689(2)
N5F N 0.4601(3) 0.8721(2) -0.1689(2)
N5G N 0.1279(2) 0.5881(4) -0.1689(2)
N6A N 0.8181(3) 0.9251(5) 0.2698(2)
N6P N -0.1514(3) 0.4082(5) 0.0635(2)
N6Q N 0.5918(5) 0.4403(4) 0.0635(2)
N6F N 0.4403(4) 0.8486(3) -0.0635(2)
N6G N 0.1514(3) 0.5918(5) -0.0635(2)
N7A N 0.8865(2) 0.9537(3) 0.23558(18)
N7P N -0.2198(2) 0.3796(3) 0.09775(18)
N7Q N 0.6204(3) 0.4005(2) 0.09775(18)
N7F N 0.4005(2) 0.7802(2) -0.09775(18)
N7G N 0.2198(2) 0.6204(3) -0.09775(18)
N7H N 0.3796(3) 0.5995(2) -0.09775(18)
N7M N 0.4468(2) 0.7130(3) 0.43109(18)
N7N N 0.2870(3) 0.7339(2) 0.43109(18)
N7L N 0.2661(2) 0.5532(2) 0.43109(18)
N7A_2 N -0.1135(2) -0.0463(3) 0.23558(18)
N7B N 0.0463(3) -0.0672(2) 0.23558(18)
C1A C 0.5160(2) 0.7716(4) 0.1144(2)
C1P C 0.1507(2) 0.5617(4) 0.2189(2)
C1Q C 0.4383(4) 0.5889(3) 0.2189(2)
C1F C 0.5889(3) 1.1507(2) -0.2189(2)
C1G C -0.1507(2) 0.4383(4) -0.2189(2)
H1A H 0.5345 0.7885 0.1569
H1P H 0.1322 0.5448 0.1764
H1Q H 0.4552 0.5873 0.1764
H1F H 0.5873 1.1322 -0.1764
H1G H -0.1322 0.4552 -0.1764
C2A C 0.5099(2) 0.7537(4) 0.0089(2)
C2P C 0.1568(2) 0.5796(4) 0.3244(2)
C2Q C 0.4204(4) 0.5771(3) 0.3244(2)
C2F C 0.5771(3) 1.1568(2) -0.3244(2)
C2G C -0.1568(2) 0.4204(4) -0.3244(2)
H2A H 0.5233 0.7557 -0.0353
H2P H 0.1434 0.5776 0.3686
H2Q H 0.4224 0.5657 0.3686
H2F H 0.5657 1.1434 -0.3686
H2G H -0.1434 0.4224 -0.3686
C3A C 0.6401(3) 0.8449(4) 0.0528(2)
C3P C 0.0266(3) 0.4884(4) 0.2805(2)
C3Q C 0.5116(4) 0.5381(3) 0.2805(2)
C3F C 0.5381(3) 1.0266(3) -0.2805(2)
C3G C -0.0266(3) 0.5116(4) -0.2805(2)
C4A C 0.6711(3) 0.8773(6) -0.0078(3)
C4P C -0.0044(3) 0.4560(6) 0.3411(3)
C4Q C 0.5440(6) 0.5395(5) 0.3411(3)
C4F C 0.5395(5) 0.9956(3) -0.3411(3)
C4G C 0.0044(3) 0.5440(6) -0.3411(3)
H3A H 0.6408 0.8652 -0.0455
H3P H 0.0259 0.4681 0.3788
H3Q H 0.5319 0.5577 0.3788
H3F H 0.5577 1.0259 -0.3788
H3G H -0.0259 0.5319 -0.3788
C5A C 0.7490(3) 0.9285(6) -0.0100(3)
C5P C -0.0823(3) 0.4048(6) 0.3433(3)
C5Q C 0.5952(6) 0.5128(5) 0.3433(3)
C5F C 0.5128(5) 0.9177(3) -0.3433(3)
C5G C 0.0823(3) 0.5952(6) -0.3433(3)
H4A H 0.7725 0.9513 -0.0497
H4P H -0.1058 0.3820 0.3830
H4Q H 0.6180 0.5121 0.3830
H4F H 0.5121 0.8942 -0.3830
H4G H 0.1058 0.6180 -0.3830
C6A C 0.7920(3) 0.9455(5) 0.0477(3)
C6P C -0.1253(3) 0.3878(5) 0.2856(3)
C6Q C 0.6122(5) 0.4868(4) 0.2856(3)
C6F C 0.4868(4) 0.8747(3) -0.2856(3)
C6G C 0.1253(3) 0.6122(5) -0.2856(3)
H5A H 0.8444 0.9807 0.0480
H5P H -0.1777 0.3526 0.2853
H5Q H 0.6474 0.4696 0.2853
H5F H 0.4696 0.8223 -0.2853
H5G H 0.1777 0.6474 -0.2853
C7A C 0.7538(3) 0.9083(4) 0.1040(2)
C7P C -0.0871(3) 0.4250(4) 0.2293(2)
C7Q C 0.5750(4) 0.4878(3) 0.2293(2)
C7F C 0.4878(3) 0.9129(3) -0.2293(2)
C7G C 0.0871(3) 0.5750(4) -0.2293(2)
C8A C 0.8707(3) 0.9518(4) 0.1735(2)
C8P C -0.2040(3) 0.3815(4) 0.1598(2)
C8Q C 0.6185(4) 0.4144(3) 0.1598(2)
C8F C 0.4144(3) 0.7960(3) -0.1598(2)
C8G C 0.2040(3) 0.6185(4) -0.1598(2)
H6A H 0.9069 0.9690 0.1396
H6P H -0.2402 0.3643 0.1937
H6Q H 0.6357 0.3954 0.1937
H6F H 0.3954 0.7598 -0.1937
H6G H 0.2402 0.6357 -0.1937
C9A C 0.7649(3) 0.9057(6) 0.2254(3)
C9P C -0.0982(3) 0.4276(6) 0.1079(3)
C9Q C 0.5724(6) 0.4741(5) 0.1079(3)
C9F C 0.4741(5) 0.9018(3) -0.1079(3)
C9G C 0.0982(3) 0.5724(6) -0.1079(3)
H7A H 0.7129 0.8837 0.2348
H7P H -0.0462 0.4496 0.0985
H7Q H 0.5504 0.5041 0.0985
H7F H 0.5041 0.9538 -0.0985
H7G H 0.0462 0.5504 -0.0985
Cd1F Cd 0.6666 1.3334 -0.1666
Cd1G Cd -0.3334 0.3333 -0.1666
Cd1C Cd -0.0000 0.0000 0.5000
Cd2P Cd 0.3334 0.6667 0.37149(2)
Cd2C Cd -0.0000 0.0000 0.29517(2)
Cd2D Cd 1.0000 0.9999 0.29517(2)
Cd2J Cd -0.3333 0.3334 0.03816(2)
Cd2K Cd 0.6666 0.3333 0.03816(2)
Cd2F Cd 0.6666 1.3334 -0.37149(2)
Cd2G Cd -0.3334 0.3333 -0.37149(2)
Si1 Si 0.0000 0.0000 0.0000
F1 F 0.07568(17) 0.02131(17) 0.04860(14)
F1A F -0.02131(17) 0.05437(24) 0.04860(14)
F1B F -0.05437(24) -0.07568(17) 0.04860(14)
F1I F -0.07568(17) -0.02131(17) -0.04860(14)
F1J F 0.02131(17) -0.05437(24) -0.04860(14)
F1K F 0.05437(24) 0.07568(17) -0.04860(14)
O1 O 0.1177(5) 0.2389(4) 0.4034(3)
O2 O 0.0063(9) 0.2800(9) 0.3892(9)
O3 O 0.2120(16) 0.4364(11) 0.8530(7)
F2 F 0.2369(11) -0.0043(13) 0.1621(11)
F3 F 0.2981(14) 0.0493(13) 0.2588(9)
F4 F 0.3000(12) -0.0542(10) 0.2161(10)
F5 F 0.3660(11) 0.0636(12) 0.1668(12)
B1 B 0.3001(10) 0.0131(10) 0.2009(8)
O4? O 0.145(2) 0.424(2) 0.8680(16)
O5? O 0.291(3) 0.007(2) 0.1505(10)
loop_
_geom_bond_atom_site_label_1
_geom_bond_atom_site_label_2
_geom_bond_site_symmetry_1
_geom_bond_site_symmetry_2
N1 N2 1_555 1_555
N2 C2 1_555 1_555
N3 C1 1_555 1_555
N4 C3 1_555 1_555
N5 C7 1_555 1_555
N6 N7 1_555 1_555
N7 C8 1_555 1_555
C1 N1 1_555 1_555
H1 C1 1_555 1_555
C2 N3 1_555 1_555
H2 C2 1_555 1_555
C3 N3 1_555 1_555
C4 C3 1_555 1_555
H3 C4 1_555 1_555
C5 C4 1_555 1_555
H4 C5 1_555 1_555
C6 C5 1_555 1_555
H5 C6 1_555 1_555
C7 N4 1_555 1_555
C8 N5 1_555 1_555
H6 C8 1_555 1_555
C9 N5 1_555 1_555
H7 C9 1_555 1_555
Si1 F1 1_555 1_555
F2 B1 1_555 1_555
F3 B1 1_555 1_555
F4 B1 1_555 1_555
F5 B1 1_555 1_555
Cd1 N1 1_555 1_555
Cd2 N2 1_555 1_555
N1A Cd1 1_555 1_555
N1B Cd1 1_555 1_555
N1P Cd1 1_555 1_555
N1Q Cd1 1_555 1_555
N1O Cd1 1_555 1_555
N1F N2F 1_555 1_555
N1G N2G 1_555 1_555
N1C N2C 1_555 1_555
N1D N2D 1_555 1_555
N1E N2E 1_555 1_555
N2A Cd2 1_555 1_555
N2B Cd2 1_555 1_555
N2P N1P 1_555 1_555
N2Q N1Q 1_555 1_555
N2O N1O 1_555 1_555
N2F C2F 1_555 1_555
N2G C2G 1_555 1_555
N2C Cd2C 1_555 1_555
N2D Cd2C 1_555 1_555
N2E Cd2C 1_555 1_555
N3A C1A 1_555 1_555
N3P C1P 1_555 1_555
N3Q C1Q 1_555 1_555
N3F C1F 1_555 1_555
N3G C1G 1_555 1_555
N4A C3A 1_555 1_555
N4P C3P 1_555 1_555
N4Q C3Q 1_555 1_555
N4F C3F 1_555 1_555
N4G C3G 1_555 1_555
N5A C7A 1_555 1_555
N5P C7P 1_555 1_555
N5Q C7Q 1_555 1_555
N5F C7F 1_555 1_555
N5G C7G 1_555 1_555
N6A N7A 1_555 1_555
N6P N7P 1_555 1_555
N6Q N7Q 1_555 1_555
N6F N7F 1_555 1_555
N6G N7G 1_555 1_555
N7A C8A 1_555 1_555
N7P C8P 1_555 1_555
N7Q C8Q 1_555 1_555
N7F Cd2 1_555 1_555
N7G Cd2 1_555 1_555
N7H Cd2 1_555 1_555
N7M Cd2P 1_555 1_555
N7N Cd2P 1_555 1_555
N7L Cd2P 1_555 1_555
N7A_2 Cd2C 1_555 1_555
N7B Cd2C 1_555 1_555
C1A N1A 1_555 1_555
C1P N1P 1_555 1_555
C1Q N1Q 1_555 1_555
C1F N1F 1_555 1_555
C1G N1G 1_555 1_555
H1A C1A 1_555 1_555
H1P C1P 1_555 1_555
H1Q C1Q 1_555 1_555
H1F C1F 1_555 1_555
H1G C1G 1_555 1_555
C2A N2A 1_555 1_555
C2P N2P 1_555 1_555
C2Q N2Q 1_555 1_555
C2F N3F 1_555 1_555
C2G N3G 1_555 1_555
H2A C2A 1_555 1_555
H2P C2P 1_555 1_555
H2Q C2Q 1_555 1_555
H2F C2F 1_555 1_555
H2G C2G 1_555 1_555
C3A N3A 1_555 1_555
C3P N3P 1_555 1_555
C3Q N3Q 1_555 1_555
C3F N3F 1_555 1_555
C3G N3G 1_555 1_555
C4A C3A 1_555 1_555
C4P C3P 1_555 1_555
C4Q C3Q 1_555 1_555
C4F C3F 1_555 1_555
C4G C3G 1_555 1_555
H3A C4A 1_555 1_555
H3P C4P 1_555 1_555
H3Q C4Q 1_555 1_555
H3F C4F 1_555 1_555
H3G C4G 1_555 1_555
C5A C4A 1_555 1_555
C5P C4P 1_555 1_555
C5Q C4Q 1_555 1_555
C5F C4F 1_555 1_555
C5G C4G 1_555 1_555
H4A C5A 1_555 1_555
H4P C5P 1_555 1_555
H4Q C5Q 1_555 1_555
H4F C5F 1_555 1_555
H4G C5G 1_555 1_555
C6A C5A 1_555 1_555
C6P C5P 1_555 1_555
C6Q C5Q 1_555 1_555
C6F C5F 1_555 1_555
C6G C5G 1_555 1_555
H5A C6A 1_555 1_555
H5P C6P 1_555 1_555
H5Q C6Q 1_555 1_555
H5F C6F 1_555 1_555
H5G C6G 1_555 1_555
C7A N4A 1_555 1_555
C7P N4P 1_555 1_555
C7Q N4Q 1_555 1_555
C7F N4F 1_555 1_555
C7G N4G 1_555 1_555
C8A N5A 1_555 1_555
C8P N5P 1_555 1_555
C8Q N5Q 1_555 1_555
C8F N5F 1_555 1_555
C8G N5G 1_555 1_555
H6A C8A 1_555 1_555
H6P C8P 1_555 1_555
H6Q C8Q 1_555 1_555
H6F C8F 1_555 1_555
H6G C8G 1_555 1_555
C9A N5A 1_555 1_555
C9P N5P 1_555 1_555
C9Q N5Q 1_555 1_555
C9F N5F 1_555 1_555
C9G N5G 1_555 1_555
H7A C9A 1_555 1_555
H7P C9P 1_555 1_555
H7Q C9Q 1_555 1_555
H7F C9F 1_555 1_555
H7G C9G 1_555 1_555
F1A Si1 1_555 1_555
F1B Si1 1_555 1_555
F1I Si1 1_555 1_555
F1J Si1 1_555 1_555
F1K Si1 1_555 1_555
Cd1F N1F 1_555 1_555
Cd1G N1G 1_555 1_555
Cd1C N1C 1_555 1_555
Cd2P N2P 1_555 1_555
Cd2C N7 1_555 1_555
Cd2D N7A 1_555 1_555
Cd2J N7P 1_555 1_555
Cd2K N7Q 1_555 1_555
Cd2F N2F 1_555 1_555
Cd2G N2G 1_555 1_555
N6 C9 1_555 1_555
C6 C7 1_555 1_555
N1A N2A 1_555 1_555
N1B N2B 1_555 1_555
N1D Cd1C 1_555 1_555
N1E Cd1C 1_555 1_555
N2Q Cd2P 1_555 1_555
N2O Cd2P 1_555 1_555
N3A C2A 1_555 1_555
N3P C2P 1_555 1_555
N3Q C2Q 1_555 1_555
N6A C9A 1_555 1_555
N6P C9P 1_555 1_555
N6Q C9Q 1_555 1_555
N6F C9F 1_555 1_555
N6G C9G 1_555 1_555
N7F C8F 1_555 1_555
N7G C8G 1_555 1_555
C6A C7A 1_555 1_555
C6P C7P 1_555 1_555
C6Q C7Q 1_555 1_555
C6F C7F 1_555 1_555
C6G C7G 1_555 1_555

#END
