
#######################################################################
#
#                 Cambridge Crystallographic Data Centre
#                                CCDC 
#
#######################################################################
#
# If this CIF has been generated from an entry in the Cambridge 
# Structural Database, then it will include bibliographic, chemical, 
# crystal, experimental, refinement or atomic coordinate data resulting 
# from the CCDC's data processing and validation procedures.
#
#######################################################################

data_CEZNAY
_symmetry_cell_setting           orthorhombic
_symmetry_space_group_name_H-M   'C 2 2 21'
_symmetry_Int_Tables_number      20
_space_group_name_Hall           'C 2n 2'
loop_
_symmetry_equiv_pos_site_id
_symmetry_equiv_pos_as_xyz
1 x,y,z
2 -x,-y,1/2+z
3 -x,y,1/2-z
4 x,-y,-z
5 1/2+x,1/2+y,z
6 1/2-x,1/2-y,1/2+z
7 1/2-x,1/2+y,1/2-z
8 1/2+x,1/2-y,-z
_cell_length_a                   7.9714(16)
_cell_length_b                   17.775(4)
_cell_length_c                   21.312(4)
_cell_angle_alpha                90
_cell_angle_beta                 90
_cell_angle_gamma                90
_cell_volume                     3019.73
loop_
_atom_site_label
_atom_site_type_symbol
_atom_site_fract_x
_atom_site_fract_y
_atom_site_fract_z
O1 O 0.3291(12) 0.1930(4) 0.3891(6)
O2 O 0.1890(11) 0.1001(5) 0.4300(4)
C1 C 0.2013(17) 0.1705(7) 0.4137(7)
U1 U -0.03065(6) 0.57160(2) 0.38192(2)
O3 O 0.0767(10) 0.4431(4) 0.3833(5)
O4 O 0.2465(11) 0.5606(6) 0.3283(4)
O5 O -0.1718(12) 0.4556(5) 0.4255(5)
O6 O 0.1271(13) 0.6722(5) 0.3310(5)
C2 C 0.0581(17) 0.2220(6) 0.4254(6)
C3 C 0.3831(19) 0.6635(8) 0.2777(6)
O7 O 0.0907(11) 0.2951(4) 0.4102(4)
O8 O 0.5000 0.6161(7) 0.2500
O9 O -0.1323(12) 0.5544(5) 0.3107(4)
O10 O 0.0719(11) 0.5896(5) 0.4540(4)
C4 C -0.0570(16) 0.3329(7) 0.4222(5)
C5 C -0.0490(19) 0.4135(7) 0.4110(6)
C6 C -0.1009(17) 0.2127(7) 0.4447(6)
H1 H -0.1527 0.1682 0.4570
C7 C -0.1740(17) 0.2874(7) 0.4423(6)
H2 H -0.2833 0.3004 0.4531
C8 C 0.2472(19) 0.6298(9) 0.3129(6)
Na1 Na 0.1101(11) 0.0000 0.5000
O11 O -0.0836(17) 0.0592(8) 0.5614(8)
C9 C 0.426(2) 0.7351(8) 0.2669(7)
H3 H 0.3674 0.7775 0.2800
O4B O 0.7535(11) 0.5606(6) 0.1717(4)
O6B O 0.8729(13) 0.6722(5) 0.1690(5)
C3B C 0.6169(19) 0.6635(8) 0.2223(6)
C8B C 0.7528(19) 0.6298(9) 0.1871(6)
C9B C 0.574(2) 0.7351(8) 0.2331(7)
H3B H 0.6326 0.7775 0.2200
O1B O 0.6709(12) 0.1930(4) 0.1109(6)
O2B O 0.8110(11) 0.1001(5) 0.0700(4)
C1B C 0.7987(17) 0.1705(7) 0.0863(7)
U1B U 1.03065(6) 0.57160(2) 0.11808(2)
O3B O 0.9233(10) 0.4431(4) 0.1167(5)
O5B O 1.1718(12) 0.4556(5) 0.0745(5)
C2B C 0.9419(17) 0.2220(6) 0.0746(6)
O7B O 0.9093(11) 0.2951(4) 0.0898(4)
O9B O 1.1323(12) 0.5544(5) 0.1893(4)
O10B O 0.9281(11) 0.5896(5) 0.0460(4)
C4B C 1.0570(16) 0.3329(7) 0.0778(5)
C5B C 1.0490(19) 0.4135(7) 0.0890(6)
C6B C 1.1009(17) 0.2127(7) 0.0553(6)
H1B H 1.1527 0.1682 0.0430
C7B C 1.1740(17) 0.2874(7) 0.0577(6)
H2B H 1.2833 0.3004 0.0469
O11C O -0.0836(17) -0.0592(8) 0.4386(8)
O1D O -0.1709(12) 0.6930(4) 0.3891(6)
O1F O 1.1709(12) 0.6930(4) 0.1109(6)
O2C O 0.1890(11) -0.1001(5) 0.5700(4)
O2D O -0.3110(11) 0.6001(5) 0.4300(4)
O2F O 1.3110(11) 0.6001(5) 0.0700(4)
U1D U 0.46935(6) 0.07160(2) 0.38192(2)
U1F U 0.53065(6) 0.07160(2) 0.11808(2)
O5D O 0.3282(12) -0.0444(5) 0.4255(5)
O5G O 0.3282(12) 0.0444(5) 0.5745(5)
Na1A Na 0.8899(11) 0.0000 0.0000
Na1D Na -0.3899(11) 0.5000 0.5000
Na1E Na 1.3899(11) 0.5000 0.0000
Na2 Na 0.5000 0.3859(5) 0.2500
O12 O 0.557(3) 0.3233(9) 0.1678(7)
O13 O 0.737(3) 0.4281(14) 0.271(2)
O12B O 0.443(3) 0.3233(9) 0.3322(7)
O13B O 0.263(3) 0.4281(14) 0.229(2)
loop_
_geom_bond_atom_site_label_1
_geom_bond_atom_site_label_2
_geom_bond_site_symmetry_1
_geom_bond_site_symmetry_2
O1 C1 1_555 1_555
O2 C1 1_555 1_555
C1 C2 1_555 1_555
U1 O3 1_555 1_555
O3 C5 1_555 1_555
O4 U1 1_555 1_555
O5 U1 1_555 1_555
O6 U1 1_555 1_555
C2 O7 1_555 1_555
C3 O8 1_555 1_555
O7 C4 1_555 1_555
O8 C3B 1_555 1_555
O9 U1 1_555 1_555
O10 U1 1_555 1_555
C4 C5 1_555 1_555
C5 O5 1_555 1_555
C6 C2 1_555 1_555
H1 C6 1_555 1_555
C7 C4 1_555 1_555
H2 C7 1_555 1_555
C8 O4 1_555 1_555
Na1 O2 1_555 1_555
O11 Na1 1_555 1_555
C9 C3 1_555 1_555
H3 C9 1_555 1_555
Na2 O12 1_555 1_555
O13 Na2 1_555 1_555
O4B C8B 1_555 1_555
O6B C8B 1_555 1_555
C3B C8B 1_555 1_555
C9B C9 1_555 1_555
H3B C9B 1_555 1_555
O1B C1B 1_555 1_555
O2B C1B 1_555 1_555
C1B C2B 1_555 1_555
U1B O4B 1_555 1_555
O3B U1B 1_555 1_555
O5B U1B 1_555 1_555
C2B O7B 1_555 1_555
O7B C4B 1_555 1_555
O9B U1B 1_555 1_555
O10B U1B 1_555 1_555
C4B C5B 1_555 1_555
C5B O3B 1_555 1_555
C6B C2B 1_555 1_555
H1B C6B 1_555 1_555
C7B C4B 1_555 1_555
H2B C7B 1_555 1_555
O11C Na1 1_555 1_555
O1D U1 1_555 1_555
O1F U1B 1_555 1_555
O2C Na1 1_555 1_555
O2D U1 1_555 1_555
O2F U1B 1_555 1_555
U1D O1 1_555 1_555
U1F O1B 1_555 1_555
O5D Na1 1_555 1_555
O5G Na1 1_555 1_555
Na1A O2B 1_555 1_555
Na1D O5 1_555 1_555
Na1E O5B 1_555 1_555
O12B Na2 1_555 1_555
O13B Na2 1_555 1_555
O2 U1D 1_555 1_555
O6 C8 1_555 1_555
C3 C8 1_555 1_555
C6 C7 1_555 1_555
O6B U1B 1_555 1_555
C3B C9B 1_555 1_555
O2B U1F 1_555 1_555
O5B C5B 1_555 1_555
C6B C7B 1_555 1_555
O2D Na1D 1_555 1_555
O2F Na1E 1_555 1_555
U1D O5D 1_555 1_555

#END
