
#######################################################################
#
#                 Cambridge Crystallographic Data Centre
#                                CCDC 
#
#######################################################################
#
# If this CIF has been generated from an entry in the Cambridge 
# Structural Database, then it will include bibliographic, chemical, 
# crystal, experimental, refinement or atomic coordinate data resulting 
# from the CCDC's data processing and validation procedures.
#
#######################################################################

data_CIJBEE
_symmetry_cell_setting           orthorhombic
_symmetry_space_group_name_H-M   'P 21 21 21'
_symmetry_Int_Tables_number      19
_space_group_name_Hall           'P 2ac 2ab'
loop_
_symmetry_equiv_pos_site_id
_symmetry_equiv_pos_as_xyz
1 x,y,z
2 1/2-x,-y,1/2+z
3 1/2+x,1/2-y,-z
4 -x,1/2+y,1/2-z
_cell_length_a                   15.0911(14)
_cell_length_b                   16.7006(16)
_cell_length_c                   24.236(2)
_cell_angle_alpha                90
_cell_angle_beta                 90
_cell_angle_gamma                90
_cell_volume                     6108.21
loop_
_atom_site_label
_atom_site_type_symbol
_atom_site_fract_x
_atom_site_fract_y
_atom_site_fract_z
C1 C 1.3642(3) 0.6317(3) -0.1179(2)
H1 H 1.4172 0.6043 -0.1129
C2 C 1.3667(3) 0.7142(3) -0.1282(2)
H2 H 1.4208 0.7404 -0.1318
C3 C 1.2886(3) 0.7561(3) -0.13275(19)
C4 C 1.2098(4) 0.7138(3) -0.1276(2)
H3 H 1.1558 0.7404 -0.1298
C5 C 1.2120(3) 0.6334(3) -0.1194(2)
H4 H 1.1585 0.6061 -0.1166
C6 C 1.2929(3) 0.8445(3) -0.14445(18)
C7 C 1.2108(4) 0.5069(3) 0.0019(2)
H5 H 1.2600 0.5402 0.0045
C8 C 1.1521(3) 0.5061(3) 0.0454(2)
H6 H 1.1611 0.5395 0.0756
C9 C 1.0811(3) 0.4563(3) 0.0439(2)
C10 C 1.0703(3) 0.4099(3) -0.0018(2)
H7 H 1.0231 0.3743 -0.0041
C11 C 1.1298(3) 0.4161(3) -0.0448(2)
H8 H 1.1198 0.3861 -0.0765
C12 C 1.0157(3) 0.4511(3) 0.0908(2)
C13 C 0.7966(4) 0.2173(3) 0.0726(2)
H9 H 0.7821 0.1991 0.0374
C14 C 0.7100(4) 0.3150(3) 0.2112(2)
H10 H 0.6763 0.2789 0.2316
C15 C 0.5498(4) 0.4454(4) 0.0918(2)
H11 H 0.5298 0.4169 0.1223
C16 C 0.4994(4) 0.4413(4) 0.0437(2)
H12 H 0.4467 0.4124 0.0435
C17 C 0.5259(4) 0.4780(5) -0.0016(2)
C18 C 0.6032(4) 0.5209(4) 0.0018(2)
H13 H 0.6250 0.5482 -0.0287
C19 C 0.6482(4) 0.5225(4) 0.0520(2)
H14 H 0.7007 0.5516 0.0538
C20 C 0.4759(3) 0.4762(3) -0.05550(19)
C21 C 0.5336(3) 0.5935(3) 0.2026(2)
H15 H 0.5554 0.6281 0.1758
C22 C 0.4514(3) 0.6103(3) 0.2256(2)
H16 H 0.4171 0.6520 0.2118
C23 C 0.4215(3) 0.5652(3) 0.2686(2)
C24 C 0.4738(3) 0.5034(3) 0.2862(2)
H17 H 0.4566 0.4725 0.3163
C25 C 0.5538(3) 0.4867(3) 0.2585(2)
H18 H 0.5873 0.4432 0.2703
C26 C 0.7918(3) 0.5162(3) 0.2869(2)
H19 H 0.7359 0.5081 0.3020
C27 C 0.9836(3) 0.7194(3) 0.3534(2)
H20 H 0.9500 0.7585 0.3709
C28 C 0.3335(3) 0.5799(3) 0.2965(2)
C29 C 1.0462(3) 0.6332(3) 0.2099(2)
H21 H 1.0342 0.6424 0.1728
C30 C 0.9737(3) 0.3839(3) 0.2550(2)
H22 H 0.9782 0.3286 0.2589
Co1 Co 1.29349(4) 0.46289(4) -0.10929(2)
Co2 Co 1.16536(4) 0.67268(3) 0.30570(3)
Co3 Co 0.98946(4) 0.54278(4) 0.31912(3)
Co4 Co 0.70021(4) 0.49673(4) 0.17073(2)
Co5 Co 0.90663(4) 0.52073(3) 0.18193(3)
Co6 Co 0.87505(4) 0.34796(4) 0.14522(3)
N1 N 1.2880(3) 0.5908(2) -0.11506(16)
N2 N 1.2017(3) 0.4638(2) -0.04274(15)
N3 N 0.6215(2) 0.4854(2) 0.09704(16)
N4 N 0.5836(2) 0.5295(2) 0.21678(15)
O1 O 0.81459(16) 0.45749(16) 0.13435(11)
H23 H 0.8173 0.4742 0.0956
O2 O 1.12537(17) 0.55606(15) 0.32251(12)
H24 H 1.1495 0.5228 0.2928
O3 O 1.3678(2) 0.87332(18) -0.14912(14)
O4 O 1.2197(2) 0.88141(17) -0.14939(13)
O5 O 1.0060(2) 0.50988(18) 0.12103(13)
O6 O 0.9752(2) 0.38441(19) 0.09366(13)
O7 O 0.8196(2) 0.28986(18) 0.07693(13)
O8 O 0.7914(2) 0.16727(16) 0.11154(12)
O9 O 0.7859(2) 0.29263(17) 0.19896(12)
O10 O 0.6733(2) 0.37946(19) 0.19963(15)
O11 O 0.51878(19) 0.4940(2) -0.09803(12)
O12 O 0.3948(2) 0.4578(2) -0.05223(12)
O13 O 0.79503(19) 0.52065(19) 0.23572(12)
O14 O 0.8523(2) 0.5212(2) 0.31925(13)
O15 O 0.9496(2) 0.6536(2) 0.34908(14)
O16 O 1.0597(2) 0.74033(17) 0.33679(13)
O17 O 0.31672(19) 0.53905(18) 0.33762(12)
O18 O 0.2854(2) 0.63357(18) 0.27427(13)
O19 O 1.1085(2) 0.67141(18) 0.22945(13)
O20 O 0.9954(2) 0.58180(18) 0.23417(12)
O21 O 1.0037(3) 0.42418(19) 0.29357(14)
O22 O 0.9384(2) 0.40806(18) 0.21183(13)
Co1_2 Co 0.29349(4) 0.46289(4) -0.10929(2)
Co1A Co 0.20651(4) 0.53711(4) 0.39071(2)
Co1A_2 Co 1.20651(4) 0.53711(4) 0.39071(2)
Co1B Co 0.79349(4) 0.03711(4) 0.10929(2)
Co2_2 Co 0.16536(4) 0.67268(3) 0.30570(3)
Co2C Co 0.83464(4) 0.17268(3) 0.19430(3)
Co3A Co 0.51054(4) 0.45722(4) -0.18088(3)
Co4B Co 1.20021(4) 1.00327(4) -0.17073(2)
Co5B Co 1.40663(4) 0.97927(3) -0.18193(3)
Co6C Co 1.12495(4) 0.84796(4) 0.35478(3)
O2A O 1.37463(17) 0.44394(15) -0.17749(12)
O3B O 0.8678(2) 0.62668(18) 0.14912(14)
O4B O 0.7197(2) 0.61859(17) 0.14939(13)
O8B O 1.2914(2) 0.33273(16) -0.11154(12)
O8C O 1.2086(2) 0.66727(16) 0.38846(12)
O9C O 1.2141(2) 0.79263(17) 0.30104(12)
O11A O 0.98122(19) 0.5060(2) 0.40197(12)
O12_2 O 1.3948(2) 0.4578(2) -0.05223(12)
O16C O 0.9403(2) 0.24033(17) 0.16321(13)
O17A O 1.18328(19) 0.46095(18) -0.16238(12)
O18_2 O 1.2854(2) 0.63357(18) 0.27427(13)
loop_
_geom_bond_atom_site_label_1
_geom_bond_atom_site_label_2
_geom_bond_site_symmetry_1
_geom_bond_site_symmetry_2
C1 H1 1_555 1_555
C2 C1 1_555 1_555
H2 C2 1_555 1_555
C3 C2 1_555 1_555
C4 C3 1_555 1_555
H3 C4 1_555 1_555
C5 C4 1_555 1_555
H4 C5 1_555 1_555
C6 C3 1_555 1_555
C7 H5 1_555 1_555
C8 C7 1_555 1_555
H6 C8 1_555 1_555
C9 C8 1_555 1_555
C10 C9 1_555 1_555
H7 C10 1_555 1_555
C11 C10 1_555 1_555
H8 C11 1_555 1_555
C12 C9 1_555 1_555
C13 H9 1_555 1_555
C14 H10 1_555 1_555
C15 H11 1_555 1_555
C16 C15 1_555 1_555
H12 C16 1_555 1_555
C17 C16 1_555 1_555
C18 C17 1_555 1_555
H13 C18 1_555 1_555
C19 C18 1_555 1_555
H14 C19 1_555 1_555
C20 C17 1_555 1_555
C21 H15 1_555 1_555
C22 C21 1_555 1_555
H16 C22 1_555 1_555
C23 C22 1_555 1_555
C24 C23 1_555 1_555
H17 C24 1_555 1_555
C25 C24 1_555 1_555
H18 C25 1_555 1_555
C26 H19 1_555 1_555
C27 H20 1_555 1_555
C28 C23 1_555 1_555
C29 H21 1_555 1_555
C30 H22 1_555 1_555
Co1 N1 1_555 1_555
Co2 O2 1_555 1_555
Co3 O2 1_555 1_555
Co4 N3 1_555 1_555
Co5 O1 1_555 1_555
Co6 O1 1_555 1_555
N1 C1 1_555 1_555
N2 C7 1_555 1_555
N3 C15 1_555 1_555
N4 C21 1_555 1_555
O1 Co4 1_555 1_555
H23 O1 1_555 1_555
O2 H24 1_555 1_555
O3 C6 1_555 1_555
O4 C6 1_555 1_555
O5 C12 1_555 1_555
O6 C12 1_555 1_555
O7 C13 1_555 1_555
O8 C13 1_555 1_555
O9 C14 1_555 1_555
O10 C14 1_555 1_555
O11 C20 1_555 1_555
O12 C20 1_555 1_555
O13 C26 1_555 1_555
O14 C26 1_555 1_555
O15 C27 1_555 1_555
O16 C27 1_555 1_555
O17 C28 1_555 1_555
O18 C28 1_555 1_555
O19 C29 1_555 1_555
O20 C29 1_555 1_555
O21 C30 1_555 1_555
O22 C30 1_555 1_555
Co1_2 O12 1_555 1_555
Co1A O17 1_555 1_555
Co1A_2 O2 1_555 1_555
Co1B O8 1_555 1_555
Co2_2 O18 1_555 1_555
Co2C O8 1_555 1_555
Co3A O11 1_555 1_555
Co4B O4 1_555 1_555
Co5B O3 1_555 1_555
Co6C O16 1_555 1_555
O2A Co1 1_555 1_555
O3B Co5 1_555 1_555
O4B Co4 1_555 1_555
O8B Co1 1_555 1_555
O8C Co2 1_555 1_555
O9C Co2 1_555 1_555
O11A Co3 1_555 1_555
O12_2 Co1 1_555 1_555
O16C Co6 1_555 1_555
O17A Co1 1_555 1_555
O18_2 Co2 1_555 1_555
C5 N1 1_555 1_555
C11 N2 1_555 1_555
C19 N3 1_555 1_555
C25 N4 1_555 1_555
Co1 N2 1_555 1_555
Co2 O16 1_555 1_555
Co2 O19 1_555 1_555
Co3 O14 1_555 1_555
Co3 O15 1_555 1_555
Co3 O20 1_555 1_555
Co3 O21 1_555 1_555
Co4 N4 1_555 1_555
Co4 O10 1_555 1_555
Co4 O13 1_555 1_555
Co5 O5 1_555 1_555
Co5 O13 1_555 1_555
Co5 O20 1_555 1_555
Co5 O22 1_555 1_555
Co6 O6 1_555 1_555
Co6 O7 1_555 1_555
Co6 O9 1_555 1_555
Co6 O22 1_555 1_555
O9 Co2C 1_555 1_555
Co1A_2 O8C 1_555 1_555
Co2C O16C 1_555 1_555
Co6C O9C 1_555 1_555

#END
