
#######################################################################
#
#                 Cambridge Crystallographic Data Centre
#                                CCDC 
#
#######################################################################
#
# If this CIF has been generated from an entry in the Cambridge 
# Structural Database, then it will include bibliographic, chemical, 
# crystal, experimental, refinement or atomic coordinate data resulting 
# from the CCDC's data processing and validation procedures.
#
#######################################################################

data_CIJVOH01
_symmetry_cell_setting           orthorhombic
_symmetry_space_group_name_H-M   'P 21 21 21'
_symmetry_Int_Tables_number      19
_space_group_name_Hall           'P 2ac 2ab'
loop_
_symmetry_equiv_pos_site_id
_symmetry_equiv_pos_as_xyz
1 x,y,z
2 1/2-x,-y,1/2+z
3 -x,1/2+y,1/2-z
4 1/2+x,1/2-y,-z
_cell_length_a                   8.4149(17)
_cell_length_b                   9.813(2)
_cell_length_c                   21.028(4)
_cell_angle_alpha                90
_cell_angle_beta                 90
_cell_angle_gamma                90
_cell_volume                     1736.4
loop_
_atom_site_label
_atom_site_type_symbol
_atom_site_fract_x
_atom_site_fract_y
_atom_site_fract_z
Cd1 Cd 0.50401(2) -1.107712(17) -1.783022(8)
Cd2 Cd 0.694280(19) -1.662710(18) -1.977260(8)
S1 S 0.86833(7) -1.26024(6) -1.79282(3)
O1 O 0.3976(2) -1.27247(18) -1.84228(8)
O2 O 0.4543(2) -1.39690(19) -1.75779(8)
O3 O 0.3873(2) -1.63070(16) -1.82191(8)
O4 O 0.5515(2) -1.48793(18) -1.92358(9)
O5 O 0.4219(2) -1.69855(18) -1.98307(9)
O6 O 0.1787(2) -1.6431(2) -1.95663(10)
O7 O 0.7642(2) -1.1464(2) -1.81239(9)
O8 O 0.4891(3) -0.9972(2) -1.88055(10)
O9 O 0.2644(2) -1.1121(2) -1.73140(10)
O10 O 0.8261(3) -1.3837(2) -1.82771(10)
O11 O 1.0324(2) -1.2235(3) -1.80740(11)
O12 O 0.8468(3) -1.2832(2) -1.72390(9)
O13 O 0.6893(3) -1.7752(2) -1.88219(9)
O14 O 0.8906(2) -1.5221(2) -1.94189(11)
O15 O 0.6849(3) -1.5327(2) -2.06744(10)
C1 C 0.4011(3) -1.3831(2) -1.81294(11)
C2 C 0.3333(3) -1.5064(2) -1.84857(10)
H1 H 0.2171 -1.5036 -1.8461
C3 C 0.3837(3) -1.4972(2) -1.91872(10)
H2 H 0.3363 -1.4153 -1.9375
C4 C 0.3261(3) -1.6215(2) -1.95548(10)
H3 H 0.982(2) -1.559(3) -1.9430(16)
H4 H 0.891(4) -1.462(3) -1.9125(13)
H5 H 0.541(3) -0.923(2) -1.8792(19)
H6 H 0.261(5) -1.0291(17) -1.7187(18)
H7 H 0.768(4) -1.810(4) -1.864(2)
H8 H 0.564(5) -1.4063(14) -1.917(2)
H9 H 0.310(3) -1.674(3) -1.8101(17)
H10 H 0.660(6) -1.702(3) -1.864(2)
H11 H 0.184(4) -1.125(4) -1.755(2)
H12 H 0.3916(14) -0.979(3) -1.8834(19)
H13 H 0.609(3) -1.565(3) -2.0903(17)
H14 H 0.657(5) -1.450(2) -2.058(2)
Cd1B Cd 0.49599(2) -1.607712(17) -1.716978(8)
Cd2C Cd 0.194280(19) -1.837290(18) -2.022740(8)
O2B O 0.5457(2) -0.89690(19) -1.74221(8)
O3B O 0.6127(2) -1.13070(16) -1.67809(8)
O5C O 0.9219(2) -1.80145(18) -2.01693(9)
O6C O 0.6787(2) -1.8569(2) -2.04337(10)
H9B H 0.690(3) -1.174(3) -1.6899(17)
O16 O 0.3320(4) -0.7142(3) -1.54885(12)
O17 O 0.5541(3) -1.0871(2) -1.34909(10)
O18 O 0.4749(4) -0.7941(3) -1.44018(12)
loop_
_geom_bond_atom_site_label_1
_geom_bond_atom_site_label_2
_geom_bond_site_symmetry_1
_geom_bond_site_symmetry_2
Cd1 O1 1_555 1_555
Cd2 O4 1_555 1_555
S1 O7 1_555 1_555
O1 C1 1_555 1_555
O2 C1 1_555 1_555
O3 C2 1_555 1_555
O4 C3 1_555 1_555
O5 Cd2 1_555 1_555
O6 C4 1_555 1_555
O7 Cd1 1_555 1_555
O8 Cd1 1_555 1_555
O9 Cd1 1_555 1_555
O10 S1 1_555 1_555
O11 S1 1_555 1_555
O12 S1 1_555 1_555
O13 Cd2 1_555 1_555
O14 Cd2 1_555 1_555
O15 Cd2 1_555 1_555
C1 C2 1_555 1_555
C2 H1 1_555 1_555
C3 C2 1_555 1_555
H2 C3 1_555 1_555
C4 O5 1_555 1_555
H3 O14 1_555 1_555
H4 O14 1_555 1_555
H5 O8 1_555 1_555
H6 O9 1_555 1_555
H7 O13 1_555 1_555
H8 O4 1_555 1_555
H9 O3 1_555 1_555
H10 O13 1_555 1_555
H11 O9 1_555 1_555
H12 O8 1_555 1_555
H13 O15 1_555 1_555
H14 O15 1_555 1_555
Cd1B O2 1_555 1_555
Cd2C O5 1_555 1_555
O2B Cd1 1_555 1_555
O3B Cd1 1_555 1_555
O5C Cd2 1_555 1_555
O6C Cd2 1_555 1_555
H9B O3B 1_555 1_555
O3 Cd1B 1_555 1_555
O6 Cd2C 1_555 1_555
C3 C4 1_555 1_555

#END
