
#######################################################################
#
#                 Cambridge Crystallographic Data Centre
#                                CCDC 
#
#######################################################################
#
# If this CIF has been generated from an entry in the Cambridge 
# Structural Database, then it will include bibliographic, chemical, 
# crystal, experimental, refinement or atomic coordinate data resulting 
# from the CCDC's data processing and validation procedures.
#
#######################################################################

data_CIWRAC
_symmetry_cell_setting           orthorhombic
_symmetry_space_group_name_H-M   'P b c a'
_symmetry_Int_Tables_number      61
_space_group_name_Hall           '-P 2ac 2ab'
loop_
_symmetry_equiv_pos_site_id
_symmetry_equiv_pos_as_xyz
1 x,y,z
2 1/2-x,-y,1/2+z
3 -x,1/2+y,1/2-z
4 1/2+x,1/2-y,-z
5 -x,-y,-z
6 1/2+x,y,1/2-z
7 x,1/2-y,1/2+z
8 1/2-x,1/2+y,z
_cell_length_a                   27.596(6)
_cell_length_b                   13.690(3)
_cell_length_c                   45.419(9)
_cell_angle_alpha                90
_cell_angle_beta                 90
_cell_angle_gamma                90
_cell_volume                     17158.8
loop_
_atom_site_label
_atom_site_type_symbol
_atom_site_fract_x
_atom_site_fract_y
_atom_site_fract_z
Zn1 Zn 0.74761(2) 0.34367(4) 0.185831(12)
Zn2 Zn 0.54947(2) 0.34739(4) -0.075500(13)
Zn3 Zn 0.52762(2) 1.13734(4) 0.090490(17)
I1 I 0.837667(13) 0.32721(3) 0.174466(8)
I2 I 0.696373(14) 0.19124(2) 0.195547(8)
I3 I 0.555020(16) 0.16356(3) -0.067410(10)
I4 I 0.481650(13) 0.43159(4) -0.103560(10)
I5 I 0.512150(18) 1.22009(4) 0.041010(13)
I6 I 0.578520(17) 1.21608(3) 0.130760(15)
C1 C 0.5715(2) 0.9449(4) 0.10400(13)
H1 H 0.5690 0.9689 0.1236
C2 C 0.5895(2) 0.8524(4) 0.09954(13)
H2 H 0.5994 0.8136 0.1158
C3 C 0.5613(2) 0.9675(4) 0.05447(14)
H3 H 0.5519 1.0076 0.0384
C4 C 0.5786(2) 0.8756(4) 0.04893(13)
H4 H 0.5807 0.8527 0.0292
C5 C 0.59289(17) 0.8170(3) 0.07145(12)
C6 C 0.61008(17) 0.7143(3) 0.06634(11)
C7 C 0.55321(19) 0.5155(4) -0.03355(12)
H5 H 0.5363 0.5485 -0.0488
C8 C 0.56762(19) 0.5680(4) -0.00934(12)
H6 H 0.5605 0.6357 -0.0081
C9 C 0.5852(2) 0.3746(4) -0.01421(11)
H7 H 0.5915 0.3066 -0.0157
C10 C 0.6001(2) 0.4228(4) 0.01063(12)
H8 H 0.6157 0.3882 0.0261
C11 C 0.59229(18) 0.5231(3) 0.01306(10)
C12 C 0.60857(17) 0.5766(3) 0.03970(11)
C13 C 0.69011(18) 0.3748(4) 0.13194(11)
H9 H 0.6888 0.3055 0.1326
C14 C 0.66785(19) 0.4226(3) 0.10878(12)
H10 H 0.6517 0.3868 0.0938
C15 C 0.7150(2) 0.5192(4) 0.15264(12)
H11 H 0.7317 0.5527 0.1679
C16 C 0.69317(18) 0.5729(4) 0.13031(12)
H12 H 0.6944 0.6423 0.1304
C17 C 0.66948(17) 0.5237(3) 0.10785(10)
C18 C 0.64498(17) 0.5769(3) 0.08362(11)
C19 C 0.69467(17) 0.4351(4) 0.23507(11)
H13 H 0.6673 0.4143 0.2240
C20 C 0.68756(17) 0.4708(4) 0.26311(11)
H14 H 0.6559 0.4755 0.2711
C21 C 0.77741(17) 0.4603(3) 0.23788(10)
H15 H 0.8085 0.4582 0.2289
C22 C 0.77348(17) 0.4962(3) 0.26637(10)
H16 H 0.8013 0.5178 0.2768
C23 C 0.72760(16) 0.4998(3) 0.27937(10)
C24 C 0.72248(16) 0.5309(3) 0.31067(10)
C25 C 0.88912(18) 0.5862(3) 0.37450(10)
H17 H 0.9198 0.5751 0.3656
C26 C 0.84783(16) 0.5692(3) 0.35801(11)
H18 H 0.8502 0.5477 0.3382
C27 C 0.84441(17) 0.6313(4) 0.41470(11)
H19 H 0.8433 0.6532 0.4345
C28 C 0.80116(17) 0.6152(3) 0.39987(10)
H20 H 0.7710 0.6255 0.4094
C29 C 0.80290(15) 0.5840(3) 0.37092(10)
C30 C 0.75796(16) 0.5677(3) 0.35384(10)
C31 C 0.57887(18) 0.6102(4) 0.40597(12)
H21 H 0.5766 0.6228 0.4265
C32 C 0.62415(17) 0.5960(4) 0.39373(11)
H22 H 0.6523 0.5987 0.4058
C33 C 0.54230(19) 0.5871(4) 0.36154(13)
H23 H 0.5135 0.5829 0.3501
C34 C 0.58678(18) 0.5722(4) 0.34759(13)
H24 H 0.5882 0.5585 0.3271
C35 C 0.62842(16) 0.5778(3) 0.36404(10)
C36 C 0.67649(16) 0.5642(3) 0.35015(10)
N1 N 0.55745(14) 1.0021(3) 0.08175(10)
N2 N 0.56202(14) 0.4188(3) -0.03662(9)
N3 N 0.71314(14) 0.4212(3) 0.15321(9)
N4 N 0.59673(16) 0.6713(3) 0.04120(9)
N5 N 0.63221(14) 0.5260(3) 0.05982(9)
N6 N 0.63490(15) 0.6725(3) 0.08816(10)
N7 N 0.73916(14) 0.4287(3) 0.22265(8)
N8 N 0.88788(13) 0.6171(3) 0.40201(9)
N9 N 0.53851(14) 0.6070(3) 0.39028(10)
N10 N 0.76358(13) 0.5439(3) 0.32565(8)
N11 N 0.71524(13) 0.5787(3) 0.36735(8)
N12 N 0.67799(13) 0.5408(3) 0.32158(8)
Zn2A Zn 0.95053(2) 0.65261(4) 0.424500(13)
Zn3B Zn 0.47238(2) 0.63734(4) 0.409510(17)
N8A N 0.61212(13) 0.3829(3) -0.09799(9)
N9B N 0.46149(14) 1.1070(3) 0.10972(10)
C37 C 0.2973(3) 0.3189(10) 0.14503(18)
C38 C 0.3403(3) 0.3267(8) 0.1294(2)
H25 H 0.3702 0.3160 0.1393
C39 C 0.3409(3) 0.3498(13) 0.0995(2)
C40 C 0.2966(4) 0.3627(10) 0.08483(19)
H26 H 0.2963 0.3774 0.0644
C41 C 0.2535(3) 0.3542(8) 0.10020(17)
H27 H 0.2236 0.3643 0.0903
C42 C 0.2536(3) 0.3305(8) 0.13044(16)
C43 C 0.2091(2) 0.3200(9) 0.14622(18)
C44 C 0.1644(3) 0.3361(9) 0.13235(19)
H28 H 0.1639 0.3532 0.1121
C45 C 0.1213(3) 0.3278(9) 0.1475(2)
H29 H 0.0914 0.3394 0.1376
C46 C 0.1214(3) 0.3021(9) 0.1774(2)
H30 H 0.0919 0.2960 0.1879
C47 C 0.1654(4) 0.2857(11) 0.1914(2)
H31 H 0.1658 0.2683 0.2116
C48 C 0.2095(3) 0.2946(15) 0.1759(2)
C49 C 0.2547(3) 0.278(2) 0.1902(3)
C50 C 0.2547(5) 0.250(3) 0.2198(4)
H32 H 0.2248 0.2383 0.2297
C51 C 0.2978(6) 0.237(3) 0.2348(3)
H33 H 0.2976 0.2182 0.2549
C52 C 0.3413(6) 0.253(2) 0.2203(3)
H34 H 0.3711 0.2450 0.2306
C53 C 0.3416(4) 0.2794(15) 0.1909(3)
H35 H 0.3716 0.2879 0.1810
C54 C 0.2980(3) 0.2939(18) 0.1756(2)
O1 O 0.3858(4) 0.3580(6) 0.0862(2)
H36 H 0.4077 0.3484 0.0987
C73 C 0.7746(5) 0.4551(8) 0.0659(3)
C74 C 0.7982(7) 0.4740(9) 0.0921(3)
H49 H 0.8043 0.4228 0.1058
C75 C 0.8131(7) 0.5696(10) 0.0984(3)
H50 H 0.8281 0.5845 0.1167
C76 C 0.8058(8) 0.6427(9) 0.0774(4)
H51 H 0.8192 0.7058 0.0805
C77 C 0.7791(7) 0.6240(9) 0.0521(3)
H52 H 0.7714 0.6756 0.0389
C78 C 0.7637(6) 0.5294(10) 0.0461(3)
H53 H 0.7459 0.5157 0.0287
N13 N 0.7578(4) 0.3550(9) 0.0606(3)
O3 O 0.7702(4) 0.2938(8) 0.0783(3)
O4 O 0.7318(4) 0.3426(9) 0.0391(2)
C85 C 0.9358(3) 0.0315(8) 0.23428(16)
C86 C 0.9369(3) -0.0678(8) 0.2290(2)
H59 H 0.9436 -0.1124 0.2445
C87 C 0.9281(4) -0.1018(6) 0.2003(3)
H60 H 0.9288 -0.1698 0.1962
C88 C 0.9185(4) -0.0348(7) 0.17793(19)
H61 H 0.9135 -0.0575 0.1584
C89 C 0.9160(4) 0.0643(6) 0.18380(18)
H62 H 0.9089 0.1090 0.1684
C90 C 0.9240(4) 0.0982(6) 0.2119(2)
H63 H 0.9215 0.1660 0.2161
N15 N 0.9486(4) 0.0641(13) 0.2661(3)
O7 O 0.9513(4) -0.0171(11) 0.28254(19)
O8 O 0.9655(9) 0.1464(16) 0.2679(5)
C91 C 0.6978(5) 0.8308(8) 0.9739(5)
C92 C 0.6477(5) 0.8367(11) 0.9784(6)
H64 H 0.6293 0.7801 0.9830
C93 C 0.6254(4) 0.9280(13) 0.9759(8)
H65 H 0.5911 0.9330 0.9762
C94 C 0.6534(6) 1.0110(10) 0.9730(6)
H66 H 0.6386 1.0735 0.9745
C95 C 0.7029(5) 1.0044(9) 0.9680(4)
H67 H 0.7213 1.0612 0.9636
C96 C 0.7254(4) 0.9133(11) 0.9695(5)
H68 H 0.7595 0.9082 0.9674
N16 N 0.7331(6) 0.7452(11) 0.9768(3)
O9 O 0.7108(6) 0.6747(8) 0.9866(3)
O10 O 0.7693(6) 0.7529(12) 0.9642(4)
C109 C 0.9438(6) 0.4561(14) 0.2258(3)
C110 C 0.9490(6) 0.4139(11) 0.2536(4)
H79 H 0.9640 0.3518 0.2555
C111 C 0.9322(8) 0.4627(15) 0.2784(3)
H80 H 0.9326 0.4308 0.2970
C112 C 0.9148(8) 0.5577(16) 0.2763(4)
H81 H 0.9074 0.5939 0.2936
C113 C 0.9085(9) 0.5992(13) 0.2486(5)
H82 H 0.8954 0.6632 0.2469
C114 C 0.9213(11) 0.5471(18) 0.2233(4)
H83 H 0.9147 0.5737 0.2044
N19 N 0.9638(7) 0.3857(18) 0.2014(4)
O15 O 0.9888(13) 0.319(2) 0.2111(8)
O16 O 0.9689(9) 0.427(2) 0.1776(3)
O17 O 0.4606(4) 0.3484(7) 0.1232(4)
C115 C 0.0020(19) 0.232(3) 0.1737(12)
O18 O 0.0064(12) 0.310(2) 0.1544(6)
C55? C 0.2284(6) 0.289(3) 0.1739(4)
C56? C 0.1823(7) 0.274(2) 0.1853(5)
H37? H 0.1796 0.2520 0.2051
C57? C 0.1398(7) 0.2912(16) 0.1696(5)
C58? C 0.1451(9) 0.323(2) 0.1398(5)
H38? H 0.1174 0.3346 0.1280
C59? C 0.1909(8) 0.3356(19) 0.1284(5)
H39? H 0.1941 0.3587 0.1088
C60? C 0.2342(7) 0.3152(19) 0.1451(4)
C61? C 0.2805(7) 0.3318(16) 0.1308(4)
C62? C 0.2849(9) 0.354(2) 0.1011(4)
H40? H 0.2570 0.3648 0.0893
C63? C 0.3315(10) 0.359(4) 0.0890(6)
H41? H 0.3353 0.3677 0.0684
C64? C 0.3728(10) 0.3527(19) 0.1070(5)
H42? H 0.4035 0.3647 0.0983
C65? C 0.3715(8) 0.3291(16) 0.1374(5)
H43? H 0.3999 0.3218 0.1491
C66? C 0.3236(7) 0.3172(14) 0.1489(3)
C67? C 0.3155(7) 0.289(2) 0.1792(4)
C68? C 0.3554(8) 0.280(3) 0.1984(5)
H44? H 0.3867 0.2939 0.1909
C69? C 0.3516(10) 0.251(3) 0.2272(5)
H45? H 0.3802 0.2450 0.2387
C70? C 0.3077(11) 0.231(5) 0.2396(7)
H46? H 0.3053 0.2083 0.2594
C71? C 0.2673(9) 0.245(4) 0.2227(5)
H47? H 0.2362 0.2342 0.2311
C72? C 0.2709(6) 0.275(3) 0.1926(4)
O2? O 0.0983(6) 0.2852(16) 0.1874(5)
H48? H 0.1060 0.2640 0.2041
C79? C 0.7543(7) 0.4838(11) 0.0491(3)
C80? C 0.7658(7) 0.4089(11) 0.0688(4)
H54? H 0.7527 0.3453 0.0660
C81? C 0.7963(10) 0.4278(12) 0.0924(5)
H55? H 0.8052 0.3766 0.1054
C82? C 0.8138(10) 0.5220(14) 0.0969(5)
H56? H 0.8336 0.5356 0.1136
C83? C 0.8025(9) 0.5962(11) 0.0771(5)
H57? H 0.8154 0.6599 0.0799
C84? C 0.7724(8) 0.5772(11) 0.0532(4)
H58? H 0.7642 0.6279 0.0399
N14? N 0.7217(5) 0.4632(11) 0.0244(3)
O5? O 0.7127(5) 0.3758(9) 0.0208(4)
O6? O 0.7076(4) 0.5298(10) 0.0090(2)
C97? C 0.7168(5) 0.8535(17) 0.9772(7)
C98? C 0.6740(8) 0.7994(12) 0.9787(5)
H69? H 0.6752 0.7302 0.9801
C99? C 0.6294(6) 0.8472(16) 0.9783(9)
H70? H 0.6002 0.8109 0.9797
C100? C 0.6281(6) 0.9487(15) 0.9757(13)
H71? H 0.5982 0.9825 0.9775
C101? C 0.6705(9) 1.0002(12) 0.9705(9)
H72? H 0.6692 1.0684 0.9668
C102? C 0.7149(6) 0.9527(17) 0.9708(8)
H73? H 0.7438 0.9877 0.9666
N17? N 0.7699(7) 0.8328(18) 0.9757(5)
O11? O 0.7795(9) 0.7460(18) 0.9754(5)
O12? O 0.7981(5) 0.9009(19) 0.9763(3)
C103? C 0.9364(7) 0.4815(14) 0.2751(4)
C104? C 0.9341(8) 0.5752(18) 0.2871(4)
H74? H 0.9379 0.5846 0.3077
C105? C 0.9262(10) 0.6546(14) 0.2687(7)
H75? H 0.9214 0.7178 0.2768
C106? C 0.9255(14) 0.6414(18) 0.2383(6)
H76? H 0.9260 0.6964 0.2255
C107? C 0.9241(17) 0.547(2) 0.2265(4)
H77? H 0.9241 0.5375 0.2058
C108? C 0.9226(12) 0.4674(16) 0.2458(5)
H78? H 0.9125 0.4050 0.2391
N18? N 0.9481(8) 0.4164(14) 0.3005(4)
O13? O 0.9427(6) 0.4532(14) 0.3242(4)
O14? O 0.9583(5) 0.3288(10) 0.2948(4)
loop_
_geom_bond_atom_site_label_1
_geom_bond_atom_site_label_2
_geom_bond_site_symmetry_1
_geom_bond_site_symmetry_2
Zn1 I1 1_555 1_555
Zn2 I3 1_555 1_555
Zn3 I5 1_555 1_555
I2 Zn1 1_555 1_555
I4 Zn2 1_555 1_555
I6 Zn3 1_555 1_555
C1 H1 1_555 1_555
C2 C1 1_555 1_555
H2 C2 1_555 1_555
C3 H3 1_555 1_555
C4 C3 1_555 1_555
H4 C4 1_555 1_555
C5 C2 1_555 1_555
C6 C5 1_555 1_555
C7 H5 1_555 1_555
C8 C7 1_555 1_555
H6 C8 1_555 1_555
C9 H7 1_555 1_555
C10 C9 1_555 1_555
H8 C10 1_555 1_555
C11 C8 1_555 1_555
C12 C11 1_555 1_555
C13 H9 1_555 1_555
C14 C13 1_555 1_555
H10 C14 1_555 1_555
C15 H11 1_555 1_555
C16 C15 1_555 1_555
H12 C16 1_555 1_555
C17 C14 1_555 1_555
C18 C17 1_555 1_555
C19 H13 1_555 1_555
C20 C19 1_555 1_555
H14 C20 1_555 1_555
C21 H15 1_555 1_555
C22 C21 1_555 1_555
H16 C22 1_555 1_555
C23 C20 1_555 1_555
C24 C23 1_555 1_555
C25 H17 1_555 1_555
C26 C25 1_555 1_555
H18 C26 1_555 1_555
C27 H19 1_555 1_555
C28 C27 1_555 1_555
H20 C28 1_555 1_555
C29 C26 1_555 1_555
C30 C29 1_555 1_555
C31 H21 1_555 1_555
C32 C31 1_555 1_555
H22 C32 1_555 1_555
C33 H23 1_555 1_555
C34 C33 1_555 1_555
H24 C34 1_555 1_555
C35 C32 1_555 1_555
C36 C35 1_555 1_555
N1 Zn3 1_555 1_555
N2 Zn2 1_555 1_555
N3 Zn1 1_555 1_555
N4 C6 1_555 1_555
N5 C12 1_555 1_555
N6 C6 1_555 1_555
N7 Zn1 1_555 1_555
N8 C25 1_555 1_555
N9 C31 1_555 1_555
N10 C24 1_555 1_555
N11 C30 1_555 1_555
N12 C24 1_555 1_555
C37 C38 1_555 1_555
C38 H25 1_555 1_555
C39 C38 1_555 1_555
C40 C39 1_555 1_555
H26 C40 1_555 1_555
C41 C40 1_555 1_555
H27 C41 1_555 1_555
C42 C37 1_555 1_555
C43 C42 1_555 1_555
C44 C43 1_555 1_555
H28 C44 1_555 1_555
C45 C44 1_555 1_555
H29 C45 1_555 1_555
C46 C45 1_555 1_555
H30 C46 1_555 1_555
C47 C46 1_555 1_555
H31 C47 1_555 1_555
C48 C43 1_555 1_555
C49 C48 1_555 1_555
C50 C49 1_555 1_555
H32 C50 1_555 1_555
C51 C50 1_555 1_555
H33 C51 1_555 1_555
C52 C51 1_555 1_555
H34 C52 1_555 1_555
C53 C52 1_555 1_555
H35 C53 1_555 1_555
C54 C37 1_555 1_555
O1 C39 1_555 1_555
H36 O1 1_555 1_555
C73 C74 1_555 1_555
C74 H49 1_555 1_555
C75 C74 1_555 1_555
H50 C75 1_555 1_555
C76 C75 1_555 1_555
H51 C76 1_555 1_555
C77 C76 1_555 1_555
H52 C77 1_555 1_555
C78 C73 1_555 1_555
H53 C78 1_555 1_555
N13 C73 1_555 1_555
O3 N13 1_555 1_555
O4 N13 1_555 1_555
C85 C86 1_555 1_555
C86 H59 1_555 1_555
C87 C86 1_555 1_555
H60 C87 1_555 1_555
C88 C87 1_555 1_555
H61 C88 1_555 1_555
C89 C88 1_555 1_555
H62 C89 1_555 1_555
C90 C85 1_555 1_555
H63 C90 1_555 1_555
N15 C85 1_555 1_555
O7 N15 1_555 1_555
O8 N15 1_555 1_555
C91 C92 1_555 1_555
C92 H64 1_555 1_555
C93 C92 1_555 1_555
H65 C93 1_555 1_555
C94 C93 1_555 1_555
H66 C94 1_555 1_555
C95 C94 1_555 1_555
H67 C95 1_555 1_555
C96 C91 1_555 1_555
H68 C96 1_555 1_555
N16 C91 1_555 1_555
O9 N16 1_555 1_555
O10 N16 1_555 1_555
C109 C110 1_555 1_555
C110 H79 1_555 1_555
C111 C110 1_555 1_555
H80 C111 1_555 1_555
C112 C111 1_555 1_555
H81 C112 1_555 1_555
C113 C112 1_555 1_555
H82 C113 1_555 1_555
C114 C109 1_555 1_555
H83 C114 1_555 1_555
N19 C109 1_555 1_555
O15 N19 1_555 1_555
O16 N19 1_555 1_555
C115 O18 1_555 1_555
Zn2A N8 1_555 1_555
Zn3B N9 1_555 1_555
N8A Zn2 1_555 1_555
N9B Zn3 1_555 1_555
C1 N1 1_555 1_555
C3 N1 1_555 1_555
C4 C5 1_555 1_555
C7 N2 1_555 1_555
C9 N2 1_555 1_555
C10 C11 1_555 1_555
C12 N4 1_555 1_555
C13 N3 1_555 1_555
C15 N3 1_555 1_555
C16 C17 1_555 1_555
C18 N5 1_555 1_555
C18 N6 1_555 1_555
C19 N7 1_555 1_555
C21 N7 1_555 1_555
C22 C23 1_555 1_555
C27 N8 1_555 1_555
C28 C29 1_555 1_555
C30 N10 1_555 1_555
C33 N9 1_555 1_555
C34 C35 1_555 1_555
C36 N11 1_555 1_555
C36 N12 1_555 1_555
C41 C42 1_555 1_555
C47 C48 1_555 1_555
C49 C54 1_555 1_555
C53 C54 1_555 1_555
C77 C78 1_555 1_555
C89 C90 1_555 1_555
C95 C96 1_555 1_555
C113 C114 1_555 1_555

#END
