
#######################################################################
#
#                 Cambridge Crystallographic Data Centre
#                                CCDC 
#
#######################################################################
#
# If this CIF has been generated from an entry in the Cambridge 
# Structural Database, then it will include bibliographic, chemical, 
# crystal, experimental, refinement or atomic coordinate data resulting 
# from the CCDC's data processing and validation procedures.
#
#######################################################################

data_CIWREG
_symmetry_cell_setting           orthorhombic
_symmetry_space_group_name_H-M   'P b c a'
_symmetry_Int_Tables_number      61
_space_group_name_Hall           '-P 2ac 2ab'
loop_
_symmetry_equiv_pos_site_id
_symmetry_equiv_pos_as_xyz
1 x,y,z
2 1/2-x,-y,1/2+z
3 -x,1/2+y,1/2-z
4 1/2+x,1/2-y,-z
5 -x,-y,-z
6 1/2+x,y,1/2-z
7 x,1/2-y,1/2+z
8 1/2-x,1/2+y,z
_cell_length_a                   27.123(4)
_cell_length_b                   13.6817(18)
_cell_length_c                   45.995(6)
_cell_angle_alpha                90
_cell_angle_beta                 90
_cell_angle_gamma                90
_cell_volume                     17068.2
loop_
_atom_site_label
_atom_site_type_symbol
_atom_site_fract_x
_atom_site_fract_y
_atom_site_fract_z
Zn1 Zn 0.048203(15) 1.14066(3) 0.070361(9)
Zn2 Zn 0.033280(15) 0.35434(3) -0.093700(9)
Zn3 Zn 0.249100(16) 1.15597(3) -0.189020(9)
I1 I -0.018744(9) 1.04578(2) 0.096878(6)
I2 I 0.047670(10) 1.324250(18) 0.061122(6)
I3 I 0.021480(10) 0.26767(2) -0.045060(6)
I4 I 0.078800(11) 0.27540(2) -0.135790(7)
I5 I 0.195950(10) 1.308470(18) -0.196220(6)
I6 I 0.341100(10) 1.16849(2) -0.178330(6)
C1 C 0.19362(14) 1.1239(3) -0.13438(8)
H1 H 0.1935 1.1933 -0.1341
C2 C 0.17244(14) 1.0745(3) -0.11158(8)
H2 H 0.1581 1.1095 -0.0959
C3 C 0.21391(15) 0.9794(3) -0.15728(8)
H3 H 0.2283 0.9461 -0.1733
C4 C 0.19318(14) 0.9252(3) -0.13518(8)
H4 H 0.1933 0.8558 -0.1360
C5 C 0.17217(13) 0.9731(3) -0.11166(8)
C6 C 0.14912(13) 0.9177(3) -0.08767(8)
C7 C 0.07125(14) 0.5512(3) -0.10787(8)
H5 H 0.0645 0.5293 -0.1271
C8 C 0.08859(14) 0.6450(3) -0.10385(8)
H6 H 0.0939 0.6866 -0.1201
C9 C 0.07369(14) 0.5209(3) -0.05869(8)
H7 H 0.0692 0.4770 -0.0429
C10 C 0.09043(15) 0.6143(3) -0.05301(8)
H8 H 0.0966 0.6346 -0.0336
C11 C 0.09817(13) 0.6780(3) -0.07589(8)
C12 C 0.11440(13) 0.7797(3) -0.07088(8)
C13 C 0.05161(14) 0.9770(3) 0.02718(8)
H9 H 0.0303 0.9464 0.0408
C14 C 0.06720(13) 0.9240(3) 0.00349(8)
H10 H 0.0566 0.8584 0.0008
C15 C 0.09461(15) 1.1131(3) 0.01222(8)
H11 H 0.1037 1.1795 0.0151
C16 C 0.11247(16) 1.0647(3) -0.01217(8)
H12 H 0.1336 1.0971 -0.0256
C17 C 0.09888(13) 0.9683(3) -0.01652(8)
C18 C 0.11559(13) 0.9143(3) -0.04289(8)
C19 C 0.10897(13) 1.0830(3) 0.12178(8)
H13 H 0.0774 1.0729 0.1302
C20 C 0.15009(13) 1.0683(3) 0.13861(8)
H14 H 0.1467 1.0501 0.1584
C21 C 0.15673(14) 1.1226(3) 0.08202(8)
H15 H 0.1590 1.1419 0.0622
C22 C 0.19951(13) 1.1075(3) 0.09739(8)
H16 H 0.2306 1.1158 0.0882
C23 C 0.19678(13) 1.0801(2) 0.12646(7)
C24 C 0.24150(13) 1.0644(2) 0.14406(7)
C25 C 0.42535(13) 1.1063(3) 0.09438(8)
H17 H 0.4289 1.1178 0.0741
C26 C 0.37881(14) 1.0907(3) 0.10535(8)
H18 H 0.3509 1.0919 0.0929
C27 C 0.46063(14) 1.0862(3) 0.13942(8)
H19 H 0.4893 1.0838 0.1512
C28 C 0.41575(14) 1.0693(3) 0.15210(8)
H20 H 0.4135 1.0552 0.1723
C29 C 0.37336(13) 1.0730(2) 0.13500(7)
C30 C 0.32400(13) 1.0609(2) 0.14810(7)
C31 C 0.30457(14) 0.9333(3) 0.26186(8)
H21 H 0.3324 0.9135 0.2729
C32 C 0.31188(14) 0.9680(3) 0.23394(8)
H22 H 0.3441 0.9720 0.2260
C33 C 0.22089(14) 0.9583(3) 0.25876(8)
H23 H 0.1892 0.9568 0.2676
C34 C 0.22512(13) 0.9932(3) 0.23079(8)
H24 H 0.1968 1.0147 0.2205
C35 C 0.27116(13) 0.9967(2) 0.21783(7)
C36 C 0.27663(13) 1.0268(2) 0.18706(7)
N1 N 0.21457(11) 1.0777(2) -0.15706(6)
N2 N 0.06359(11) 0.4900(2) -0.08559(6)
N3 N 0.06514(11) 1.0702(2) 0.03187(6)
N4 N 0.13698(11) 0.8248(2) -0.09287(7)
N5 N 0.10336(11) 0.8200(2) -0.04510(6)
N6 N 0.13945(11) 0.9664(2) -0.06296(6)
N7 N 0.11172(11) 1.1110(2) 0.09387(6)
N8 N 0.46583(11) 1.1061(2) 0.11110(7)
N9 N 0.25959(11) 0.9265(2) 0.27401(6)
N10 N 0.28513(11) 1.0758(2) 0.13104(6)
N11 N 0.32203(11) 1.0361(2) 0.17656(6)
N12 N 0.23486(11) 1.0407(2) 0.17199(6)
Zn2C Zn 0.533280(15) 1.14566(3) 0.093700(9)
Zn3A Zn 0.250900(16) 0.84403(3) 0.310980(9)
N8C N -0.03417(11) 0.3939(2) -0.11110(7)
N9A N 0.24041(11) 1.0735(2) -0.22599(6)
C37 C 0.26280(15) 0.8081(3) 0.15034(9)
C38 C 0.31579(16) 0.8128(3) 0.14978(9)
C39 C 0.34100(16) 0.8349(3) 0.12486(9)
H25 H 0.3760 0.8361 0.1251
C40 C 0.31625(17) 0.8556(3) 0.09930(9)
H26 H 0.3341 0.8713 0.0822
C41 C 0.26530(16) 0.8532(3) 0.09887(9)
H27 H 0.2484 0.8677 0.0813
C42 C 0.23797(15) 0.8300(3) 0.12384(8)
C43 C 0.18405(15) 0.8295(3) 0.12289(9)
C44 C 0.15847(17) 0.8466(3) 0.09647(10)
H28 H 0.1767 0.8553 0.0790
C45 C 0.10796(18) 0.8508(3) 0.09556(11)
H29 H 0.0916 0.8627 0.0776
C46 C 0.08072(17) 0.8376(3) 0.12088(11)
H30 H 0.0458 0.8410 0.1203
C47 C 0.10422(16) 0.8198(3) 0.14648(10)
H31 H 0.0852 0.8109 0.1636
C48 C 0.15637(15) 0.8142(3) 0.14824(9)
C49 C 0.18197(16) 0.7913(3) 0.17540(9)
C50 C 0.15407(18) 0.7707(3) 0.20087(9)
H32 H 0.1191 0.7754 0.2002
C51 C 0.17663(19) 0.7441(3) 0.22653(9)
H33 H 0.1576 0.7314 0.2434
C52 C 0.22778(18) 0.7360(3) 0.22731(9)
H34 H 0.2436 0.7170 0.2448
C53 C 0.25556(17) 0.7551(3) 0.20317(9)
H35 H 0.2904 0.7482 0.2043
C54 C 0.23410(16) 0.7850(3) 0.17661(8)
O1 O 0.34231(12) 0.7943(2) 0.17483(7)
H36 H 0.3815(18) 0.813(3) 0.1701(10)
C55 C 0.2230(4) -0.0366(10) 0.4336(3)
C56 C 0.2280(4) 0.0342(11) 0.4534(3)
H37 H 0.2425 0.0227 0.4718
C57 C 0.2110(5) 0.1247(10) 0.4453(3)
H38 H 0.2146 0.1780 0.4584
C58 C 0.1890(7) 0.1399(13) 0.4191(4)
H39 H 0.1760 0.2028 0.4149
C59 C 0.1851(7) 0.0691(12) 0.3993(5)
H40 H 0.1715 0.0825 0.3807
C60 C 0.2008(6) -0.0219(13) 0.4060(4)
H41 H 0.1971 -0.0744 0.3927
N13 N 0.2388(2) -0.1350(6) 0.4409(2)
O2 O 0.2648(6) -0.1447(15) 0.4631(3)
O3 O 0.2277(3) -0.2007(6) 0.4242(2)
C67 C 0.2967(2) 0.1761(5) 0.02502(10)
C68 C 0.2836(2) 0.0811(5) 0.02754(11)
H47 H 0.2498 0.0631 0.0291
C69 C 0.3194(3) 0.0123(5) 0.02774(12)
H48 H 0.3109 -0.0548 0.0295
C70 C 0.3686(3) 0.0396(6) 0.02530(11)
H49 H 0.3938 -0.0087 0.0254
C71 C 0.3808(2) 0.1375(6) 0.02278(10)
H50 H 0.4143 0.1570 0.0213
C72 C 0.3443(2) 0.2056(4) 0.02240(10)
H51 H 0.3520 0.2730 0.0203
N15 N 0.2568(3) 0.2549(6) 0.02471(12)
O6 O 0.2159(3) 0.2268(7) 0.02779(13)
O7 O 0.2717(4) 0.3380(5) 0.02037(15)
C73 C 0.56056(17) -0.0059(4) 0.23374(11)
C74 C 0.5623(2) -0.0496(4) 0.26095(12)
H52 H 0.5521 -0.1153 0.2637
C75 C 0.5794(2) 0.0053(4) 0.28368(12)
H53 H 0.5814 -0.0229 0.3025
C76 C 0.5937(2) 0.1005(4) 0.27968(13)
H54 H 0.6046 0.1380 0.2958
C77 C 0.5925(2) 0.1419(4) 0.25238(13)
H55 H 0.6030 0.2075 0.2497
C78 C 0.5758(2) 0.0877(4) 0.22856(12)
H56 H 0.5750 0.1149 0.2096
N16 N 0.53930(17) -0.0618(3) 0.20917(10)
O8 O 0.51912(17) -0.1419(3) 0.21501(9)
O9 O 0.54121(15) -0.0257(3) 0.18476(8)
C79 C 0.43663(16) 0.0559(4) 0.26969(10)
C80 C 0.43799(18) -0.0439(4) 0.27293(11)
H57 H 0.4427 -0.0855 0.2566
C81 C 0.43235(19) -0.0824(4) 0.30066(11)
H58 H 0.4336 -0.1511 0.3035
C82 C 0.42500(19) -0.0215(4) 0.32411(11)
H59 H 0.4211 -0.0484 0.3430
C83 C 0.4233(2) 0.0780(4) 0.32031(11)
H60 H 0.4180 0.1193 0.3366
C84 C 0.4292(2) 0.1188(4) 0.29283(11)
H61 H 0.4282 0.1876 0.2901
N17 N 0.44327(15) 0.0967(4) 0.24056(9)
O10 O 0.44584(15) 0.0379(4) 0.21995(8)
O11 O 0.44657(16) 0.1858(3) 0.23807(9)
C85 C 0.4751(2) 0.7790(6) 0.15169(15)
H62 H 0.5060 0.8156 0.1534
H63 H 0.4613 0.7885 0.1322
H64 H 0.4816 0.7093 0.1548
O12 O 0.44173(13) 0.8123(3) 0.17245(8)
H65 H 0.466(3) 0.829(6) 0.196(2)
C61? C 0.2382(7) -0.0123(17) 0.4442(5)
C62? C 0.2249(7) 0.0776(19) 0.4409(5)
H42? H 0.2319 0.1252 0.4554
C63? C 0.1980(12) 0.104(2) 0.4137(9)
H43? H 0.1900 0.1699 0.4090
C64? C 0.1854(13) 0.027(3) 0.3957(9)
H44? H 0.1639 0.0386 0.3798
C65? C 0.2019(13) -0.060(3) 0.4000(8)
H45? H 0.1969 -0.1085 0.3855
C66? C 0.2254(6) -0.0834(17) 0.4240(4)
H46? H 0.2337 -0.1497 0.4275
N14? N 0.2693(4) -0.0425(10) 0.4698(3)
O4? O 0.2832(4) 0.0210(8) 0.4858(2)
O5? O 0.2764(11) -0.134(2) 0.4731(6)
loop_
_geom_bond_atom_site_label_1
_geom_bond_atom_site_label_2
_geom_bond_site_symmetry_1
_geom_bond_site_symmetry_2
Zn1 I1 1_555 1_555
Zn2 I3 1_555 1_555
Zn3 I5 1_555 1_555
I2 Zn1 1_555 1_555
I4 Zn2 1_555 1_555
I6 Zn3 1_555 1_555
C1 H1 1_555 1_555
C2 C1 1_555 1_555
H2 C2 1_555 1_555
C3 H3 1_555 1_555
C4 C3 1_555 1_555
H4 C4 1_555 1_555
C5 C2 1_555 1_555
C6 C5 1_555 1_555
C7 H5 1_555 1_555
C8 C7 1_555 1_555
H6 C8 1_555 1_555
C9 H7 1_555 1_555
C10 C9 1_555 1_555
H8 C10 1_555 1_555
C11 C8 1_555 1_555
C12 C11 1_555 1_555
C13 H9 1_555 1_555
C14 C13 1_555 1_555
H10 C14 1_555 1_555
C15 H11 1_555 1_555
C16 C15 1_555 1_555
H12 C16 1_555 1_555
C17 C14 1_555 1_555
C18 C17 1_555 1_555
C19 H13 1_555 1_555
C20 C19 1_555 1_555
H14 C20 1_555 1_555
C21 H15 1_555 1_555
C22 C21 1_555 1_555
H16 C22 1_555 1_555
C23 C20 1_555 1_555
C24 C23 1_555 1_555
C25 H17 1_555 1_555
C26 C25 1_555 1_555
H18 C26 1_555 1_555
C27 H19 1_555 1_555
C28 C27 1_555 1_555
H20 C28 1_555 1_555
C29 C26 1_555 1_555
C30 C29 1_555 1_555
C31 H21 1_555 1_555
C32 C31 1_555 1_555
H22 C32 1_555 1_555
C33 H23 1_555 1_555
C34 C33 1_555 1_555
H24 C34 1_555 1_555
C35 C32 1_555 1_555
C36 C35 1_555 1_555
N1 Zn3 1_555 1_555
N2 Zn2 1_555 1_555
N3 Zn1 1_555 1_555
N4 C6 1_555 1_555
N5 C12 1_555 1_555
N6 C6 1_555 1_555
N7 Zn1 1_555 1_555
N8 C25 1_555 1_555
N9 C31 1_555 1_555
N10 C24 1_555 1_555
N11 C30 1_555 1_555
N12 C24 1_555 1_555
C37 C38 1_555 1_555
C38 C39 1_555 1_555
C39 H25 1_555 1_555
C40 C39 1_555 1_555
H26 C40 1_555 1_555
C41 C40 1_555 1_555
H27 C41 1_555 1_555
C42 C37 1_555 1_555
C43 C42 1_555 1_555
C44 C43 1_555 1_555
H28 C44 1_555 1_555
C45 C44 1_555 1_555
H29 C45 1_555 1_555
C46 C45 1_555 1_555
H30 C46 1_555 1_555
C47 C46 1_555 1_555
H31 C47 1_555 1_555
C48 C43 1_555 1_555
C49 C48 1_555 1_555
C50 C49 1_555 1_555
H32 C50 1_555 1_555
C51 C50 1_555 1_555
H33 C51 1_555 1_555
C52 C51 1_555 1_555
H34 C52 1_555 1_555
C53 C52 1_555 1_555
H35 C53 1_555 1_555
C54 C37 1_555 1_555
O1 C38 1_555 1_555
H36 O1 1_555 1_555
C55 C56 1_555 1_555
C56 H37 1_555 1_555
C57 C56 1_555 1_555
H38 C57 1_555 1_555
C58 C57 1_555 1_555
H39 C58 1_555 1_555
C59 C58 1_555 1_555
H40 C59 1_555 1_555
C60 C55 1_555 1_555
H41 C60 1_555 1_555
N13 C55 1_555 1_555
O2 N13 1_555 1_555
O3 N13 1_555 1_555
C67 C68 1_555 1_555
C68 H47 1_555 1_555
C69 C68 1_555 1_555
H48 C69 1_555 1_555
C70 C69 1_555 1_555
H49 C70 1_555 1_555
C71 C70 1_555 1_555
H50 C71 1_555 1_555
C72 C67 1_555 1_555
H51 C72 1_555 1_555
N15 C67 1_555 1_555
O6 N15 1_555 1_555
O7 N15 1_555 1_555
C73 C74 1_555 1_555
C74 H52 1_555 1_555
C75 C74 1_555 1_555
H53 C75 1_555 1_555
C76 C75 1_555 1_555
H54 C76 1_555 1_555
C77 C76 1_555 1_555
H55 C77 1_555 1_555
C78 C73 1_555 1_555
H56 C78 1_555 1_555
N16 C73 1_555 1_555
O8 N16 1_555 1_555
O9 N16 1_555 1_555
C79 C80 1_555 1_555
C80 H57 1_555 1_555
C81 C80 1_555 1_555
H58 C81 1_555 1_555
C82 C81 1_555 1_555
H59 C82 1_555 1_555
C83 C82 1_555 1_555
H60 C83 1_555 1_555
C84 C79 1_555 1_555
H61 C84 1_555 1_555
N17 C79 1_555 1_555
O10 N17 1_555 1_555
O11 N17 1_555 1_555
C85 H62 1_555 1_555
H63 C85 1_555 1_555
H64 C85 1_555 1_555
O12 C85 1_555 1_555
H65 O12 1_555 1_555
Zn2C N8 1_555 1_555
Zn3A N9 1_555 1_555
N8C Zn2 1_555 1_555
N9A Zn3 1_555 1_555
C1 N1 1_555 1_555
C3 N1 1_555 1_555
C4 C5 1_555 1_555
C7 N2 1_555 1_555
C9 N2 1_555 1_555
C10 C11 1_555 1_555
C12 N4 1_555 1_555
C13 N3 1_555 1_555
C15 N3 1_555 1_555
C16 C17 1_555 1_555
C18 N5 1_555 1_555
C18 N6 1_555 1_555
C19 N7 1_555 1_555
C21 N7 1_555 1_555
C22 C23 1_555 1_555
C27 N8 1_555 1_555
C28 C29 1_555 1_555
C30 N10 1_555 1_555
C33 N9 1_555 1_555
C34 C35 1_555 1_555
C36 N11 1_555 1_555
C36 N12 1_555 1_555
C41 C42 1_555 1_555
C47 C48 1_555 1_555
C49 C54 1_555 1_555
C53 C54 1_555 1_555
C59 C60 1_555 1_555
C71 C72 1_555 1_555
C77 C78 1_555 1_555
C83 C84 1_555 1_555

#END
