
#######################################################################
#
#                 Cambridge Crystallographic Data Centre
#                                CCDC 
#
#######################################################################
#
# If this CIF has been generated from an entry in the Cambridge 
# Structural Database, then it will include bibliographic, chemical, 
# crystal, experimental, refinement or atomic coordinate data resulting 
# from the CCDC's data processing and validation procedures.
#
#######################################################################

data_CIXCAO
_symmetry_cell_setting           orthorhombic
_symmetry_space_group_name_H-M   'P b c a'
_symmetry_Int_Tables_number      61
_space_group_name_Hall           '-P 2ac 2ab'
loop_
_symmetry_equiv_pos_site_id
_symmetry_equiv_pos_as_xyz
1 x,y,z
2 1/2-x,-y,1/2+z
3 -x,1/2+y,1/2-z
4 1/2+x,1/2-y,-z
5 -x,-y,-z
6 1/2+x,y,1/2-z
7 x,1/2-y,1/2+z
8 1/2-x,1/2+y,z
_cell_length_a                   27.881(6)
_cell_length_b                   13.675(3)
_cell_length_c                   45.714(9)
_cell_angle_alpha                90
_cell_angle_beta                 90
_cell_angle_gamma                90
_cell_volume                     17429.5
loop_
_atom_site_label
_atom_site_type_symbol
_atom_site_fract_x
_atom_site_fract_y
_atom_site_fract_z
Zn1 Zn 0.25596(2) -0.14480(4) -0.188942(11)
Zn2 Zn 0.442746(19) -0.16089(4) 0.070465(11)
Zn3 Zn 0.472230(19) 0.64969(4) -0.087200(13)
I1 I 0.303478(13) -0.30308(2) -0.195436(8)
I2 I 0.166978(13) -0.15294(3) -0.176839(8)
I3 I 0.433470(14) -0.34189(3) 0.058602(9)
I4 I 0.510702(12) -0.07902(3) 0.097964(7)
I5 I 0.489280(14) 0.72598(3) -0.037480(9)
I6 I 0.423510(15) 0.73398(3) -0.126910(11)
C1 C 0.31170(19) -0.1130(3) -0.13570(10)
H1 H 0.3111 -0.1824 -0.1358
C2 C 0.33323(19) -0.0648(3) -0.11229(10)
H2 H 0.3465 -0.1008 -0.0965
C3 C 0.2946(2) 0.0326(4) -0.15830(11)
H3 H 0.2814 0.0669 -0.1745
C4 C 0.31577(19) 0.0857(3) -0.13601(11)
H4 H 0.3171 0.1550 -0.1369
C5 C 0.33499(16) 0.0357(3) -0.11243(9)
C6 C 0.35780(16) 0.0884(3) -0.08762(10)
C7 C 0.4178(2) 0.4679(4) -0.10130(11)
H5 H 0.4130 0.5008 -0.1194
C8 C 0.3998(2) 0.3753(4) -0.09807(11)
H6 H 0.3829 0.3450 -0.1136
C9 C 0.44775(17) 0.4674(4) -0.05421(11)
H7 H 0.4643 0.5000 -0.0389
C10 C 0.43060(18) 0.3745(4) -0.04929(11)
H8 H 0.4351 0.3436 -0.0309
C11 C 0.40654(16) 0.3264(3) -0.07176(10)
C12 C 0.39062(15) 0.2234(3) -0.06828(10)
C13 C 0.44375(19) 0.0100(4) 0.02951(11)
H9 H 0.4625 0.0384 0.0446
C14 C 0.43173(19) 0.0668(4) 0.00581(11)
H10 H 0.4422 0.1328 0.0046
C15 C 0.4049(2) -0.1237(4) 0.01048(10)
H11 H 0.3962 -0.1908 0.0118
C16 C 0.3910(2) -0.0712(4) -0.01399(10)
H12 H 0.3728 -0.1018 -0.0290
C17 C 0.40386(17) 0.0260(3) -0.01642(9)
C18 C 0.39019(16) 0.0838(3) -0.04268(9)
C19 C 0.16240(16) 0.1342(3) -0.41858(10)
H13 H 0.1643 0.1542 -0.4385
C20 C 0.20439(16) 0.1172(3) -0.40357(9)
H14 H 0.2345 0.1233 -0.4131
C21 C 0.11673(15) 0.0961(3) -0.37839(9)
H15 H 0.0861 0.0876 -0.3697
C22 C 0.15688(16) 0.0795(3) -0.36157(9)
H16 H 0.1539 0.0605 -0.3417
C23 C 0.20182(15) 0.0910(3) -0.37427(9)
C24 C 0.24604(15) 0.0761(3) -0.35678(9)
C25 C 0.22744(16) -0.0294(3) -0.24127(9)
H17 H 0.1968 -0.0295 -0.2321
C26 C 0.23162(16) 0.0068(3) -0.26946(9)
H18 H 0.2042 0.0303 -0.2796
C27 C 0.30872(17) -0.0605(4) -0.23904(10)
H19 H 0.3357 -0.0835 -0.2284
C28 C 0.31547(17) -0.0240(3) -0.26701(10)
H20 H 0.3467 -0.0213 -0.2753
C29 C 0.27621(16) 0.0082(3) -0.28268(9)
C30 C 0.28099(15) 0.0395(3) -0.31372(9)
C31 C 0.45905(19) 0.1040(5) -0.36446(12)
H21 H 0.4873 0.1070 -0.3529
C32 C 0.41548(18) 0.0880(5) -0.35057(11)
H22 H 0.4142 0.0788 -0.3300
C33 C 0.42263(17) 0.1107(4) -0.40940(10)
H23 H 0.4247 0.1175 -0.4300
C34 C 0.37812(16) 0.0962(3) -0.39681(10)
H24 H 0.3503 0.0935 -0.4088
C35 C 0.37406(16) 0.0858(3) -0.36715(9)
C36 C 0.32671(15) 0.0734(3) -0.35318(9)
N1 N 0.29199(14) -0.0649(3) -0.15794(8)
N2 N 0.44205(13) 0.5141(3) -0.07991(9)
N3 N 0.43015(14) -0.0837(3) 0.03227(8)
N4 N 0.36770(13) 0.1832(3) -0.09088(8)
N5 N 0.40209(14) 0.1781(3) -0.04341(8)
N6 N 0.36792(14) 0.0351(3) -0.06399(8)
N7 N 0.11901(13) 0.1239(3) -0.40650(8)
N8 N 0.26522(14) -0.0642(3) -0.22656(8)
N9 N 0.46298(14) 0.1155(3) -0.39346(9)
N10 N 0.24018(13) 0.0522(3) -0.32852(7)
N11 N 0.32528(13) 0.0488(3) -0.32483(8)
N12 N 0.28808(13) 0.0873(3) -0.37017(8)
Zn2A Zn 0.057254(19) 0.16089(4) -0.429535(11)
Zn3B Zn 0.527770(19) 0.14969(4) -0.412800(13)
N7A N 0.38099(13) -0.1239(3) 0.09350(8)
N9B N 0.53702(14) 0.6155(3) -0.10654(9)
C37 C 0.2658(2) 0.2019(3) 0.17454(13)
C38 C 0.2387(3) 0.2268(3) 0.19895(15)
H25 H 0.2047 0.2285 0.1978
C39 C 0.2615(4) 0.2489(4) 0.22461(14)
H26 H 0.2426 0.2687 0.2408
C40 C 0.3097(4) 0.2440(4) 0.22819(16)
H27 H 0.3240 0.2586 0.2465
C41 C 0.3384(3) 0.2166(5) 0.20387(17)
H28 H 0.3722 0.2124 0.2058
C42 C 0.3158(2) 0.1953(4) 0.17634(13)
C43 C 0.3449(2) 0.1732(4) 0.15058(15)
C44 C 0.3958(3) 0.1681(5) 0.1515(2)
H29 H 0.4116 0.1775 0.1697
C45 C 0.4229(3) 0.1500(5) 0.1270(3)
H30 H 0.4568 0.1460 0.1284
C46 C 0.4004(3) 0.1378(5) 0.1004(2)
H31 H 0.4191 0.1273 0.0833
C47 C 0.3520(3) 0.1407(4) 0.09849(16)
H32 H 0.3370 0.1313 0.0800
C48 C 0.3231(2) 0.1576(4) 0.12377(14)
C49 C 0.2706(2) 0.1566(3) 0.12175(12)
C50 C 0.2480(3) 0.1338(4) 0.09506(13)
H33 H 0.2668 0.1206 0.0782
C51 C 0.1978(3) 0.1307(5) 0.09326(18)
H34 H 0.1825 0.1153 0.0753
C52 C 0.1707(3) 0.1505(4) 0.11836(18)
H35 H 0.1366 0.1486 0.1176
C53 C 0.1928(2) 0.1719(4) 0.14321(16)
H36 H 0.1738 0.1848 0.1600
C54 C 0.2421(2) 0.1764(3) 0.14591(12)
C55 C 0.9293(3) 0.4444(8) 0.22867(17)
C56 C 0.9380(3) 0.5428(7) 0.22380(18)
H37 H 0.9448 0.5860 0.2395
C57 C 0.9363(3) 0.5754(7) 0.19541(19)
H38 H 0.9414 0.6429 0.1916
C58 C 0.9276(3) 0.5142(6) 0.17280(16)
H39 H 0.9272 0.5389 0.1534
C59 C 0.9191(3) 0.4139(7) 0.1778(2)
H40 H 0.9139 0.3702 0.1620
C60 C 0.9185(3) 0.3807(8) 0.2067(2)
H41 H 0.9106 0.3146 0.2110
N13 N 0.9305(3) 0.4012(12) 0.2585(2)
O1 O 0.9338(3) 0.4682(9) 0.27951(17)
O2 O 0.9313(4) 0.3111(10) 0.2623(3)
C61 C 0.2974(3) 0.4471(6) 0.02920(15)
H42 H 0.2946 0.5165 0.0233
H43 H 0.2960 0.4444 0.0508
C62 C 0.3447(3) 0.4083(6) 0.01920(15)
H44 H 0.3708 0.4434 0.0295
H45 H 0.3484 0.4207 -0.0020
C63 C 0.3493(3) 0.2994(6) 0.02502(16)
H46 H 0.3792 0.2751 0.0159
H47 H 0.3519 0.2885 0.0464
C64 C 0.3076(3) 0.2415(7) 0.01337(18)
H48 H 0.3104 0.1728 0.0200
H49 H 0.3086 0.2419 -0.0083
C65 C 0.2602(3) 0.2821(6) 0.02337(15)
H50 H 0.2569 0.2716 0.0447
H51 H 0.2339 0.2463 0.0135
C66 C 0.2556(3) 0.3905(6) 0.01674(15)
H52 H 0.2543 0.4003 -0.0047
H53 H 0.2253 0.4156 0.0252
C67 C -0.0166(6) 0.0888(12) 0.1717(4)
H54 H -0.0489 0.0637 0.1667
H55 H 0.0036 0.0325 0.1773
C68 C -0.0205(8) 0.1559(18) 0.1963(5)
H56 H -0.0286 0.1181 0.2141
H57 H -0.0471 0.2021 0.1925
C69 C 0.0244(9) 0.2129(18) 0.2018(4)
H58 H 0.0174 0.2633 0.2168
H59 H 0.0487 0.1681 0.2102
C70 C 0.0458(8) 0.2625(12) 0.1756(3)
H60 H 0.0771 0.2922 0.1808
H61 H 0.0242 0.3151 0.1687
C71 C 0.0527(6) 0.1878(10) 0.1518(3)
H62 H 0.0763 0.1382 0.1582
H63 H 0.0653 0.2199 0.1340
C72 C 0.0049(6) 0.1385(13) 0.1451(4)
H64 H -0.0179 0.1881 0.1376
H65 H 0.0098 0.0892 0.1295
C73 C 0.2750(5) 0.7445(8) 0.9368(3)
H66 H 0.2768 0.8126 0.9295
H67 H 0.2447 0.7373 0.9479
C74 C 0.3153(5) 0.7259(8) 0.9561(3)
H68 H 0.3133 0.7703 0.9731
H69 H 0.3455 0.7405 0.9456
C75 C 0.3164(5) 0.6228(8) 0.9666(2)
H70 H 0.3458 0.6129 0.9783
H71 H 0.2885 0.6115 0.9795
C76 C 0.3155(3) 0.5490(7) 0.94254(18)
H72 H 0.3471 0.5488 0.9326
H73 H 0.3105 0.4834 0.9511
C77 C 0.2776(3) 0.5673(7) 0.9204(2)
H74 H 0.2462 0.5474 0.9286
H75 H 0.2840 0.5266 0.9030
C78 C 0.2751(4) 0.6745(7) 0.9112(2)
H76 H 0.3029 0.6895 0.8985
H77 H 0.2456 0.6849 0.8996
C79 C 0.9426(9) 1.023(2) 0.2322(6)
H78 H 0.9345 1.0810 0.2204
H79 H 0.9775 1.0240 0.2360
C80 C 0.9307(11) 0.935(3) 0.2157(5)
H80 H 0.9537 0.9270 0.1993
H81 H 0.8982 0.9417 0.2071
C81 C 0.9320(10) 0.844(2) 0.2345(6)
H82 H 0.9218 0.7866 0.2229
H83 H 0.9652 0.8325 0.2414
C82 C 0.8989(7) 0.857(2) 0.2605(5)
H84 H 0.8962 0.7943 0.2714
H85 H 0.8664 0.8756 0.2538
C83 C 0.9189(11) 0.936(2) 0.2805(5)
H86 H 0.9525 0.9211 0.2860
H87 H 0.8993 0.9425 0.2984
C84 C 0.9159(7) 1.028(2) 0.2613(6)
H88 H 0.8817 1.0420 0.2573
H89 H 0.9288 1.0839 0.2727
loop_
_geom_bond_atom_site_label_1
_geom_bond_atom_site_label_2
_geom_bond_site_symmetry_1
_geom_bond_site_symmetry_2
Zn1 I1 1_555 1_555
Zn2 I3 1_555 1_555
Zn3 I5 1_555 1_555
I2 Zn1 1_555 1_555
I4 Zn2 1_555 1_555
I6 Zn3 1_555 1_555
C1 H1 1_555 1_555
C2 C1 1_555 1_555
H2 C2 1_555 1_555
C3 H3 1_555 1_555
C4 C3 1_555 1_555
H4 C4 1_555 1_555
C5 C2 1_555 1_555
C6 C5 1_555 1_555
C7 H5 1_555 1_555
C8 C7 1_555 1_555
H6 C8 1_555 1_555
C9 H7 1_555 1_555
C10 C9 1_555 1_555
H8 C10 1_555 1_555
C11 C8 1_555 1_555
C12 C11 1_555 1_555
C13 H9 1_555 1_555
C14 C13 1_555 1_555
H10 C14 1_555 1_555
C15 H11 1_555 1_555
C16 C15 1_555 1_555
H12 C16 1_555 1_555
C17 C14 1_555 1_555
C18 C17 1_555 1_555
C19 H13 1_555 1_555
C20 C19 1_555 1_555
H14 C20 1_555 1_555
C21 H15 1_555 1_555
C22 C21 1_555 1_555
H16 C22 1_555 1_555
C23 C20 1_555 1_555
C24 C23 1_555 1_555
C25 H17 1_555 1_555
C26 C25 1_555 1_555
H18 C26 1_555 1_555
C27 H19 1_555 1_555
C28 C27 1_555 1_555
H20 C28 1_555 1_555
C29 C26 1_555 1_555
C30 C29 1_555 1_555
C31 H21 1_555 1_555
C32 C31 1_555 1_555
H22 C32 1_555 1_555
C33 H23 1_555 1_555
C34 C33 1_555 1_555
H24 C34 1_555 1_555
C35 C32 1_555 1_555
C36 C35 1_555 1_555
N1 Zn1 1_555 1_555
N2 Zn3 1_555 1_555
N3 Zn2 1_555 1_555
N4 C6 1_555 1_555
N5 C12 1_555 1_555
N6 C6 1_555 1_555
N7 C19 1_555 1_555
N8 Zn1 1_555 1_555
N9 C31 1_555 1_555
N10 C24 1_555 1_555
N11 C30 1_555 1_555
N12 C24 1_555 1_555
C37 C38 1_555 1_555
C38 H25 1_555 1_555
C39 C38 1_555 1_555
H26 C39 1_555 1_555
C40 C39 1_555 1_555
H27 C40 1_555 1_555
C41 C40 1_555 1_555
H28 C41 1_555 1_555
C42 C37 1_555 1_555
C43 C42 1_555 1_555
C44 C43 1_555 1_555
H29 C44 1_555 1_555
C45 C44 1_555 1_555
H30 C45 1_555 1_555
C46 C45 1_555 1_555
H31 C46 1_555 1_555
C47 C46 1_555 1_555
H32 C47 1_555 1_555
C48 C43 1_555 1_555
C49 C48 1_555 1_555
C50 C49 1_555 1_555
H33 C50 1_555 1_555
C51 C50 1_555 1_555
H34 C51 1_555 1_555
C52 C51 1_555 1_555
H35 C52 1_555 1_555
C53 C52 1_555 1_555
H36 C53 1_555 1_555
C54 C37 1_555 1_555
C55 C56 1_555 1_555
C56 H37 1_555 1_555
C57 C56 1_555 1_555
H38 C57 1_555 1_555
C58 C57 1_555 1_555
H39 C58 1_555 1_555
C59 C58 1_555 1_555
H40 C59 1_555 1_555
C60 C55 1_555 1_555
H41 C60 1_555 1_555
N13 C55 1_555 1_555
O1 N13 1_555 1_555
O2 N13 1_555 1_555
C61 H42 1_555 1_555
H43 C61 1_555 1_555
C62 C61 1_555 1_555
H44 C62 1_555 1_555
H45 C62 1_555 1_555
C63 C62 1_555 1_555
H46 C63 1_555 1_555
H47 C63 1_555 1_555
C64 C63 1_555 1_555
H48 C64 1_555 1_555
H49 C64 1_555 1_555
C65 C64 1_555 1_555
H50 C65 1_555 1_555
H51 C65 1_555 1_555
C66 C61 1_555 1_555
H52 C66 1_555 1_555
H53 C66 1_555 1_555
C67 H54 1_555 1_555
H55 C67 1_555 1_555
C68 C67 1_555 1_555
H56 C68 1_555 1_555
H57 C68 1_555 1_555
C69 C68 1_555 1_555
H58 C69 1_555 1_555
H59 C69 1_555 1_555
C70 C69 1_555 1_555
H60 C70 1_555 1_555
H61 C70 1_555 1_555
C71 C70 1_555 1_555
H62 C71 1_555 1_555
H63 C71 1_555 1_555
C72 C67 1_555 1_555
H64 C72 1_555 1_555
H65 C72 1_555 1_555
C73 H66 1_555 1_555
H67 C73 1_555 1_555
C74 C73 1_555 1_555
H68 C74 1_555 1_555
H69 C74 1_555 1_555
C75 C74 1_555 1_555
H70 C75 1_555 1_555
H71 C75 1_555 1_555
C76 C75 1_555 1_555
H72 C76 1_555 1_555
H73 C76 1_555 1_555
C77 C76 1_555 1_555
H74 C77 1_555 1_555
H75 C77 1_555 1_555
C78 C73 1_555 1_555
H76 C78 1_555 1_555
H77 C78 1_555 1_555
C79 H78 1_555 1_555
H79 C79 1_555 1_555
C80 C79 1_555 1_555
H80 C80 1_555 1_555
H81 C80 1_555 1_555
C81 C80 1_555 1_555
H82 C81 1_555 1_555
H83 C81 1_555 1_555
C82 C81 1_555 1_555
H84 C82 1_555 1_555
H85 C82 1_555 1_555
C83 C82 1_555 1_555
H86 C83 1_555 1_555
H87 C83 1_555 1_555
C84 C79 1_555 1_555
H88 C84 1_555 1_555
H89 C84 1_555 1_555
Zn2A N7 1_555 1_555
Zn3B N9 1_555 1_555
N7A Zn2 1_555 1_555
N9B Zn3 1_555 1_555
C1 N1 1_555 1_555
C3 N1 1_555 1_555
C4 C5 1_555 1_555
C7 N2 1_555 1_555
C9 N2 1_555 1_555
C10 C11 1_555 1_555
C12 N4 1_555 1_555
C13 N3 1_555 1_555
C15 N3 1_555 1_555
C16 C17 1_555 1_555
C18 N5 1_555 1_555
C18 N6 1_555 1_555
C21 N7 1_555 1_555
C22 C23 1_555 1_555
C25 N8 1_555 1_555
C27 N8 1_555 1_555
C28 C29 1_555 1_555
C30 N10 1_555 1_555
C33 N9 1_555 1_555
C34 C35 1_555 1_555
C36 N11 1_555 1_555
C36 N12 1_555 1_555
C41 C42 1_555 1_555
C47 C48 1_555 1_555
C49 C54 1_555 1_555
C53 C54 1_555 1_555
C59 C60 1_555 1_555
C65 C66 1_555 1_555
C71 C72 1_555 1_555
C77 C78 1_555 1_555
C83 C84 1_555 1_555

#END
