
#######################################################################
#
#                 Cambridge Crystallographic Data Centre
#                                CCDC 
#
#######################################################################
#
# If this CIF has been generated from an entry in the Cambridge 
# Structural Database, then it will include bibliographic, chemical, 
# crystal, experimental, refinement or atomic coordinate data resulting 
# from the CCDC's data processing and validation procedures.
#
#######################################################################

data_CIZMIJ
_symmetry_cell_setting           triclinic
_symmetry_space_group_name_H-M   'P 1'
_symmetry_Int_Tables_number      1
_space_group_name_Hall           'P 1'
loop_
_symmetry_equiv_pos_site_id
_symmetry_equiv_pos_as_xyz
1 x,y,z
_cell_length_a                   7.5481(6)
_cell_length_b                   10.8878(10)
_cell_length_c                   19.0460(18)
_cell_angle_alpha                79.948(8)
_cell_angle_beta                 79.570(8)
_cell_angle_gamma                73.077(8)
_cell_volume                     1460.32
loop_
_atom_site_label
_atom_site_type_symbol
_atom_site_fract_x
_atom_site_fract_y
_atom_site_fract_z
Zn1 Zn 0.28364(9) 0.71336(7) -0.96788(5)
N1 N 0.1173(9) 0.8694(7) -1.0229(4)
O1 O 0.0772(8) 0.6328(6) -0.9286(4)
O2 O 0.3237(9) 0.4960(7) -0.8886(4)
N2 N 0.3977(10) 0.7897(7) -0.9031(4)
N3 N 0.4945(9) 0.6413(6) -1.0397(4)
C1 C 0.1422(12) 0.9703(8) -1.0668(5)
C2 C -0.0732(14) 0.8874(9) -1.0109(6)
C3 C 0.1531(12) 0.5283(8) -0.8920(4)
H1 H 0.2588 0.9849 -1.0839
N4 N -0.0197(9) 1.0515(6) -1.0848(4)
H2 H -0.1360 0.8328 -0.9800
C4 C -0.1545(12) 0.9981(9) -1.0515(6)
C5 C 0.0310(11) 0.4449(7) -0.8549(5)
C6 C -0.0440(12) 1.1733(7) -1.1292(5)
H3 H -0.2813 1.0304 -1.0553
C7 C 0.0945(11) 0.3425(8) -0.8008(4)
C8 C -0.1485(13) 0.4682(9) -0.8726(6)
C9 C 0.0547(11) 1.1820(7) -1.1982(4)
C10 C -0.1588(10) 1.2815(7) -1.1003(4)
C11 C 0.2883(12) 0.3029(8) -0.7795(5)
C12 C -0.0280(11) 0.2728(7) -0.7643(5)
C13 C -0.2642(13) 0.3913(10) -0.8356(6)
H4 H -0.1907 0.5343 -0.9087
H5 H 0.1396 1.1096 -1.2158
C14 C 0.0216(11) 1.3040(8) -1.2404(4)
C15 C -0.1861(11) 1.4019(7) -1.1431(4)
H6 H -0.2172 1.2746 -1.0530
O3 O 0.4014(8) 0.2084(5) -0.8021(3)
O4 O 0.3193(8) 0.3673(5) -0.7340(3)
C16 C -0.2096(13) 0.2984(9) -0.7809(6)
O5 O 0.0281(8) 0.1869(5) -0.7040(3)
H7 H -0.3816 0.4045 -0.8489
C17 C -0.0957(10) 1.4136(7) -1.2129(4)
N5 N 0.1163(9) 1.3162(7) -1.3123(4)
N6 N -0.3013(8) 1.5143(6) -1.1133(3)
H8 H -0.2914 0.2521 -0.7546
C18 C 0.0373(10) 0.0551(8) -0.6986(5)
H9 H -0.1134 1.4940 -1.2410
C19 C 0.3003(11) 1.2644(7) -1.3325(4)
C20 C 0.0411(14) 1.3847(11) -1.3703(5)
C21 C -0.3017(12) 1.6409(7) -1.1416(5)
C22 C -0.4258(10) 1.5191(7) -1.0522(4)
C23 C 0.0261(13) -0.0039(9) -0.7560(5)
C24 C 0.0710(13) -0.0152(8) -0.6301(5)
H10 H 0.3829 1.2133 -1.3014
N7 N 0.3474(9) 1.2955(7) -1.4013(4)
C25 C 0.1827(13) 1.3695(10) -1.4277(5)
H11 H -0.0824 1.4331 -1.3717
H12 H -0.2293 1.6673 -1.1833
C26 C -0.4251(12) 1.7166(8) -1.0980(5)
H13 H -0.4521 1.4470 -1.0229
H14 H -0.0015 0.0446 -0.7999
C27 C 0.0572(13) -0.1368(8) -0.7460(5)
C28 C 0.1021(13) -0.1467(9) -0.6220(5)
H15 H 0.0718 0.0269 -0.5918
Zn2 Zn 0.60719(9) 1.21560(7) -1.45164(5)
H16 H 0.1706 1.4027 -1.4756
H17 H -0.4548 1.8066 -1.1046
H18 H 0.0501 -0.1782 -0.7838
C29 C 0.0995(12) -0.2114(8) -0.6794(5)
H19 H 0.1256 -0.1944 -0.5776
N8 N 0.5535(10) 1.1278(7) -1.5271(4)
O6 O 0.9435(10) 1.0767(8) -1.4592(4)
O7 O 0.7213(9) 1.1114(6) -1.3671(3)
N9 N 0.6988(10) 1.3598(7) -1.5144(4)
C30 C 0.1501(14) -0.3546(9) -0.6710(6)
C31 C 0.6020(11) 1.0089(8) -1.5417(5)
C32 C 0.4525(16) 1.2014(9) -1.5818(5)
C33 C 0.8913(13) 1.0650(8) -1.3933(5)
O8 O 0.1589(10) -0.4050(6) -0.7292(3)
O9 O 0.1827(13) -0.4186(7) -0.6119(4)
H20 H 0.6686 0.9391 -1.5128
N10 N 0.5461(10) 0.9975(6) -1.6025(3)
H21 H 0.3999 1.2905 -1.5860
C34 C 0.4432(16) 1.1216(9) -1.6283(6)
C35 C 1.0300(11) 0.9953(7) -1.3440(4)
H22 H 0.2278 -0.4965 -0.5937
C36 C 0.5748(11) 0.8859(7) -1.6357(4)
H23 H 0.3815 1.1448 -1.6687
C37 C 0.9881(10) 0.9134(7) -1.2804(4)
C38 C 1.2110(12) 1.0084(8) -1.3628(5)
C39 C 0.6244(12) 0.7647(8) -1.5991(4)
C40 C 0.5425(11) 0.9030(7) -1.7069(4)
C41 C 0.7976(10) 0.8849(8) -1.2597(4)
C42 C 1.1310(11) 0.8454(7) -1.2409(4)
C43 C 1.3454(11) 0.9470(8) -1.3179(5)
H24 H 1.2421 1.0584 -1.4056
H25 H 0.6418 0.7535 -1.5510
C44 C 0.6484(13) 0.6589(8) -1.6336(5)
C45 C 0.5651(11) 0.7948(8) -1.7410(4)
H26 H 0.5061 0.9859 -1.7315
O10 O 0.7776(9) 0.7993(6) -1.2909(4)
O11 O 0.6843(8) 0.9399(6) -1.2126(3)
C46 C 1.3093(11) 0.8658(8) -1.2589(5)
O12 O 1.0891(7) 0.7618(5) -1.1797(3)
H27 H 1.4628 0.9625 -1.3288
C47 C 0.6201(12) 0.6701(8) -1.7048(4)
N11 N 0.7027(10) 0.5301(6) -1.5945(4)
N12 N 0.5194(10) 0.8152(7) -1.8127(4)
H28 H 1.4020 0.8234 -1.2302
C48 C 1.1876(12) 0.6289(8) -1.1752(5)
H29 H 0.6372 0.5974 -1.7273
C49 C 0.8569(15) 0.4374(9) -1.6133(6)
C50 C 0.6103(12) 0.4789(8) -1.5367(5)
C51 C 0.4477(12) 0.7376(8) -1.8412(5)
C52 C 0.5088(15) 0.9229(9) -1.8605(5)
C53 C 1.3085(12) 0.5742(8) -1.2295(5)
C54 C 1.1507(12) 0.5570(8) -1.1100(4)
H30 H 0.9467 0.4426 -1.6533
C55 C 0.8551(13) 0.3337(9) -1.5615(6)
H31 H 0.4948 0.5227 -1.5142
H32 H 0.4360 0.6567 -1.8188
C56 C 0.4417(16) 0.9041(9) -1.9169(5)
H33 H 0.5418 0.9964 -1.8552
H34 H 1.3325 0.6243 -1.2732
C57 C 1.3969(12) 0.4431(8) -1.2201(5)
C58 C 1.2339(12) 0.4256(8) -1.1005(5)
H35 H 1.0702 0.5968 -1.0725
H36 H 0.9488 0.2562 -1.5593
H37 H 0.4274 0.9612 -1.9592
H38 H 1.4827 0.4064 -1.2573
C59 C 1.3607(11) 0.3654(8) -1.1565(4)
H39 H 1.2063 0.3764 -1.0569
C60 C 1.4504(11) 0.2251(8) -1.1452(5)
O13 O 1.5618(10) 0.1833(6) -1.2039(4)
O14 O 1.4198(9) 0.1545(6) -1.0899(4)
H40 H 1.6051 0.1041 -1.1873
N3_2 N -0.5055(9) 1.6413(6) -1.0397(4)
Zn1_2 Zn -0.71636(9) 1.71336(7) -0.96788(5)
N9_2 N 0.6988(10) 0.3598(7) -1.5144(4)
N2_2 N 0.3977(10) 0.7897(7) -1.9031(4)
Zn2_2 Zn 0.60719(9) 0.21560(7) -1.45164(5)
Zn1_3 Zn 0.28364(9) 0.71336(7) -1.96788(5)
O15 O -0.4800(14) 1.2319(8) -0.9614(4)
H41 H -0.3759 1.1750 -0.9578
H42 H -0.5343 1.2456 -0.9191
loop_
_geom_bond_atom_site_label_1
_geom_bond_atom_site_label_2
_geom_bond_site_symmetry_1
_geom_bond_site_symmetry_2
Zn1 N1 1_555 1_555
N1 C1 1_555 1_555
O1 Zn1 1_555 1_555
O2 Zn1 1_555 1_555
N2 Zn1 1_555 1_555
N3 Zn1 1_555 1_555
C1 H1 1_555 1_555
C2 N1 1_555 1_555
C3 O1 1_555 1_555
N4 C1 1_555 1_555
H2 C2 1_555 1_555
C4 C2 1_555 1_555
C5 C3 1_555 1_555
C6 N4 1_555 1_555
H3 C4 1_555 1_555
C7 C5 1_555 1_555
C8 C5 1_555 1_555
C9 C6 1_555 1_555
C10 C6 1_555 1_555
C11 C7 1_555 1_555
C12 C7 1_555 1_555
C13 C8 1_555 1_555
H4 C8 1_555 1_555
H5 C9 1_555 1_555
C14 C9 1_555 1_555
C15 C10 1_555 1_555
H6 C10 1_555 1_555
O3 C11 1_555 1_555
O4 C11 1_555 1_555
C16 C12 1_555 1_555
O5 C12 1_555 1_555
H7 C13 1_555 1_555
C17 C14 1_555 1_555
N5 C14 1_555 1_555
N6 C15 1_555 1_555
H8 C16 1_555 1_555
C18 O5 1_555 1_555
H9 C17 1_555 1_555
C19 N5 1_555 1_555
C20 N5 1_555 1_555
C21 N6 1_555 1_555
C22 N6 1_555 1_555
C23 C18 1_555 1_555
C24 C18 1_555 1_555
H10 C19 1_555 1_555
N7 C19 1_555 1_555
C25 C20 1_555 1_555
H11 C20 1_555 1_555
H12 C21 1_555 1_555
C26 C21 1_555 1_555
H13 C22 1_555 1_555
H14 C23 1_555 1_555
C27 C23 1_555 1_555
C28 C24 1_555 1_555
H15 C24 1_555 1_555
Zn2 N7 1_555 1_555
H16 C25 1_555 1_555
H17 C26 1_555 1_555
H18 C27 1_555 1_555
C29 C27 1_555 1_555
H19 C28 1_555 1_555
N8 Zn2 1_555 1_555
O6 Zn2 1_555 1_555
O7 Zn2 1_555 1_555
N9 Zn2 1_555 1_555
C30 C29 1_555 1_555
C31 N8 1_555 1_555
C32 N8 1_555 1_555
C33 O6 1_555 1_555
O8 C30 1_555 1_555
O9 C30 1_555 1_555
H20 C31 1_555 1_555
N10 C31 1_555 1_555
H21 C32 1_555 1_555
C34 C32 1_555 1_555
C35 C33 1_555 1_555
H22 O9 1_555 1_555
C36 N10 1_555 1_555
H23 C34 1_555 1_555
C37 C35 1_555 1_555
C38 C35 1_555 1_555
C39 C36 1_555 1_555
C40 C36 1_555 1_555
C41 C37 1_555 1_555
C42 C37 1_555 1_555
C43 C38 1_555 1_555
H24 C38 1_555 1_555
H25 C39 1_555 1_555
C44 C39 1_555 1_555
C45 C40 1_555 1_555
H26 C40 1_555 1_555
O10 C41 1_555 1_555
O11 C41 1_555 1_555
C46 C42 1_555 1_555
O12 C42 1_555 1_555
H27 C43 1_555 1_555
C47 C44 1_555 1_555
N11 C44 1_555 1_555
N12 C45 1_555 1_555
H28 C46 1_555 1_555
C48 O12 1_555 1_555
H29 C47 1_555 1_555
C49 N11 1_555 1_555
C50 N11 1_555 1_555
C51 N12 1_555 1_555
C52 N12 1_555 1_555
C53 C48 1_555 1_555
C54 C48 1_555 1_555
H30 C49 1_555 1_555
C55 C49 1_555 1_555
H31 C50 1_555 1_555
H32 C51 1_555 1_555
C56 C52 1_555 1_555
H33 C52 1_555 1_555
H34 C53 1_555 1_555
C57 C53 1_555 1_555
C58 C54 1_555 1_555
H35 C54 1_555 1_555
H36 C55 1_555 1_555
H37 C56 1_555 1_555
H38 C57 1_555 1_555
C59 C57 1_555 1_555
H39 C58 1_555 1_555
C60 C59 1_555 1_555
O13 C60 1_555 1_555
O14 C60 1_555 1_555
H40 O13 1_555 1_555
O15 H41 1_555 1_555
H42 O15 1_555 1_555
N3_2 C22 1_555 1_555
Zn1_2 N3_2 1_555 1_555
N9_2 C50 1_555 1_555
N2_2 C51 1_555 1_555
Zn2_2 N9_2 1_555 1_555
Zn1_3 N2_2 1_555 1_555
O2 C3 1_555 1_555
N4 C4 1_555 1_555
C13 C16 1_555 1_555
C15 C17 1_555 1_555
N7 C25 1_555 1_555
C26 N3_2 1_555 1_555
C28 C29 1_555 1_555
O7 C33 1_555 1_555
N10 C34 1_555 1_555
C43 C46 1_555 1_555
C45 C47 1_555 1_555
C55 N9_2 1_555 1_555
C56 N2_2 1_555 1_555
C58 C59 1_555 1_555

#END
