
#######################################################################
#
#                 Cambridge Crystallographic Data Centre
#                                CCDC 
#
#######################################################################
#
# If this CIF has been generated from an entry in the Cambridge 
# Structural Database, then it will include bibliographic, chemical, 
# crystal, experimental, refinement or atomic coordinate data resulting 
# from the CCDC's data processing and validation procedures.
#
#######################################################################

data_COCMOY
_symmetry_cell_setting           tetragonal
_symmetry_space_group_name_H-M   'P 42/m n m'
_symmetry_Int_Tables_number      136
_space_group_name_Hall           '-P 4n 2n'
loop_
_symmetry_equiv_pos_site_id
_symmetry_equiv_pos_as_xyz
1 x,y,z
2 -x,-y,z
3 1/2-y,1/2+x,1/2+z
4 1/2+y,1/2-x,1/2+z
5 1/2-x,1/2+y,1/2-z
6 1/2+x,1/2-y,1/2-z
7 y,x,-z
8 -y,-x,-z
9 -x,-y,-z
10 x,y,-z
11 1/2+y,1/2-x,1/2-z
12 1/2-y,1/2+x,1/2-z
13 1/2+x,1/2-y,1/2+z
14 1/2-x,1/2+y,1/2+z
15 -y,-x,z
16 y,x,z
_cell_length_a                   18.8266(5)
_cell_length_b                   18.8266(5)
_cell_length_c                   25.4638(17)
_cell_angle_alpha                90
_cell_angle_beta                 90
_cell_angle_gamma                90
_cell_volume                     9025.41
loop_
_atom_site_label
_atom_site_type_symbol
_atom_site_fract_x
_atom_site_fract_y
_atom_site_fract_z
Mn1 Mn 0.60140(5) 0.39860(5) 0.5000
Mn2 Mn 0.5000 0.5000 0.60784(7)
Cl1 Cl 0.5000 0.5000 0.5000
Si1 Si 0.5000 0.0000 0.7500
N1 N 0.5394(2) 0.34870(19) 0.56325(16)
N2 N 0.50375(19) 0.3828(2) 0.60060(17)
N3 N 0.4829(2) 0.3356(2) 0.63761(17)
C1 C 0.5075(2) 0.2734(2) 0.6189(2)
N4 N 0.5421(2) 0.2796(2) 0.57498(18)
C2 C 0.5009(2) 0.2072(2) 0.6495(2)
C3 C 0.4620(3) 0.2041(3) 0.6953(2)
H1 H 0.4370 0.2448 0.7073
C4 C 0.4596(3) 0.1411(3) 0.7237(2)
H2 H 0.4317 0.1391 0.7548
C5 C 0.4969(2) 0.0810(2) 0.7081(2)
C6 C 0.5349(3) 0.0858(3) 0.6617(2)
H3 H 0.5595 0.0450 0.6495
C7 C 0.5384(3) 0.1477(2) 0.6326(2)
H4 H 0.5661 0.1496 0.6014
O1 O 0.6811(3) 0.3189(3) 0.5000
O2 O 0.5000 0.5000 0.6925(3)
N1A N 0.4606(2) -0.34870(19) 0.56325(16)
N2A N 0.49625(19) -0.3828(2) 0.60060(17)
N3A N 0.5171(2) -0.3356(2) 0.63761(17)
C1A C 0.4925(2) -0.2734(2) 0.6189(2)
N4A N 0.4579(2) -0.2796(2) 0.57498(18)
C2A C 0.4991(2) -0.2072(2) 0.6495(2)
C3A C 0.5380(3) -0.2041(3) 0.6953(2)
H1A H 0.5630 -0.2448 0.7073
C4A C 0.5404(3) -0.1411(3) 0.7237(2)
H2A H 0.5683 -0.1391 0.7548
C5A C 0.5031(2) -0.0810(2) 0.7081(2)
C6A C 0.4651(3) -0.0858(3) 0.6617(2)
H3A H 0.4405 -0.0450 0.6495
C7A C 0.4616(3) -0.1477(2) 0.6326(2)
H4A H 0.4339 -0.1496 0.6014
N1J N 0.84870(19) -0.0394(2) 0.93675(16)
N2J N 0.8828(2) -0.00375(19) 0.89940(17)
N3J N 0.8356(2) 0.0171(2) 0.86239(17)
C1J C 0.7734(2) -0.0075(2) 0.8811(2)
N4J N 0.7796(2) -0.0421(2) 0.92502(18)
C2J C 0.7072(2) -0.0009(2) 0.8505(2)
C3J C 0.7041(3) 0.0380(3) 0.8047(2)
H1J H 0.7448 0.0630 0.7927
C4J C 0.6411(3) 0.0404(3) 0.7763(2)
H2J H 0.6391 0.0683 0.7452
C5J C 0.5810(2) 0.0031(2) 0.7919(2)
C6J C 0.5858(3) -0.0349(3) 0.8383(2)
H3J H 0.5450 -0.0595 0.8505
C7J C 0.6477(2) -0.0384(3) 0.8674(2)
H4J H 0.6496 -0.0661 0.8986
N1K N 0.15130(19) 0.0394(2) 0.93675(16)
N2K N 0.1172(2) 0.00375(19) 0.89940(17)
N3K N 0.1644(2) -0.0171(2) 0.86239(17)
C1K C 0.2266(2) 0.0075(2) 0.8811(2)
N4K N 0.2204(2) 0.0421(2) 0.92502(18)
C2K C 0.2928(2) 0.0009(2) 0.8505(2)
C3K C 0.2959(3) -0.0380(3) 0.8047(2)
H1K H 0.2552 -0.0630 0.7927
C4K C 0.3589(3) -0.0404(3) 0.7763(2)
H2K H 0.3609 -0.0683 0.7452
C5K C 0.4190(2) -0.0031(2) 0.7919(2)
C6K C 0.4142(3) 0.0349(3) 0.8383(2)
H3K H 0.4550 0.0595 0.8505
C7K C 0.3523(2) 0.0384(3) 0.8674(2)
H4K H 0.3504 0.0661 0.8986
Mn1A Mn 0.39860(5) -0.39860(5) 0.5000
O1A O 0.3189(3) -0.3189(3) 0.5000
Si1B Si 0.5000 0.0000 0.2500
N1H N 0.4606(2) -0.34870(19) 0.43675(16)
N2H N 0.49625(19) -0.3828(2) 0.39940(17)
N3H N 0.5171(2) -0.3356(2) 0.36239(17)
C1H C 0.4925(2) -0.2734(2) 0.3811(2)
N4H N 0.4579(2) -0.2796(2) 0.42502(18)
C2H C 0.4991(2) -0.2072(2) 0.3505(2)
C3H C 0.5380(3) -0.2041(3) 0.3047(2)
H1H H 0.5630 -0.2448 0.2927
C4H C 0.5404(3) -0.1411(3) 0.2763(2)
H2H H 0.5683 -0.1391 0.2452
C5H C 0.5031(2) -0.0810(2) 0.2919(2)
C6H C 0.4651(3) -0.0858(3) 0.3383(2)
H3H H 0.4405 -0.0450 0.3505
C7H C 0.4616(3) -0.1477(2) 0.3674(2)
H4H H 0.4339 -0.1496 0.3986
N1I N 0.5394(2) 0.34870(19) 0.43675(16)
N2I N 0.50375(19) 0.3828(2) 0.39940(17)
N3I N 0.4829(2) 0.3356(2) 0.36239(17)
C1I C 0.5075(2) 0.2734(2) 0.3811(2)
N4I N 0.5421(2) 0.2796(2) 0.42502(18)
C2I C 0.5009(2) 0.2072(2) 0.3505(2)
C3I C 0.4620(3) 0.2041(3) 0.3047(2)
H1I H 0.4370 0.2448 0.2927
C4I C 0.4596(3) 0.1411(3) 0.2763(2)
H2I H 0.4317 0.1391 0.2452
C5I C 0.4969(2) 0.0810(2) 0.2919(2)
C6I C 0.5349(3) 0.0858(3) 0.3383(2)
H3I H 0.5595 0.0450 0.3505
C7I C 0.5384(3) 0.1477(2) 0.3674(2)
H4I H 0.5661 0.1496 0.3986
N1B N 0.15130(19) 0.0394(2) 0.06325(16)
N2B N 0.1172(2) 0.00375(19) 0.10060(17)
N3B N 0.1644(2) -0.0171(2) 0.13761(17)
C1B C 0.2266(2) 0.0075(2) 0.1189(2)
N4B N 0.2204(2) 0.0421(2) 0.07498(18)
C2B C 0.2928(2) 0.0009(2) 0.1495(2)
C3B C 0.2959(3) -0.0380(3) 0.1953(2)
H1B H 0.2552 -0.0630 0.2073
C4B C 0.3589(3) -0.0404(3) 0.2237(2)
H2B H 0.3609 -0.0683 0.2548
C5B C 0.4190(2) -0.0031(2) 0.2081(2)
C6B C 0.4142(3) 0.0349(3) 0.1617(2)
H3B H 0.4550 0.0595 0.1495
C7B C 0.3523(2) 0.0384(3) 0.1326(2)
H4B H 0.3504 0.0661 0.1014
N1C N 0.84870(19) -0.0394(2) 0.06325(16)
N2C N 0.8828(2) -0.00375(19) 0.10060(17)
N3C N 0.8356(2) 0.0171(2) 0.13761(17)
C1C C 0.7734(2) -0.0075(2) 0.1189(2)
N4C N 0.7796(2) -0.0421(2) 0.07498(18)
C2C C 0.7072(2) -0.0009(2) 0.1495(2)
C3C C 0.7041(3) 0.0380(3) 0.1953(2)
H1C H 0.7448 0.0630 0.2073
C4C C 0.6411(3) 0.0404(3) 0.2237(2)
H2C H 0.6391 0.0683 0.2548
C5C C 0.5810(2) 0.0031(2) 0.2081(2)
C6C C 0.5858(3) -0.0349(3) 0.1617(2)
H3C H 0.5450 -0.0595 0.1495
C7C C 0.6477(2) -0.0384(3) 0.1326(2)
H4C H 0.6496 -0.0661 0.1014
Mn2F Mn 0.5000 0.5000 0.39216(7)
O2F O 0.5000 0.5000 0.3075(3)
Mn1A_2 Mn 0.39860(5) 0.60140(5) 0.5000
Mn1B Mn 0.10140(5) 0.10140(5) 0.0000
Mn1B_2 Mn 0.10140(5) 0.10140(5) 1.0000
Mn1C Mn 0.89860(5) -0.10140(5) 0.0000
Mn1C_2 Mn 0.89860(5) -0.10140(5) 1.0000
Mn2_2 Mn 0.5000 -0.5000 0.60784(7)
Mn2B Mn 0.0000 0.0000 0.10784(7)
Mn2B_2 Mn 1.0000 0.0000 0.10784(7)
Mn2D Mn 0.0000 0.0000 0.89216(7)
Mn2D_2 Mn 1.0000 0.0000 0.89216(7)
Mn2F_2 Mn 0.5000 -0.5000 0.39216(7)
Cl1_2 Cl 0.5000 -0.5000 0.5000
N1F N 0.34870(19) -0.4606(2) 0.43675(16)
N1G N 0.65130(19) 0.4606(2) 0.43675(16)
N1N N 0.65130(19) 0.4606(2) 0.56325(16)
N1O N 0.34870(19) -0.4606(2) 0.56325(16)
N2A_2 N 0.49625(19) 0.6172(2) 0.60060(17)
N2F N 0.3828(2) 0.50375(19) 0.39940(17)
N2G N 0.6172(2) 0.49625(19) 0.39940(17)
N2H_2 N 0.49625(19) 0.6172(2) 0.39940(17)
N2N N 0.6172(2) 0.49625(19) 0.60060(17)
N2O N 0.3828(2) 0.50375(19) 0.60060(17)
loop_
_geom_bond_atom_site_label_1
_geom_bond_atom_site_label_2
_geom_bond_site_symmetry_1
_geom_bond_site_symmetry_2
Mn1 Cl1 1_555 1_555
Mn2 Cl1 1_555 1_555
Cl1 Mn2F 1_555 1_555
Si1 C5 1_555 1_555
N1 Mn1 1_555 1_555
N2 Mn2 1_555 1_555
N3 N2 1_555 1_555
C1 N3 1_555 1_555
N4 N1 1_555 1_555
C2 C1 1_555 1_555
C3 C2 1_555 1_555
H1 C3 1_555 1_555
C4 C3 1_555 1_555
H2 C4 1_555 1_555
C5 C4 1_555 1_555
C6 C5 1_555 1_555
H3 C6 1_555 1_555
C7 C2 1_555 1_555
H4 C7 1_555 1_555
O1 Mn1 1_555 1_555
O2 Mn2 1_555 1_555
N1A N2A 1_555 1_555
N2A N3A 1_555 1_555
N3A C1A 1_555 1_555
C1A N4A 1_555 1_555
N4A N1A 1_555 1_555
C2A C1A 1_555 1_555
C3A C2A 1_555 1_555
H1A C3A 1_555 1_555
C4A C3A 1_555 1_555
H2A C4A 1_555 1_555
C5A Si1 1_555 1_555
C6A C5A 1_555 1_555
H3A C6A 1_555 1_555
C7A C2A 1_555 1_555
H4A C7A 1_555 1_555
N1J N2J 1_555 1_555
N2J N3J 1_555 1_555
N3J C1J 1_555 1_555
C1J N4J 1_555 1_555
N4J N1J 1_555 1_555
C2J C1J 1_555 1_555
C3J C2J 1_555 1_555
H1J C3J 1_555 1_555
C4J C3J 1_555 1_555
H2J C4J 1_555 1_555
C5J Si1 1_555 1_555
C6J C5J 1_555 1_555
H3J C6J 1_555 1_555
C7J C2J 1_555 1_555
H4J C7J 1_555 1_555
N1K N2K 1_555 1_555
N2K N3K 1_555 1_555
N3K C1K 1_555 1_555
C1K N4K 1_555 1_555
N4K N1K 1_555 1_555
C2K C1K 1_555 1_555
C3K C2K 1_555 1_555
H1K C3K 1_555 1_555
C4K C3K 1_555 1_555
H2K C4K 1_555 1_555
C5K Si1 1_555 1_555
C6K C5K 1_555 1_555
H3K C6K 1_555 1_555
C7K C2K 1_555 1_555
H4K C7K 1_555 1_555
Mn1A N1A 1_555 1_555
O1A Mn1A 1_555 1_555
Si1B C5H 1_555 1_555
N1H Mn1A 1_555 1_555
N2H N1H 1_555 1_555
N3H N2H 1_555 1_555
C1H N3H 1_555 1_555
N4H N1H 1_555 1_555
C2H C1H 1_555 1_555
C3H C2H 1_555 1_555
H1H C3H 1_555 1_555
C4H C3H 1_555 1_555
H2H C4H 1_555 1_555
C5H C4H 1_555 1_555
C6H C5H 1_555 1_555
H3H C6H 1_555 1_555
C7H C2H 1_555 1_555
H4H C7H 1_555 1_555
N1I Mn1 1_555 1_555
N2I N1I 1_555 1_555
N3I N2I 1_555 1_555
C1I N3I 1_555 1_555
N4I N1I 1_555 1_555
C2I C1I 1_555 1_555
C3I C2I 1_555 1_555
H1I C3I 1_555 1_555
C4I C3I 1_555 1_555
H2I C4I 1_555 1_555
C5I Si1B 1_555 1_555
C6I C5I 1_555 1_555
H3I C6I 1_555 1_555
C7I C2I 1_555 1_555
H4I C7I 1_555 1_555
N1B N2B 1_555 1_555
N2B N3B 1_555 1_555
N3B C1B 1_555 1_555
C1B N4B 1_555 1_555
N4B N1B 1_555 1_555
C2B C1B 1_555 1_555
C3B C2B 1_555 1_555
H1B C3B 1_555 1_555
C4B C3B 1_555 1_555
H2B C4B 1_555 1_555
C5B Si1B 1_555 1_555
C6B C5B 1_555 1_555
H3B C6B 1_555 1_555
C7B C2B 1_555 1_555
H4B C7B 1_555 1_555
N1C N2C 1_555 1_555
N2C N3C 1_555 1_555
N3C C1C 1_555 1_555
C1C N4C 1_555 1_555
N4C N1C 1_555 1_555
C2C C1C 1_555 1_555
C3C C2C 1_555 1_555
H1C C3C 1_555 1_555
C4C C3C 1_555 1_555
H2C C4C 1_555 1_555
C5C Si1B 1_555 1_555
C6C C5C 1_555 1_555
H3C C6C 1_555 1_555
C7C C2C 1_555 1_555
H4C C7C 1_555 1_555
Mn2F N2I 1_555 1_555
O2F Mn2F 1_555 1_555
Mn1A_2 Cl1 1_555 1_555
Mn1B N1B 1_555 1_555
Mn1B_2 N1K 1_555 1_555
Mn1C N1C 1_555 1_555
Mn1C_2 N1J 1_555 1_555
Mn2_2 N2A 1_555 1_555
Mn2B N2B 1_555 1_555
Mn2B_2 N2C 1_555 1_555
Mn2D N2K 1_555 1_555
Mn2D_2 N2J 1_555 1_555
Mn2F_2 N2H 1_555 1_555
Cl1_2 Mn1A 1_555 1_555
N1F Mn1A 1_555 1_555
N1G Mn1 1_555 1_555
N1N Mn1 1_555 1_555
N1O Mn1A 1_555 1_555
N2A_2 Mn2 1_555 1_555
N2F Mn2F 1_555 1_555
N2G Mn2F 1_555 1_555
N2H_2 Mn2F 1_555 1_555
N2N Mn2 1_555 1_555
N2O Mn2 1_555 1_555
N1 N2 1_555 1_555
C1 N4 1_555 1_555
C6 C7 1_555 1_555
C4A C5A 1_555 1_555
C6A C7A 1_555 1_555
C4J C5J 1_555 1_555
C6J C7J 1_555 1_555
C4K C5K 1_555 1_555
C6K C7K 1_555 1_555
C1H N4H 1_555 1_555
C6H C7H 1_555 1_555
C1I N4I 1_555 1_555
C4I C5I 1_555 1_555
C6I C7I 1_555 1_555
C4B C5B 1_555 1_555
C6B C7B 1_555 1_555
C4C C5C 1_555 1_555
C6C C7C 1_555 1_555
Mn2_2 Cl1_2 1_555 1_555
Mn2F_2 Cl1_2 1_555 1_555
N1G N2G 1_555 1_555
N1N N2N 1_555 1_555

#END
