
#######################################################################
#
#                 Cambridge Crystallographic Data Centre
#                                CCDC 
#
#######################################################################
#
# If this CIF has been generated from an entry in the Cambridge 
# Structural Database, then it will include bibliographic, chemical, 
# crystal, experimental, refinement or atomic coordinate data resulting 
# from the CCDC's data processing and validation procedures.
#
#######################################################################

data_CODRUJ
_symmetry_cell_setting           orthorhombic
_symmetry_space_group_name_H-M   'F d d d'
_symmetry_Int_Tables_number      70
_space_group_name_Hall           '-F 2uv 2vw'
loop_
_symmetry_equiv_pos_site_id
_symmetry_equiv_pos_as_xyz
1 x,y,z
2 x,1/2+y,1/2+z
3 x,1/4-y,1/4-z
4 1/2+x,y,1/2+z
5 1/4-x,y,1/4-z
6 1/2+x,1/2+y,z
7 1/4-x,1/4-y,z
8 3/4-x,3/4-y,z
9 3/4-x,y,3/4-z
10 x,3/4-y,3/4-z
11 3/4-x,1/4-y,1/2+z
12 3/4-x,1/2+y,1/4-z
13 1/4-x,3/4-y,1/2+z
14 1/2+x,3/4-y,1/4-z
15 1/4-x,1/2+y,3/4-z
16 1/2+x,1/4-y,3/4-z
17 -x,-y,-z
18 -x,1/2-y,1/2-z
19 -x,3/4+y,3/4+z
20 1/2-x,-y,1/2-z
21 3/4+x,-y,3/4+z
22 1/2-x,1/2-y,-z
23 3/4+x,3/4+y,-z
24 1/4+x,1/4+y,-z
25 1/4+x,-y,1/4+z
26 -x,1/4+y,1/4+z
27 1/4+x,3/4+y,1/2-z
28 1/4+x,1/2-y,3/4+z
29 3/4+x,1/4+y,1/2-z
30 1/2-x,1/4+y,3/4+z
31 3/4+x,1/2-y,1/4+z
32 1/2-x,3/4+y,1/4+z
_cell_length_a                   9.739(3)
_cell_length_b                   15.447(5)
_cell_length_c                   27.761(10)
_cell_angle_alpha                90
_cell_angle_beta                 90
_cell_angle_gamma                90
_cell_volume                     4176.32
loop_
_atom_site_label
_atom_site_type_symbol
_atom_site_fract_x
_atom_site_fract_y
_atom_site_fract_z
Nd1 Nd 0.6250 0.1250 0.509400(8)
C1 C 0.6250 0.0747(3) 0.6250
C2 C 0.3164(3) 0.0935(2) 0.52918(13)
C3 C 0.1636(4) 0.0902(3) 0.53249(19)
H1 H 0.130(8) 0.031(6) 0.537(3)
O1 O 0.6143(3) 0.03839(15) 0.58502(8)
O2 O 0.3836(3) 0.16103(16) 0.53801(10)
O3 O 0.7764(3) 0.12230(17) 0.43530(9)
O4 O 0.3744(3) 0.02498(16) 0.51631(9)
Nd1B Nd 0.6250 0.1250 0.740600(8)
Nd1P Nd 0.3750 -0.1250 0.490600(8)
Nd1_2 Nd -0.3750 0.1250 0.509400(8)
Nd1W Nd -0.1250 0.3750 0.490600(8)
Nd1W_2 Nd 0.8750 0.3750 0.490600(8)
Nd1_3 Nd 1.6250 0.1250 0.509400(8)
Nd1P_2 Nd 1.3750 -0.1250 0.490600(8)
C1B C 0.6250 0.1753(3) 0.6250
C2F C -0.0664(3) 0.1565(2) 0.52918(13)
C2F_2 C 0.9336(3) 0.1565(2) 0.52918(13)
C2_2 C 1.3164(3) 0.0935(2) 0.52918(13)
C3F C 0.0864(4) 0.1598(3) 0.53249(19)
C3F_2 C 1.0864(4) 0.1598(3) 0.53249(19)
C3_2 C 1.1636(4) 0.0902(3) 0.53249(19)
H1F H 0.120(8) 0.219(6) 0.537(3)
H1F_2 H 1.120(8) 0.219(6) 0.537(3)
H1_2 H 1.130(8) 0.031(6) 0.537(3)
O1B O 0.6143(3) 0.21161(15) 0.66498(8)
O1F O 0.6357(3) 0.21161(15) 0.58502(8)
O1D O 0.6357(3) 0.03839(15) 0.66498(8)
O2F O -0.1336(3) 0.08897(16) 0.53801(10)
O2F_2 O 0.8664(3) 0.08897(16) 0.53801(10)
O2_2 O 1.3836(3) 0.16103(16) 0.53801(10)
O2B O 0.3836(3) 0.08897(16) 0.71199(10)
O2D O 0.8664(3) 0.16103(16) 0.71199(10)
O3F O 0.4736(3) 0.12770(17) 0.43530(9)
O3B O 0.7764(3) 0.12770(17) 0.81470(9)
O3D O 0.4736(3) 0.12230(17) 0.81470(9)
O4F O -0.1244(3) 0.22502(16) 0.51631(9)
O4F_2 O 0.8756(3) 0.22502(16) 0.51631(9)
O4_2 O 1.3744(3) 0.02498(16) 0.51631(9)
O4W O 0.6244(3) 0.27498(16) 0.48369(9)
O4P O 0.6256(3) -0.02498(16) 0.48369(9)
O4X O 0.6244(3) -0.02498(16) 0.76631(9)
O4Y O 0.6256(3) 0.27498(16) 0.76631(9)
O5 O 0.9488(6) 0.9519(4) 0.5987(2)
loop_
_geom_bond_atom_site_label_1
_geom_bond_atom_site_label_2
_geom_bond_site_symmetry_1
_geom_bond_site_symmetry_2
Nd1 O1 1_555 1_555
C1 O1 1_555 1_555
C2 C3 1_555 1_555
C3 H1 1_555 1_555
O2 Nd1 1_555 1_555
O3 Nd1 1_555 1_555
O4 C2 1_555 1_555
Nd1B O1B 1_555 1_555
Nd1P O4 1_555 1_555
Nd1_2 O2F 1_555 1_555
Nd1W O4F 1_555 1_555
Nd1W_2 O4F_2 1_555 1_555
Nd1_3 O2_2 1_555 1_555
Nd1P_2 O4_2 1_555 1_555
C1B C1 1_555 1_555
C2F C3F 1_555 1_555
C2F_2 C3F_2 1_555 1_555
C2_2 C3_2 1_555 1_555
C3F C3 1_555 1_555
C3F_2 C3_2 1_555 1_555
C3_2 H1_2 1_555 1_555
H1F C3F 1_555 1_555
H1F_2 C3F_2 1_555 1_555
O1B C1B 1_555 1_555
O1F Nd1 1_555 1_555
O1D C1 1_555 1_555
O2F C2F 1_555 1_555
O2F_2 Nd1 1_555 1_555
O2_2 C2_2 1_555 1_555
O2B Nd1B 1_555 1_555
O2D Nd1B 1_555 1_555
O3F Nd1 1_555 1_555
O3B Nd1B 1_555 1_555
O3D Nd1B 1_555 1_555
O4F C2F 1_555 1_555
O4F_2 C2F_2 1_555 1_555
O4_2 C2_2 1_555 1_555
O4W Nd1 1_555 1_555
O4P Nd1 1_555 1_555
O4X Nd1B 1_555 1_555
O4Y Nd1B 1_555 1_555
C2 O2 1_555 1_555
Nd1B O1D 1_555 1_555
C1B O1F 1_555 1_555
C2F_2 O2F_2 1_555 1_555

#END
