
#######################################################################
#
#                 Cambridge Crystallographic Data Centre
#                                CCDC 
#
#######################################################################
#
# If this CIF has been generated from an entry in the Cambridge 
# Structural Database, then it will include bibliographic, chemical, 
# crystal, experimental, refinement or atomic coordinate data resulting 
# from the CCDC's data processing and validation procedures.
#
#######################################################################

data_CODSUL
_symmetry_cell_setting           triclinic
_symmetry_space_group_name_H-M   'P -1'
_symmetry_Int_Tables_number      2
_space_group_name_Hall           '-P 1'
loop_
_symmetry_equiv_pos_site_id
_symmetry_equiv_pos_as_xyz
1 x,y,z
2 -x,-y,-z
_cell_length_a                   12.156(2)
_cell_length_b                   18.590(4)
_cell_length_c                   21.024(4)
_cell_angle_alpha                74.05(3)
_cell_angle_beta                 75.94(3)
_cell_angle_gamma                75.58(3)
_cell_volume                     4345.81
loop_
_atom_site_label
_atom_site_type_symbol
_atom_site_fract_x
_atom_site_fract_y
_atom_site_fract_z
Cd1 Cd 0.33727(4) 0.08374(2) 0.68953(2)
Cd2 Cd 0.05035(4) -0.33914(2) 0.64253(2)
Cd3 Cd 0.36246(4) -0.33700(3) 1.04426(2)
O1 O 0.1746(4) 0.1430(3) 0.7602(3)
O2 O 0.2333(4) 0.2097(3) 0.6584(2)
O3 O -0.1918(4) 0.2723(3) 0.8933(3)
O4 O -0.2393(4) 0.3962(3) 0.8680(2)
O5 O 0.0095(6) 0.5463(3) 0.6847(3)
O6 O 0.1910(6) 0.4902(4) 0.6530(3)
O7 O 0.3599(4) -0.0365(2) 0.7584(2)
O8 O 0.2461(4) -0.0171(3) 0.6867(2)
O9 O 0.3709(6) -0.2664(3) 0.9411(3)
O10 O 0.2885(9) -0.3555(5) 0.9438(4)
O11 O 0.4950(4) -0.4477(3) 1.0433(3)
O12 O 0.1377(5) -0.3477(3) 0.7343(2)
O13 O 0.1447(5) -0.2464(3) 0.6514(2)
N1 N 0.4682(4) 0.1249(3) 0.7242(3)
N2 N 0.6210(4) 0.1722(3) 0.7230(3)
N3 N 0.9258(5) 0.2469(3) 0.5764(3)
N4 N 0.9352(5) 0.3123(3) 0.4697(2)
N5 N 0.4793(4) -0.2868(3) 1.0842(3)
N6 N 0.6185(5) -0.2356(3) 1.0940(3)
N7 N 0.9142(5) -0.1251(3) 0.9950(3)
N8 N 0.9249(5) -0.0374(4) 0.8974(3)
N9 N 0.4394(5) 0.0749(3) 0.5848(3)
N10 N 0.4901(5) 0.1063(3) 0.4743(3)
N11 N 0.3304(5) 0.2539(3) 0.3113(3)
N12 N 0.1378(5) 0.2745(3) 0.3302(3)
C1 C 0.8697(6) 0.3601(4) 0.6320(3)
H1 H 0.8652 0.3327 0.6765
C2 C 0.8467(8) 0.4378(5) 0.6159(4)
H2 H 0.8263 0.4641 0.6502
C3 C 0.8531(8) 0.4782(5) 0.5502(4)
H3 H 0.8371 0.5312 0.5413
C4 C 0.8821(8) 0.4434(4) 0.4973(4)
H4 H 0.8866 0.4721 0.4532
C5 C 0.9003(5) 0.3234(4) 0.5788(3)
C6 C 0.9461(5) 0.2443(4) 0.5105(3)
C7 C 0.9044(6) 0.3648(4) 0.5111(3)
C8 C 0.9755(7) 0.1713(4) 0.4859(4)
H5 H 0.9077 0.1629 0.4755
H6 H 1.0027 0.1292 0.5204
H7 H 1.0348 0.1755 0.4462
C9 C 0.9330(6) 0.1827(4) 0.6343(3)
H8 H 0.9522 0.1985 0.6699
H9 H 0.9951 0.1420 0.6217
C10 C 0.8214(6) 0.1521(4) 0.6612(4)
H10 H 0.8363 0.1044 0.6941
H11 H 0.7981 0.1412 0.6244
C11 C 0.7212(6) 0.2069(4) 0.6942(4)
H12 H 0.7453 0.2207 0.7292
H13 H 0.7011 0.2532 0.6607
C12 C 0.5362(7) 0.2159(4) 0.6191(4)
H14 H 0.5943 0.1914 0.5876
H15 H 0.5500 0.2656 0.6156
H16 H 0.4613 0.2207 0.6092
C13 C 0.5407(5) 0.1695(4) 0.6882(3)
C14 C 0.5044(5) 0.0949(3) 0.7863(3)
C15 C 0.4581(5) 0.0464(4) 0.8435(3)
H17 H 0.3933 0.0276 0.8449
C16 C 0.5115(6) 0.0263(4) 0.8992(3)
H18 H 0.4831 -0.0071 0.9381
C17 C 0.6063(7) 0.0557(5) 0.8971(4)
H19 H 0.6389 0.0427 0.9354
C18 C 0.6537(7) 0.1029(5) 0.8410(4)
H20 H 0.7194 0.1207 0.8398
C19 C 0.6002(5) 0.1238(4) 0.7851(3)
C20 C 0.9906(7) -0.1722(6) 0.8887(5)
H21 H 1.0117 -0.1509 0.8414
H22 H 0.9341 -0.2030 0.8958
H23 H 1.0579 -0.2031 0.9056
C21 C 0.9418(6) -0.1103(5) 0.9243(4)
C22 C 0.8820(6) -0.0014(4) 0.9513(4)
C23 C 0.8537(6) 0.0755(4) 0.9504(4)
H24 H 0.8606 0.1121 0.9101
C24 C 0.8151(7) 0.0961(5) 1.0111(5)
H25 H 0.7931 0.1475 1.0122
C25 C 0.8085(6) 0.0404(5) 1.0715(5)
H26 H 0.7807 0.0553 1.1121
C26 C 0.8419(6) -0.0348(5) 1.0718(4)
H27 H 0.8415 -0.0714 1.1122
C27 C 0.8762(5) -0.0558(4) 1.0117(3)
C28 C 0.9264(6) -0.1973(4) 1.0415(4)
H28 H 0.9318 -0.1901 1.0845
H29 H 0.9981 -0.2296 1.0254
C29 C 0.8258(6) -0.2384(4) 1.0521(4)
H30 H 0.8243 -0.2497 1.0099
H31 H 0.8388 -0.2865 1.0848
C30 C 0.7109(6) -0.1920(4) 1.0761(4)
H32 H 0.7152 -0.1752 1.1151
H33 H 0.6930 -0.1470 1.0409
C31 C 0.5616(8) -0.1990(5) 0.9796(4)
H34 H 0.6337 -0.2203 0.9545
H35 H 0.5591 -0.1461 0.9761
H36 H 0.4989 -0.2038 0.9617
C32 C 0.5507(6) -0.2408(4) 1.0521(4)
C33 C 0.4980(5) -0.3119(4) 1.1487(3)
C34 C 0.4427(7) -0.3608(4) 1.2049(4)
H37 H 0.3815 -0.3809 1.2022
C35 C 0.4843(7) -0.3774(5) 1.2640(4)
H38 H 0.4519 -0.4109 1.3014
C36 C 0.5751(8) -0.3449(6) 1.2697(4)
H39 H 0.6002 -0.3573 1.3104
C37 C 0.6271(7) -0.2944(5) 1.2141(4)
H40 H 0.6852 -0.2716 1.2167
C38 C 0.5867(6) -0.2812(4) 1.1566(3)
C39 C 0.2789(6) 0.1350(5) 0.5213(4)
H41 H 0.2308 0.1220 0.5647
H42 H 0.2602 0.1126 0.4902
H43 H 0.2658 0.1895 0.5054
C40 C 0.4006(6) 0.1060(4) 0.5269(3)
C41 C 0.5587(5) 0.0549(3) 0.5681(3)
C42 C 0.5917(6) 0.0742(4) 0.4998(3)
C43 C 0.7088(6) 0.0630(4) 0.4673(4)
H44 H 0.7314 0.0777 0.4208
C44 C 0.7869(6) 0.0286(4) 0.5096(4)
H45 H 0.8652 0.0195 0.4907
C45 C 0.7549(6) 0.0073(4) 0.5776(4)
H46 H 0.8115 -0.0165 0.6036
C46 C 0.6404(6) 0.0202(4) 0.6089(4)
H47 H 0.6188 0.0063 0.6555
C47 C 0.4795(6) 0.1381(4) 0.4032(3)
H48 H 0.4090 0.1286 0.3960
H49 H 0.5442 0.1127 0.3747
C48 C 0.4772(6) 0.2234(4) 0.3833(4)
H50 H 0.5525 0.2322 0.3834
H51 H 0.4211 0.2475 0.4165
C49 C 0.4463(6) 0.2604(4) 0.3138(4)
H52 H 0.4511 0.3139 0.3023
H53 H 0.5021 0.2362 0.2805
C50 C 0.2227(7) 0.3564(4) 0.3728(4)
H54 H 0.1512 0.3923 0.3698
H55 H 0.2862 0.3820 0.3513
H56 H 0.2275 0.3345 0.4193
C51 C 0.2278(5) 0.2956(3) 0.3392(3)
C52 C 0.3005(6) 0.2037(4) 0.2839(3)
C53 C 0.1812(6) 0.2156(4) 0.2954(3)
C54 C 0.1253(7) 0.1715(4) 0.2739(4)
H57 H 0.0451 0.1784 0.2826
C55 C 0.1934(8) 0.1173(5) 0.2396(5)
H58 H 0.1582 0.0874 0.2248
C56 C 0.3121(8) 0.1067(5) 0.2268(4)
H59 H 0.3556 0.0700 0.2034
C57 C 0.3680(7) 0.1498(4) 0.2484(4)
H60 H 0.4482 0.1428 0.2393
C58 C 0.1717(6) 0.2049(4) 0.7167(4)
C59 C 0.0962(5) 0.2762(3) 0.7343(3)
C60 C 0.0000(5) 0.2730(3) 0.7859(3)
H61 H -0.0171 0.2258 0.8099
C61 C -0.0710(5) 0.3389(3) 0.8022(3)
C62 C -0.1733(5) 0.3350(4) 0.8581(3)
C63 C -0.0440(5) 0.4087(3) 0.7669(3)
H62 H -0.0931 0.4532 0.7763
C64 C 0.0563(5) 0.4139(3) 0.7171(3)
C65 C 0.1241(6) 0.3463(4) 0.7002(3)
H63 H 0.1884 0.3487 0.6656
C66 C 0.0894(7) 0.4878(4) 0.6824(3)
C67 C 0.1650(5) -0.2835(4) 0.7091(3)
C68 C 0.2482(5) -0.2904(4) 0.8097(3)
H64 H 0.2406 -0.3411 0.8261
C69 C 0.2923(5) -0.2558(3) 0.8461(3)
C70 C 0.3188(6) -0.2963(4) 0.9145(3)
C71 C 0.3124(5) -0.1828(3) 0.8202(3)
H65 H 0.3491 -0.1620 0.8429
C72 C 0.2777(5) -0.1395(3) 0.7595(3)
C73 C 0.2294(5) -0.1736(3) 0.7240(3)
H66 H 0.2067 -0.1456 0.6837
C74 C 0.2150(5) -0.2492(3) 0.7484(3)
C75 C 0.2960(5) -0.0592(3) 0.7337(3)
Cd2_2 Cd 0.05035(4) 0.66086(2) 0.64253(2)
Cd2A Cd -0.05035(4) 0.33914(2) 0.35747(2)
Cd2A_2 Cd 0.94965(4) 0.33914(2) 0.35747(2)
Cd3A Cd -0.36246(4) 0.33700(3) 0.95574(2)
O3A O 0.1918(4) -0.2723(3) 1.1067(3)
O4A O 0.2393(4) -0.3962(3) 1.1320(2)
O5_2 O 0.0095(6) -0.4537(3) 0.6847(3)
N4A N 0.0648(5) -0.3123(3) 0.5303(2)
N12A N -0.1378(5) -0.2745(3) 0.6698(3)
loop_
_geom_bond_atom_site_label_1
_geom_bond_atom_site_label_2
_geom_bond_site_symmetry_1
_geom_bond_site_symmetry_2
Cd1 O1 1_555 1_555
Cd2 O12 1_555 1_555
Cd3 O9 1_555 1_555
O1 C58 1_555 1_555
O2 Cd1 1_555 1_555
O3 C62 1_555 1_555
O4 C62 1_555 1_555
O5 C66 1_555 1_555
O6 C66 1_555 1_555
O7 Cd1 1_555 1_555
O8 Cd1 1_555 1_555
O9 C70 1_555 1_555
O10 Cd3 1_555 1_555
O11 Cd3 1_555 1_555
O12 C67 1_555 1_555
O13 Cd2 1_555 1_555
N1 Cd1 1_555 1_555
N2 C11 1_555 1_555
N3 C5 1_555 1_555
N4 C6 1_555 1_555
N5 Cd3 1_555 1_555
N6 C30 1_555 1_555
N7 C21 1_555 1_555
N8 C21 1_555 1_555
N9 Cd1 1_555 1_555
N10 C40 1_555 1_555
N11 C49 1_555 1_555
N12 C51 1_555 1_555
C1 H1 1_555 1_555
C2 C1 1_555 1_555
H2 C2 1_555 1_555
C3 C2 1_555 1_555
H3 C3 1_555 1_555
C4 C3 1_555 1_555
H4 C4 1_555 1_555
C5 C1 1_555 1_555
C6 N3 1_555 1_555
C7 N4 1_555 1_555
C8 C6 1_555 1_555
H5 C8 1_555 1_555
H6 C8 1_555 1_555
H7 C8 1_555 1_555
C9 N3 1_555 1_555
H8 C9 1_555 1_555
H9 C9 1_555 1_555
C10 C9 1_555 1_555
H10 C10 1_555 1_555
H11 C10 1_555 1_555
C11 C10 1_555 1_555
H12 C11 1_555 1_555
H13 C11 1_555 1_555
C12 H14 1_555 1_555
H15 C12 1_555 1_555
H16 C12 1_555 1_555
C13 N1 1_555 1_555
C14 N1 1_555 1_555
C15 C14 1_555 1_555
H17 C15 1_555 1_555
C16 C15 1_555 1_555
H18 C16 1_555 1_555
C17 C16 1_555 1_555
H19 C17 1_555 1_555
C18 C17 1_555 1_555
H20 C18 1_555 1_555
C19 N2 1_555 1_555
C20 H21 1_555 1_555
H22 C20 1_555 1_555
H23 C20 1_555 1_555
C21 C20 1_555 1_555
C22 N8 1_555 1_555
C23 C22 1_555 1_555
H24 C23 1_555 1_555
C24 C23 1_555 1_555
H25 C24 1_555 1_555
C25 C24 1_555 1_555
H26 C25 1_555 1_555
C26 C25 1_555 1_555
H27 C26 1_555 1_555
C27 N7 1_555 1_555
C28 N7 1_555 1_555
H28 C28 1_555 1_555
H29 C28 1_555 1_555
C29 C28 1_555 1_555
H30 C29 1_555 1_555
H31 C29 1_555 1_555
C30 C29 1_555 1_555
H32 C30 1_555 1_555
H33 C30 1_555 1_555
C31 H34 1_555 1_555
H35 C31 1_555 1_555
H36 C31 1_555 1_555
C32 N5 1_555 1_555
C33 N5 1_555 1_555
C34 C33 1_555 1_555
H37 C34 1_555 1_555
C35 C34 1_555 1_555
H38 C35 1_555 1_555
C36 C35 1_555 1_555
H39 C36 1_555 1_555
C37 C36 1_555 1_555
H40 C37 1_555 1_555
C38 N6 1_555 1_555
C39 H41 1_555 1_555
H42 C39 1_555 1_555
H43 C39 1_555 1_555
C40 N9 1_555 1_555
C41 N9 1_555 1_555
C42 N10 1_555 1_555
C43 C42 1_555 1_555
H44 C43 1_555 1_555
C44 C43 1_555 1_555
H45 C44 1_555 1_555
C45 C44 1_555 1_555
H46 C45 1_555 1_555
C46 C41 1_555 1_555
H47 C46 1_555 1_555
C47 N10 1_555 1_555
H48 C47 1_555 1_555
H49 C47 1_555 1_555
C48 C47 1_555 1_555
H50 C48 1_555 1_555
H51 C48 1_555 1_555
C49 C48 1_555 1_555
H52 C49 1_555 1_555
H53 C49 1_555 1_555
C50 H54 1_555 1_555
H55 C50 1_555 1_555
H56 C50 1_555 1_555
C51 N11 1_555 1_555
C52 N11 1_555 1_555
C53 N12 1_555 1_555
C54 C53 1_555 1_555
H57 C54 1_555 1_555
C55 C54 1_555 1_555
H58 C55 1_555 1_555
C56 C55 1_555 1_555
H59 C56 1_555 1_555
C57 C52 1_555 1_555
H60 C57 1_555 1_555
C58 O2 1_555 1_555
C59 C58 1_555 1_555
C60 C59 1_555 1_555
H61 C60 1_555 1_555
C61 C60 1_555 1_555
C62 C61 1_555 1_555
C63 C61 1_555 1_555
H62 C63 1_555 1_555
C64 C63 1_555 1_555
C65 C59 1_555 1_555
H63 C65 1_555 1_555
C66 C64 1_555 1_555
C67 O13 1_555 1_555
C68 H64 1_555 1_555
C69 C68 1_555 1_555
C70 O10 1_555 1_555
C71 C69 1_555 1_555
H65 C71 1_555 1_555
C72 C71 1_555 1_555
C73 C72 1_555 1_555
H66 C73 1_555 1_555
C74 C67 1_555 1_555
C75 O7 1_555 1_555
Cd2_2 O5 1_555 1_555
Cd2A N12 1_555 1_555
Cd2A_2 N4 1_555 1_555
Cd3A O3 1_555 1_555
O3A Cd3 1_555 1_555
O4A Cd3 1_555 1_555
O5_2 Cd2 1_555 1_555
N4A Cd2 1_555 1_555
N12A Cd2 1_555 1_555
O4 Cd3A 1_555 1_555
O8 C75 1_555 1_555
N2 C13 1_555 1_555
N6 C32 1_555 1_555
C4 C7 1_555 1_555
C5 C7 1_555 1_555
C12 C13 1_555 1_555
C14 C19 1_555 1_555
C18 C19 1_555 1_555
C22 C27 1_555 1_555
C26 C27 1_555 1_555
C31 C32 1_555 1_555
C33 C38 1_555 1_555
C37 C38 1_555 1_555
C39 C40 1_555 1_555
C41 C42 1_555 1_555
C45 C46 1_555 1_555
C50 C51 1_555 1_555
C52 C53 1_555 1_555
C56 C57 1_555 1_555
C64 C65 1_555 1_555
C68 C74 1_555 1_555
C69 C70 1_555 1_555
C72 C75 1_555 1_555
C73 C74 1_555 1_555

#END
