
#######################################################################
#
#                 Cambridge Crystallographic Data Centre
#                                CCDC 
#
#######################################################################
#
# If this CIF has been generated from an entry in the Cambridge 
# Structural Database, then it will include bibliographic, chemical, 
# crystal, experimental, refinement or atomic coordinate data resulting 
# from the CCDC's data processing and validation procedures.
#
#######################################################################

data_COGNAO
_symmetry_cell_setting           cubic
_symmetry_space_group_name_H-M   'P a -3'
_symmetry_Int_Tables_number      205
_space_group_name_Hall           '-P 2ac 2ab 3'
loop_
_symmetry_equiv_pos_site_id
_symmetry_equiv_pos_as_xyz
1 x,y,z
2 z,x,y
3 y,z,x
4 1/2-x,-y,1/2+z
5 -x,1/2+y,1/2-z
6 1/2+x,1/2-y,-z
7 1/2+z,1/2-x,-y
8 1/2-z,-x,1/2+y
9 -z,1/2+x,1/2-y
10 -y,1/2+z,1/2-x
11 1/2+y,1/2-z,-x
12 1/2-y,-z,1/2+x
13 -x,-y,-z
14 -z,-x,-y
15 -y,-z,-x
16 1/2+x,y,1/2-z
17 x,1/2-y,1/2+z
18 1/2-x,1/2+y,z
19 1/2-z,1/2+x,y
20 1/2+z,x,1/2-y
21 z,1/2-x,1/2+y
22 y,1/2-z,1/2+x
23 1/2-y,1/2+z,x
24 1/2+y,z,1/2-x
_cell_length_a                   22.9079(9)
_cell_length_b                   22.9079(9)
_cell_length_c                   22.9079(9)
_cell_angle_alpha                90
_cell_angle_beta                 90
_cell_angle_gamma                90
_cell_volume                     12021.4
loop_
_atom_site_label
_atom_site_type_symbol
_atom_site_fract_x
_atom_site_fract_y
_atom_site_fract_z
Zn1 Zn 0.22626(6) 0.71180(6) 0.32500(5)
P1 P 0.35951(11) 0.35951(11) 0.35951(11)
O1 O 0.3219(4) 0.3219(4) 0.3219(4)
P2 P 0.35183(11) 0.85183(11) 0.64817(11)
O2 O 0.3134(4) 0.8134(4) 0.6866(4)
O3 O 0.2481(4) 0.6304(4) 0.3259(4)
O4 O 0.3398(4) 0.6534(4) 0.3211(5)
O5 O 0.2656(4) 0.7471(3) 0.3911(3)
O6 O 0.3021(3) 0.8341(3) 0.3569(3)
O7 O 0.2486(2) 0.7514(2) 0.2514(2)
H1 H 0.2738 0.7262 0.2262
O8 O 0.3242(2) 0.7298(2) 0.2872(2)
H2 H 0.322(3) 0.749(3) 0.3212(18)
H3 H 0.351(3) 0.746(3) 0.263(2)
C1 C 0.3452(4) 0.4362(4) 0.3486(4)
C2 C 0.3884(4) 0.4764(4) 0.3401(5)
H4 H 0.4282 0.4646 0.3394
C3 C 0.3730(5) 0.5360(5) 0.3322(5)
H5 H 0.4028 0.5640 0.3257
C4 C 0.3170(5) 0.5536(5) 0.3338(6)
C5 C 0.2740(5) 0.5127(5) 0.3449(6)
H6 H 0.2344 0.5247 0.3484
C6 C 0.2884(5) 0.4538(5) 0.3509(6)
H7 H 0.2584 0.4258 0.3567
C7 C 0.3023(6) 0.6172(6) 0.3241(6)
C8 C 0.3375(4) 0.8379(4) 0.5720(4)
C9 C 0.3378(5) 0.8816(5) 0.5300(4)
H8 H 0.3448 0.9210 0.5407
C10 C 0.3277(5) 0.8666(5) 0.4722(5)
H9 H 0.3325 0.8953 0.4426
C11 C 0.3109(5) 0.8119(4) 0.4573(4)
C12 C 0.3098(7) 0.7709(5) 0.5007(6)
H10 H 0.2980 0.7323 0.4912
C13 C 0.3249(6) 0.7830(5) 0.5567(5)
H11 H 0.3265 0.7527 0.5849
C14 C 0.2923(5) 0.7961(6) 0.3965(5)
Zn1A Zn 0.32500(5) 0.22626(6) 0.71180(6)
Zn1B Zn 0.71180(6) 0.32500(5) 0.22626(6)
Zn1I Zn 0.28820(6) 0.82500(5) 0.27374(6)
Zn1G Zn 0.17500(5) 0.77374(6) 0.21180(6)
Zn1H Zn 0.67500(5) 0.72626(6) 0.78820(6)
Zn1E Zn 0.72626(6) 0.78820(6) 0.67500(5)
Zn1J Zn 0.21180(6) 1.17500(5) 0.77374(6)
Zn1A_2 Zn 0.32500(5) 1.22626(6) 0.71180(6)
Zn1C Zn 0.27374(6) 0.28820(6) 0.82500(5)
O3A O 0.3259(4) 0.2481(4) 0.6304(4)
O3B O 0.6304(4) 0.3259(4) 0.2481(4)
O4A O 0.3211(5) 0.3398(4) 0.6534(4)
O4B O 0.6534(4) 0.3211(5) 0.3398(4)
O5H O 0.6089(3) 0.7656(4) 0.7529(3)
O5J O 0.2471(3) 1.1089(3) 0.7344(4)
O5A O 0.3911(3) 0.2656(4) 0.7471(3)
O5B O 0.7471(3) 0.3911(3) 0.2656(4)
O6H O 0.6431(3) 0.8021(3) 0.6659(3)
O6J O 0.3341(3) 1.1431(3) 0.6979(3)
O6G O 0.1431(3) 0.6979(3) 0.3341(3)
O6J_2 O 0.3341(3) 0.1431(3) 0.6979(3)
O6D O 0.6979(3) 0.3341(3) 0.1431(3)
O7A O 0.2514(2) 0.2486(2) 0.7514(2)
O7B O 0.7514(2) 0.2514(2) 0.2486(2)
H1A H 0.2262 0.2738 0.7262
H1B H 0.7262 0.2262 0.2738
O8G O 0.2128(2) 0.6758(2) 0.2298(2)
O8A O 0.2872(2) 0.3242(2) 0.7298(2)
O8J O 0.2298(2) 0.2128(2) 0.6758(2)
O8B O 0.7298(2) 0.2872(2) 0.3242(2)
O8D O 0.6758(2) 0.2298(2) 0.2128(2)
H2G H 0.1788(18) 0.678(3) 0.249(3)
H2A H 0.3212(18) 0.322(3) 0.749(3)
H2J H 0.249(3) 0.1788(18) 0.678(3)
H2B H 0.749(3) 0.3212(18) 0.322(3)
H2D H 0.678(3) 0.249(3) 0.1788(18)
H3G H 0.237(2) 0.649(3) 0.246(3)
H3A H 0.263(2) 0.351(3) 0.746(3)
H3J H 0.246(3) 0.237(2) 0.649(3)
H3B H 0.746(3) 0.263(2) 0.351(3)
H3D H 0.649(3) 0.246(3) 0.237(2)
C1A C 0.3486(4) 0.3452(4) 0.4362(4)
C1B C 0.4362(4) 0.3486(4) 0.3452(4)
C2A C 0.3401(5) 0.3884(4) 0.4764(4)
C2B C 0.4764(4) 0.3401(5) 0.3884(4)
H4A H 0.3394 0.4282 0.4646
H4B H 0.4646 0.3394 0.4282
C3A C 0.3322(5) 0.3730(5) 0.5360(5)
C3B C 0.5360(5) 0.3322(5) 0.3730(5)
H5A H 0.3257 0.4028 0.5640
H5B H 0.5640 0.3257 0.4028
C4A C 0.3338(6) 0.3170(5) 0.5536(5)
C4B C 0.5536(5) 0.3338(6) 0.3170(5)
C5A C 0.3449(6) 0.2740(5) 0.5127(5)
C5B C 0.5127(5) 0.3449(6) 0.2740(5)
H6A H 0.3484 0.2344 0.5247
H6B H 0.5247 0.3484 0.2344
C6A C 0.3509(6) 0.2884(5) 0.4538(5)
C6B C 0.4538(5) 0.3509(6) 0.2884(5)
H7A H 0.3567 0.2584 0.4258
H7B H 0.4258 0.3567 0.2584
C7A C 0.3241(6) 0.3023(6) 0.6172(6)
C7B C 0.6172(6) 0.3241(6) 0.3023(6)
C8H C 0.4280(4) 0.8375(4) 0.6621(4)
C8J C 0.3379(4) 0.9280(4) 0.6625(4)
C9H C 0.4700(4) 0.8378(5) 0.6184(5)
C9J C 0.3816(5) 0.9700(4) 0.6622(5)
H8H H 0.4593 0.8448 0.5790
H8J H 0.4210 0.9593 0.6552
C10H C 0.5278(5) 0.8277(5) 0.6334(5)
C10J C 0.3666(5) 1.0278(5) 0.6723(5)
H9H H 0.5574 0.8325 0.6047
H9J H 0.3953 1.0574 0.6675
C11H C 0.5427(4) 0.8109(5) 0.6881(4)
C11J C 0.3119(4) 1.0427(4) 0.6891(5)
C12H C 0.4993(6) 0.8098(7) 0.7291(5)
C12J C 0.2709(5) 0.9993(6) 0.6902(7)
H10H H 0.5088 0.7980 0.7677
H10J H 0.2323 1.0088 0.7020
C13H C 0.4433(5) 0.8249(6) 0.7170(5)
C13J C 0.2830(5) 0.9433(5) 0.6751(6)
H11H H 0.4151 0.8265 0.7473
H11J H 0.2527 0.9151 0.6735
C14H C 0.6035(5) 0.7923(5) 0.7039(6)
C14J C 0.2961(6) 1.1035(5) 0.7077(5)
loop_
_geom_bond_atom_site_label_1
_geom_bond_atom_site_label_2
_geom_bond_site_symmetry_1
_geom_bond_site_symmetry_2
Zn1 O3 1_555 1_555
P1 O1 1_555 1_555
P2 O2 1_555 1_555
O3 C7 1_555 1_555
O4 C7 1_555 1_555
O5 Zn1 1_555 1_555
O6 C14 1_555 1_555
O7 Zn1 1_555 1_555
H1 O7 1_555 1_555
O8 Zn1 1_555 1_555
H2 O8 1_555 1_555
H3 O8 1_555 1_555
C1 P1 1_555 1_555
C2 C1 1_555 1_555
H4 C2 1_555 1_555
C3 C2 1_555 1_555
H5 C3 1_555 1_555
C4 C3 1_555 1_555
C5 C4 1_555 1_555
H6 C5 1_555 1_555
C6 C1 1_555 1_555
H7 C6 1_555 1_555
C7 C4 1_555 1_555
C8 P2 1_555 1_555
C9 C8 1_555 1_555
H8 C9 1_555 1_555
C10 C9 1_555 1_555
H9 C10 1_555 1_555
C11 C10 1_555 1_555
C12 C11 1_555 1_555
H10 C12 1_555 1_555
C13 C8 1_555 1_555
H11 C13 1_555 1_555
C14 O5 1_555 1_555
Zn1A O3A 1_555 1_555
Zn1B O3B 1_555 1_555
Zn1I O6 1_555 1_555
Zn1G O7 1_555 1_555
Zn1H O5H 1_555 1_555
Zn1E O6H 1_555 1_555
Zn1J O5J 1_555 1_555
Zn1A_2 O6J 1_555 1_555
Zn1C O7A 1_555 1_555
O3A C7A 1_555 1_555
O3B C7B 1_555 1_555
O4A C7A 1_555 1_555
O4B C7B 1_555 1_555
O5H C14H 1_555 1_555
O5J C14J 1_555 1_555
O5A Zn1A 1_555 1_555
O5B Zn1B 1_555 1_555
O6H C14H 1_555 1_555
O6J C14J 1_555 1_555
O6G Zn1 1_555 1_555
O6J_2 Zn1A 1_555 1_555
O6D Zn1B 1_555 1_555
O7A Zn1A 1_555 1_555
O7B Zn1B 1_555 1_555
H1A O7A 1_555 1_555
H1B O7B 1_555 1_555
O8G Zn1 1_555 1_555
O8A Zn1A 1_555 1_555
O8J Zn1A 1_555 1_555
O8B Zn1B 1_555 1_555
O8D Zn1B 1_555 1_555
H2G O8G 1_555 1_555
H2A O8A 1_555 1_555
H2J O8J 1_555 1_555
H2B O8B 1_555 1_555
H2D O8D 1_555 1_555
H3G O8G 1_555 1_555
H3A O8A 1_555 1_555
H3J O8J 1_555 1_555
H3B O8B 1_555 1_555
H3D O8D 1_555 1_555
C1A P1 1_555 1_555
C1B P1 1_555 1_555
C2A C1A 1_555 1_555
C2B C1B 1_555 1_555
H4A C2A 1_555 1_555
H4B C2B 1_555 1_555
C3A C2A 1_555 1_555
C3B C2B 1_555 1_555
H5A C3A 1_555 1_555
H5B C3B 1_555 1_555
C4A C3A 1_555 1_555
C4B C3B 1_555 1_555
C5A C4A 1_555 1_555
C5B C4B 1_555 1_555
H6A C5A 1_555 1_555
H6B C5B 1_555 1_555
C6A C1A 1_555 1_555
C6B C1B 1_555 1_555
H7A C6A 1_555 1_555
H7B C6B 1_555 1_555
C7A C4A 1_555 1_555
C7B C4B 1_555 1_555
C8H P2 1_555 1_555
C8J P2 1_555 1_555
C9H C8H 1_555 1_555
C9J C8J 1_555 1_555
H8H C9H 1_555 1_555
H8J C9J 1_555 1_555
C10H C9H 1_555 1_555
C10J C9J 1_555 1_555
H9H C10H 1_555 1_555
H9J C10J 1_555 1_555
C11H C10H 1_555 1_555
C11J C10J 1_555 1_555
C12H C11H 1_555 1_555
C12J C11J 1_555 1_555
H10H C12H 1_555 1_555
H10J C12J 1_555 1_555
C13H C8H 1_555 1_555
C13J C8J 1_555 1_555
H11H C13H 1_555 1_555
H11J C13J 1_555 1_555
C14H C11H 1_555 1_555
C14J C11J 1_555 1_555
O7 Zn1I 1_555 1_555
O8 Zn1I 1_555 1_555
C5 C6 1_555 1_555
C11 C14 1_555 1_555
C12 C13 1_555 1_555
Zn1G O8G 1_555 1_555
Zn1C O8A 1_555 1_555
C5A C6A 1_555 1_555
C5B C6B 1_555 1_555
C12H C13H 1_555 1_555
C12J C13J 1_555 1_555

#END
