
#######################################################################
#
#                 Cambridge Crystallographic Data Centre
#                                CCDC 
#
#######################################################################
#
# If this CIF has been generated from an entry in the Cambridge 
# Structural Database, then it will include bibliographic, chemical, 
# crystal, experimental, refinement or atomic coordinate data resulting 
# from the CCDC's data processing and validation procedures.
#
#######################################################################

data_COQJUP
_symmetry_cell_setting           monoclinic
_symmetry_space_group_name_H-M   'P 21/m'
_symmetry_Int_Tables_number      11
_space_group_name_Hall           '-P 2yb'
loop_
_symmetry_equiv_pos_site_id
_symmetry_equiv_pos_as_xyz
1 x,y,z
2 -x,1/2+y,-z
3 -x,-y,-z
4 x,1/2-y,z
_cell_length_a                   12.352(3)
_cell_length_b                   33.725(7)
_cell_length_c                   13.030(3)
_cell_angle_alpha                90
_cell_angle_beta                 96.63(3)
_cell_angle_gamma                90
_cell_volume                     5391.62
loop_
_atom_site_label
_atom_site_type_symbol
_atom_site_fract_x
_atom_site_fract_y
_atom_site_fract_z
Cl1 Cl 1.1259(3) 0.7500 -0.3635(2)
Rh2 Rh 1.27965(15) 0.7500 -0.23694(15)
Cl2 Cl 1.1688(5) 0.7500 -0.1094(3)
C46 C 1.375(3) 0.7500 -0.129(4)
O8 O 1.450(3) 0.7500 -0.066(3)
C47 C 1.3549(16) 0.7500 -0.3242(16)
O9 O 1.411(2) 0.7500 -0.384(3)
Rh1 Rh 1.23321(6) 0.7500 0.18148(7)
Mn1 Mn 0.70928(4) 0.434550(17) 0.10627(4)
C1 C 0.7969(3) 0.35593(12) 0.2405(3)
H1 H 0.8180 0.3304 0.2744
H2 H 0.7375 0.3507 0.1844
Mn2 Mn 0.5000 0.5000 0.0000
C2 C 1.1006(8) 0.7500 0.3661(6)
H3 H 1.1805 0.7500 0.3850
H4 H 1.0654 0.7500 0.4306
N1 N 0.7158(3) 0.41798(10) 0.2813(2)
N2 N 0.7582(3) 0.38267(10) 0.3151(2)
C3 C 0.7549(4) 0.37867(15) 0.4177(3)
C4 C 0.7087(4) 0.41221(15) 0.4515(3)
C5 C 0.6853(4) 0.43627(13) 0.3632(3)
C6 C 0.6308(7) 0.47544(19) 0.3541(4)
H5 H 0.6847 0.4961 0.3448
H6 H 0.5968 0.4809 0.4169
H7 H 0.5748 0.4753 0.2943
C7 C 0.7910(9) 0.3412(2) 0.4738(5)
H8 H 0.7469 0.3190 0.4442
H9 H 0.7816 0.3440 0.5471
H10 H 0.8679 0.3363 0.4666
C8 C 0.6515(4) 0.44643(14) 0.8771(2)
C9 C 0.6906(4) 0.42113(15) 0.5569(2)
C10 C 0.7729(4) 0.4167(3) 0.6378(3)
H11 H 0.8434 0.4094 0.6220
C11 C 0.7584(7) 0.4222(4) 0.7380(5)
H12 H 0.8154 0.4155 0.7905
C12 C 0.5785(5) 0.4410(2) 0.6885(4)
H13 H 0.5095 0.4495 0.7054
C13 C 0.5913(5) 0.4327(2) 0.5862(4)
H14 H 0.5303 0.4350 0.5350
C14 C 0.6629(6) 0.43728(17) 0.7649(3)
O1 O 0.7139(3) 0.43005(12) 0.9453(2)
O2 O 0.5775(4) 0.46896(14) 0.8897(3)
N3 N 0.8707(3) 0.40290(10) 0.1297(2)
N4 N 0.8894(2) 0.37259(10) 0.1971(2)
C15 C 0.9966(3) 0.36477(13) 0.2189(3)
C16 C 1.0503(3) 0.39186(14) 0.1636(3)
C17 C 0.9681(3) 0.41504(13) 0.1094(3)
C18 C 1.0411(5) 0.3342(2) 0.2923(6)
H15 H 0.9925 0.3308 0.3459
H16 H 1.1134 0.3424 0.3243
H17 H 1.0472 0.3091 0.2556
C19 C 0.9790(4) 0.44876(18) 0.0363(4)
H18 H 0.9117 0.4513 -0.0110
H19 H 1.0402 0.4436 -0.0034
H20 H 0.9922 0.4734 0.0756
C20 C 1.1694(3) 0.39605(16) 0.1596(4)
C21 C 1.2338(4) 0.36390(17) 0.1367(5)
H21 H 1.2030 0.3381 0.1293
C22 C 1.3428(4) 0.36966(17) 0.1248(5)
H22 H 1.3858 0.3476 0.1090
C23 C 1.3895(3) 0.40626(15) 0.1354(4)
C24 C 1.3279(4) 0.43798(16) 0.1619(4)
H23 H 1.3604 0.4634 0.1731
C25 C 1.2172(4) 0.43264(17) 0.1723(4)
H24 H 1.1745 0.4548 0.1883
C26 C 1.5046(3) 0.41324(16) 0.1154(3)
O3 O 1.5377(2) 0.44928(10) 0.1100(2)
O4 O 1.5672(2) 0.38480(11) 0.1054(3)
N5 N 1.1208(4) 0.70858(13) 0.2214(4)
N6 N 1.0686(4) 0.71495(12) 0.3067(3)
C27 C 0.9882(5) 0.68818(16) 0.3141(4)
C28 C 0.9902(5) 0.66227(15) 0.2310(4)
C29 C 1.0741(5) 0.67611(16) 0.1761(5)
C30 C 1.1071(8) 0.6598(2) 0.0762(6)
H25 H 1.0608 0.6714 0.0177
H26 H 1.0985 0.6309 0.0751
H27 H 1.1835 0.6666 0.0709
C31 C 0.9124(7) 0.6891(2) 0.3934(6)
H28 H 0.9533 0.6854 0.4618
H29 H 0.8588 0.6678 0.3803
H30 H 0.8748 0.7147 0.3910
C32 C 0.9209(5) 0.62717(16) 0.2074(4)
C33 C 0.8238(7) 0.62957(19) 0.1485(7)
H31 H 0.7982 0.6548 0.1241
C34 C 0.7600(6) 0.59629(19) 0.1224(7)
H32 H 0.6912 0.5992 0.0824
C35 C 0.7958(4) 0.55966(14) 0.1538(3)
C36 C 0.8921(6) 0.55737(17) 0.2141(5)
H33 H 0.9182 0.5323 0.2390
C37 C 0.9521(6) 0.59038(18) 0.2398(6)
H34 H 1.0192 0.5875 0.2827
C38 C 0.7309(4) 0.52336(14) 0.1188(3)
O5 O 0.6425(3) 0.52818(12) 0.0670(3)
O6 O 0.7734(3) 0.49076(9) 0.1432(3)
C39 C 1.3307(9) 0.7115(3) 0.1514(12)
O7 O 1.3949(9) 0.6884(3) 0.1378(12)
N5C N 1.1208(4) 0.79142(13) 0.2214(4)
N6C N 1.0686(4) 0.78505(12) 0.3067(3)
C27C C 0.9882(5) 0.81182(16) 0.3141(4)
C28C C 0.9902(5) 0.83773(15) 0.2310(4)
C29C C 1.0741(5) 0.82389(16) 0.1761(5)
C30C C 1.1071(8) 0.8402(2) 0.0762(6)
H25C H 1.0608 0.8286 0.0177
H26C H 1.0985 0.8691 0.0751
H27C H 1.1835 0.8334 0.0709
C31C C 0.9124(7) 0.8109(2) 0.3934(6)
H28C H 0.9533 0.8146 0.4618
H29C H 0.8588 0.8322 0.3803
H30C H 0.8748 0.7853 0.3910
C32C C 0.9209(5) 0.87283(16) 0.2074(4)
C33C C 0.8238(7) 0.87043(19) 0.1485(7)
H31C H 0.7982 0.8452 0.1241
C34C C 0.7600(6) 0.90371(19) 0.1224(7)
H32C H 0.6912 0.9008 0.0824
C35C C 0.7958(4) 0.94034(14) 0.1538(3)
C36C C 0.8921(6) 0.94263(17) 0.2141(5)
H33C H 0.9182 0.9677 0.2390
C37C C 0.9521(6) 0.90962(18) 0.2398(6)
H34C H 1.0192 0.9125 0.2827
C38C C 0.7309(4) 0.97664(14) 0.1188(3)
O5C O 0.6425(3) 0.97182(12) 0.0670(3)
O6C O 0.7734(3) 1.00924(9) 0.1432(3)
Mn1_2 Mn 0.70928(4) 0.434550(17) -0.89373(4)
C1_2 C 0.7969(3) 0.35593(12) -0.7595(3)
H1_2 H 0.8180 0.3304 -0.7256
H2_2 H 0.7375 0.3507 -0.8156
N1_2 N 0.7158(3) 0.41798(10) -0.7187(2)
N2_2 N 0.7582(3) 0.38267(10) -0.6849(2)
C3_2 C 0.7549(4) 0.37867(15) -0.5823(3)
C4_2 C 0.7087(4) 0.41221(15) -0.5485(3)
C5_2 C 0.6853(4) 0.43627(13) -0.6368(3)
C6_2 C 0.6308(7) 0.47544(19) -0.6459(4)
H5_2 H 0.6847 0.4961 -0.6552
H6_2 H 0.5968 0.4809 -0.5831
H7_2 H 0.5748 0.4753 -0.7057
C7_2 C 0.7910(9) 0.3412(2) -0.5262(5)
H8_2 H 0.7469 0.3190 -0.5558
H9_2 H 0.7816 0.3440 -0.4529
H10_2 H 0.8679 0.3363 -0.5334
C8_2 C 0.6515(4) 0.44643(14) -0.1229(2)
C9_2 C 0.6906(4) 0.42113(15) -0.4431(2)
C10_2 C 0.7729(4) 0.4167(3) -0.3622(3)
H11_2 H 0.8434 0.4094 -0.3780
C11_2 C 0.7584(7) 0.4222(4) -0.2620(5)
H12_2 H 0.8154 0.4155 -0.2095
C12_2 C 0.5785(5) 0.4410(2) -0.3115(4)
H13_2 H 0.5095 0.4495 -0.2946
C13_2 C 0.5913(5) 0.4327(2) -0.4138(4)
H14_2 H 0.5303 0.4350 -0.4650
C14_2 C 0.6629(6) 0.43728(17) -0.2351(3)
O1_2 O 0.7139(3) 0.43005(12) -0.0547(2)
O2_2 O 0.5775(4) 0.46896(14) -0.1103(3)
N3_2 N 0.8707(3) 0.40290(10) -0.8703(2)
N4_2 N 0.8894(2) 0.37259(10) -0.8029(2)
C15_2 C 0.9966(3) 0.36477(13) -0.7811(3)
C16_2 C 1.0503(3) 0.39186(14) -0.8364(3)
C17_2 C 0.9681(3) 0.41504(13) -0.8906(3)
C18_2 C 1.0411(5) 0.3342(2) -0.7077(6)
H15_2 H 0.9925 0.3308 -0.6541
H16_2 H 1.1134 0.3424 -0.6757
H17_2 H 1.0472 0.3091 -0.7444
C19_2 C 0.9790(4) 0.44876(18) -0.9637(4)
H18_2 H 0.9117 0.4513 -1.0110
H19_2 H 1.0402 0.4436 -1.0034
H20_2 H 0.9922 0.4734 -0.9244
C20_2 C 1.1694(3) 0.39605(16) -0.8404(4)
C21_2 C 1.2338(4) 0.36390(17) -0.8633(5)
H21_2 H 1.2030 0.3381 -0.8707
C22_2 C 1.3428(4) 0.36966(17) -0.8752(5)
H22_2 H 1.3858 0.3476 -0.8910
C23_2 C 1.3895(3) 0.40626(15) -0.8646(4)
C24_2 C 1.3279(4) 0.43798(16) -0.8381(4)
H23_2 H 1.3604 0.4634 -0.8269
C25_2 C 1.2172(4) 0.43264(17) -0.8277(4)
H24_2 H 1.1745 0.4548 -0.8117
C26_2 C 1.5046(3) 0.41324(16) -0.8846(3)
O3_2 O 1.5377(2) 0.44928(10) -0.8900(2)
O4_2 O 1.5672(2) 0.38480(11) -0.8946(3)
C39C C 1.3307(9) 0.7885(3) 0.1514(12)
O7C O 1.3949(9) 0.8116(3) 0.1378(12)
Mn1_3 Mn 0.70928(4) 0.434550(17) 1.10627(4)
Mn1_4 Mn 1.70928(4) 0.434550(17) -0.89373(4)
Mn1_5 Mn 1.70928(4) 0.434550(17) 0.10627(4)
Mn1C Mn 0.70928(4) 1.065450(17) 0.10627(4)
Mn2_2 Mn 0.5000 0.5000 1.0000
Mn2_3 Mn 1.5000 0.5000 -1.0000
Mn2_4 Mn 1.5000 0.5000 0.0000
Mn2A Mn 0.5000 1.0000 0.0000
O1_3 O 0.7139(3) 0.43005(12) -1.0547(2)
O2B O 0.4225(4) 0.53104(14) 0.1103(3)
O3_3 O 0.5377(2) 0.44928(10) -0.8900(2)
O3_4 O 0.5377(2) 0.44928(10) 0.1100(2)
O3B O 0.4623(2) 0.55072(10) -0.1100(2)
O4_3 O 0.5672(2) 0.38480(11) -0.8946(3)
O4_4 O 0.5672(2) 0.38480(11) 0.1054(3)
O5B O 0.3575(3) 0.47182(12) -0.0670(3)
O6_2 O 0.7734(3) 0.49076(9) -0.8568(3)
C40? C 0.6972(4) 0.42107(14) 0.5635(2)
C41? C 0.6547(9) 0.39212(17) 0.6233(4)
H35? H 0.6262 0.3683 0.5921
C42? C 0.6537(10) 0.39806(12) 0.7288(4)
H36? H 0.6246 0.3783 0.7696
C43? C 0.6954(3) 0.43295(14) 0.7744(2)
C44? C 0.7379(8) 0.4619(2) 0.7146(4)
H37? H 0.7664 0.4857 0.7458
C45? C 0.7389(9) 0.4560(2) 0.6091(4)
H38? H 0.7680 0.4757 0.5682
loop_
_geom_bond_atom_site_label_1
_geom_bond_atom_site_label_2
_geom_bond_site_symmetry_1
_geom_bond_site_symmetry_2
Rh1 N5 1_555 1_555
Mn1 N1 1_555 1_555
C1 H1 1_555 1_555
H2 C1 1_555 1_555
Mn2 O5 1_555 1_555
C2 H3 1_555 1_555
H4 C2 1_555 1_555
N1 N2 1_555 1_555
N2 C1 1_555 1_555
C3 N2 1_555 1_555
C4 C3 1_555 1_555
C5 N1 1_555 1_555
C6 C5 1_555 1_555
H5 C6 1_555 1_555
H6 C6 1_555 1_555
H7 C6 1_555 1_555
C7 C3 1_555 1_555
H8 C7 1_555 1_555
H9 C7 1_555 1_555
H10 C7 1_555 1_555
C8 C14 1_555 1_555
C9 C4 1_555 1_555
C10 C9 1_555 1_555
H11 C10 1_555 1_555
C11 C10 1_555 1_555
H12 C11 1_555 1_555
C12 H13 1_555 1_555
C13 C9 1_555 1_555
H14 C13 1_555 1_555
C14 C11 1_555 1_555
O1 C8 1_555 1_555
O2 C8 1_555 1_555
N3 Mn1 1_555 1_555
N4 C1 1_555 1_555
C15 N4 1_555 1_555
C16 C15 1_555 1_555
C17 N3 1_555 1_555
C18 C15 1_555 1_555
H15 C18 1_555 1_555
H16 C18 1_555 1_555
H17 C18 1_555 1_555
C19 C17 1_555 1_555
H18 C19 1_555 1_555
H19 C19 1_555 1_555
H20 C19 1_555 1_555
C20 C16 1_555 1_555
C21 C20 1_555 1_555
H21 C21 1_555 1_555
C22 C21 1_555 1_555
H22 C22 1_555 1_555
C23 C22 1_555 1_555
C24 C23 1_555 1_555
H23 C24 1_555 1_555
C25 C20 1_555 1_555
H24 C25 1_555 1_555
C26 C23 1_555 1_555
O3 C26 1_555 1_555
O4 C26 1_555 1_555
N5 N6 1_555 1_555
N6 C2 1_555 1_555
C27 N6 1_555 1_555
C28 C27 1_555 1_555
C29 N5 1_555 1_555
C30 C29 1_555 1_555
H25 C30 1_555 1_555
H26 C30 1_555 1_555
H27 C30 1_555 1_555
C31 C27 1_555 1_555
H28 C31 1_555 1_555
H29 C31 1_555 1_555
H30 C31 1_555 1_555
C32 C28 1_555 1_555
C33 C32 1_555 1_555
H31 C33 1_555 1_555
C34 C33 1_555 1_555
H32 C34 1_555 1_555
C35 C34 1_555 1_555
C36 C35 1_555 1_555
H33 C36 1_555 1_555
C37 C32 1_555 1_555
H34 C37 1_555 1_555
C38 C35 1_555 1_555
O5 C38 1_555 1_555
O6 Mn1 1_555 1_555
C39 Rh1 1_555 1_555
O7 C39 1_555 1_555
Cl1 Rh2 1_555 1_555
Rh2 Cl2 1_555 1_555
C46 Rh2 1_555 1_555
O8 C46 1_555 1_555
C47 Rh2 1_555 1_555
O9 C47 1_555 1_555
N5C Rh1 1_555 1_555
N6C C2 1_555 1_555
C27C N6C 1_555 1_555
C28C C27C 1_555 1_555
C29C N5C 1_555 1_555
C30C C29C 1_555 1_555
H25C C30C 1_555 1_555
H26C C30C 1_555 1_555
H27C C30C 1_555 1_555
C31C C27C 1_555 1_555
H28C C31C 1_555 1_555
H29C C31C 1_555 1_555
H30C C31C 1_555 1_555
C32C C28C 1_555 1_555
C33C C32C 1_555 1_555
H31C C33C 1_555 1_555
C34C C33C 1_555 1_555
H32C C34C 1_555 1_555
C35C C34C 1_555 1_555
C36C C35C 1_555 1_555
H33C C36C 1_555 1_555
C37C C32C 1_555 1_555
H34C C37C 1_555 1_555
C38C C35C 1_555 1_555
O5C C38C 1_555 1_555
O6C C38C 1_555 1_555
Mn1_2 N1_2 1_555 1_555
C1_2 H1_2 1_555 1_555
H2_2 C1_2 1_555 1_555
N1_2 N2_2 1_555 1_555
N2_2 C1_2 1_555 1_555
C3_2 N2_2 1_555 1_555
C4_2 C3_2 1_555 1_555
C5_2 N1_2 1_555 1_555
C6_2 C5_2 1_555 1_555
H5_2 C6_2 1_555 1_555
H6_2 C6_2 1_555 1_555
H7_2 C6_2 1_555 1_555
C7_2 C3_2 1_555 1_555
H8_2 C7_2 1_555 1_555
H9_2 C7_2 1_555 1_555
H10_2 C7_2 1_555 1_555
C8_2 C14_2 1_555 1_555
C9_2 C4_2 1_555 1_555
C10_2 C9_2 1_555 1_555
H11_2 C10_2 1_555 1_555
C11_2 C10_2 1_555 1_555
H12_2 C11_2 1_555 1_555
C12_2 H13_2 1_555 1_555
C13_2 C9_2 1_555 1_555
H14_2 C13_2 1_555 1_555
C14_2 C11_2 1_555 1_555
O1_2 Mn1 1_555 1_555
O2_2 Mn2 1_555 1_555
N3_2 Mn1_2 1_555 1_555
N4_2 C1_2 1_555 1_555
C15_2 N4_2 1_555 1_555
C16_2 C15_2 1_555 1_555
C17_2 N3_2 1_555 1_555
C18_2 C15_2 1_555 1_555
H15_2 C18_2 1_555 1_555
H16_2 C18_2 1_555 1_555
H17_2 C18_2 1_555 1_555
C19_2 C17_2 1_555 1_555
H18_2 C19_2 1_555 1_555
H19_2 C19_2 1_555 1_555
H20_2 C19_2 1_555 1_555
C20_2 C16_2 1_555 1_555
C21_2 C20_2 1_555 1_555
H21_2 C21_2 1_555 1_555
C22_2 C21_2 1_555 1_555
H22_2 C22_2 1_555 1_555
C23_2 C22_2 1_555 1_555
C24_2 C23_2 1_555 1_555
H23_2 C24_2 1_555 1_555
C25_2 C20_2 1_555 1_555
H24_2 C25_2 1_555 1_555
C26_2 C23_2 1_555 1_555
O3_2 C26_2 1_555 1_555
O4_2 C26_2 1_555 1_555
C39C Rh1 1_555 1_555
O7C C39C 1_555 1_555
Mn1_3 O1 1_555 1_555
Mn1_4 O3_2 1_555 1_555
Mn1_5 O3 1_555 1_555
Mn1C O6C 1_555 1_555
Mn2_2 O2 1_555 1_555
Mn2_3 O3_2 1_555 1_555
Mn2_4 O3 1_555 1_555
Mn2A O5C 1_555 1_555
O1_3 Mn1_2 1_555 1_555
O2B Mn2 1_555 1_555
O3_3 Mn1_2 1_555 1_555
O3_4 Mn1 1_555 1_555
O3B Mn2 1_555 1_555
O4_3 Mn1_2 1_555 1_555
O4_4 Mn1 1_555 1_555
O5B Mn2 1_555 1_555
O6_2 Mn1_2 1_555 1_555
Mn2 O3_4 1_555 1_555
C4 C5 1_555 1_555
C12 C13 1_555 1_555
C12 C14 1_555 1_555
N3 N4 1_555 1_555
C16 C17 1_555 1_555
C24 C25 1_555 1_555
O4 Mn1_5 1_555 1_555
C28 C29 1_555 1_555
C36 C37 1_555 1_555
C38 O6 1_555 1_555
N5C N6C 1_555 1_555
C28C C29C 1_555 1_555
C36C C37C 1_555 1_555
C4_2 C5_2 1_555 1_555
C8_2 O1_2 1_555 1_555
C8_2 O2_2 1_555 1_555
C12_2 C13_2 1_555 1_555
C12_2 C14_2 1_555 1_555
N3_2 N4_2 1_555 1_555
C16_2 C17_2 1_555 1_555
C24_2 C25_2 1_555 1_555
O4_2 Mn1_4 1_555 1_555

#END
