
#######################################################################
#
#                 Cambridge Crystallographic Data Centre
#                                CCDC 
#
#######################################################################
#
# If this CIF has been generated from an entry in the Cambridge 
# Structural Database, then it will include bibliographic, chemical, 
# crystal, experimental, refinement or atomic coordinate data resulting 
# from the CCDC's data processing and validation procedures.
#
#######################################################################

data_COVPAG
_symmetry_cell_setting           orthorhombic
_symmetry_space_group_name_H-M   'C m c 21'
_symmetry_Int_Tables_number      36
_space_group_name_Hall           'C 2n -2'
loop_
_symmetry_equiv_pos_site_id
_symmetry_equiv_pos_as_xyz
1 x,y,z
2 -x,-y,1/2+z
3 -x,y,z
4 x,-y,1/2+z
5 1/2+x,1/2+y,z
6 1/2-x,1/2-y,1/2+z
7 1/2-x,1/2+y,z
8 1/2+x,1/2-y,1/2+z
_cell_length_a                   19.764(6)
_cell_length_b                   19.948(6)
_cell_length_c                   12.039(4)
_cell_angle_alpha                90
_cell_angle_beta                 90
_cell_angle_gamma                90
_cell_volume                     4746.4
loop_
_atom_site_label
_atom_site_type_symbol
_atom_site_fract_x
_atom_site_fract_y
_atom_site_fract_z
Zn1 Zn 0.25821(4) -0.00797(3) 0.03076(13)
K1 K 0.19622(13) -0.05593(11) 0.2854(2)
O1 O 0.2859(3) -0.0835(3) 0.1267(5)
O2 O 0.1248(5) -0.0574(6) 0.0970(6)
O3 O 0.3187(6) -0.1401(3) -0.0223(6)
O4 O 0.2949(6) -0.3874(3) -0.0125(6)
O5 O 0.1778(3) -0.0376(3) -0.0609(5)
O6 O 0.2679(4) -0.4380(3) 0.1447(5)
C1 C 0.3050(6) -0.2584(4) 0.3237(9)
H1 H 0.3093 -0.2572 0.4006
C2 C 0.3013(5) -0.2619(4) 0.0925(7)
H2 H 0.3017 -0.2633 0.0153
C3 C 0.2981(5) -0.3215(4) 0.1522(7)
C4 C 0.3039(5) -0.2011(4) 0.1462(8)
C5 C 0.3044(5) -0.1981(4) 0.2620(8)
H3 H 0.3044 -0.1569 0.2981
C6 C 0.0606(5) -0.0616(4) -0.1855(7)
H4 H 0.1014 -0.0622 -0.2241
C7 C 0.0604(5) -0.0575(4) -0.0712(7)
C8 C 0.2864(5) -0.3862(4) 0.0903(8)
C9 C 0.3015(5) -0.1360(4) 0.0774(7)
C10 C 0.1248(6) -0.0537(4) -0.0042(7)
C11 C 0.2991(5) -0.3203(4) 0.2681(8)
H5 H 0.2959 -0.3600 0.3083
C12 C 0.0000 -0.0575(5) -0.0141(10)
H6 H 0.0000 -0.0575 0.0632
C13 C 0.0000 -0.0648(7) -0.2426(12)
H7 H 0.0000 -0.0692 -0.3195
O7 O 0.3230(4) 0.0172(3) -0.0904(6)
O8 O 0.3750(5) 0.0467(6) 0.0611(7)
C14 C 0.3753(6) 0.0374(4) -0.0376(8)
C15 C 0.4380(5) 0.0474(4) -0.1084(7)
C16 C 0.5000 0.0457(5) -0.0489(9)
H8 H 0.5000 0.0435 0.0283
C17 C 0.4395(5) 0.0525(4) -0.2233(9)
H9 H 0.3989 0.0536 -0.2623
C18 C 0.5000 0.0560(6) -0.2816(12)
H10 H 0.5000 0.0606 -0.3585
O9 O 0.5000 -0.1231(10) -0.171(3)
O10 O 0.3803(14) -0.2291(12) -0.308(3)
K2 K 0.3580(2) -0.09934(18) -0.2272(3)
O2B O -0.1248(5) -0.0574(6) 0.0970(6)
O5B O -0.1778(3) -0.0376(3) -0.0609(5)
C6B C -0.0606(5) -0.0616(4) -0.1855(7)
H4B H -0.1014 -0.0622 -0.2241
C7B C -0.0604(5) -0.0575(4) -0.0712(7)
C10B C -0.1248(6) -0.0537(4) -0.0042(7)
O7B O 0.6770(4) 0.0172(3) -0.0904(6)
O8B O 0.6250(5) 0.0467(6) 0.0611(7)
C14B C 0.6247(6) 0.0374(4) -0.0376(8)
C15B C 0.5620(5) 0.0474(4) -0.1084(7)
C17B C 0.5605(5) 0.0525(4) -0.2233(9)
H9B H 0.6011 0.0536 -0.2623
Zn1B Zn -0.25821(4) -0.00797(3) 0.03076(13)
K1B K -0.19622(13) -0.05593(11) 0.2854(2)
O1B O -0.2859(3) -0.0835(3) 0.1267(5)
O3B O -0.3187(6) -0.1401(3) -0.0223(6)
O4B O -0.2949(6) -0.3874(3) -0.0125(6)
O6B O -0.2679(4) -0.4380(3) 0.1447(5)
C1B C -0.3050(6) -0.2584(4) 0.3237(9)
H1B H -0.3093 -0.2572 0.4006
C2B C -0.3013(5) -0.2619(4) 0.0925(7)
H2B H -0.3017 -0.2633 0.0153
C3B C -0.2981(5) -0.3215(4) 0.1522(7)
C4B C -0.3039(5) -0.2011(4) 0.1462(8)
C5B C -0.3044(5) -0.1981(4) 0.2620(8)
H3B H -0.3044 -0.1569 0.2981
C8B C -0.2864(5) -0.3862(4) 0.0903(8)
C9B C -0.3015(5) -0.1360(4) 0.0774(7)
C11B C -0.2991(5) -0.3203(4) 0.2681(8)
H5B H -0.2959 -0.3600 0.3083
O10B O -0.3803(14) -0.2291(12) -0.308(3)
K2B K -0.3580(2) -0.09934(18) -0.2272(3)
Zn1B_2 Zn 0.74179(4) -0.00797(3) 0.03076(13)
Zn1D Zn -0.24179(4) -0.50797(3) 0.03076(13)
Zn1F Zn 0.24179(4) -0.50797(3) 0.03076(13)
K1A K -0.19622(13) 0.05593(11) -0.2146(2)
K1A_2 K 0.80378(13) 0.05593(11) -0.2146(2)
K1C K 0.19622(13) 0.05593(11) -0.2146(2)
K1D K -0.30378(13) -0.55593(11) 0.2854(2)
K1E K 0.30378(13) -0.44407(11) -0.2146(2)
K1F K 0.30378(13) -0.55593(11) 0.2854(2)
K1G K -0.30378(13) -0.44407(11) -0.2146(2)
O4E O 0.2051(6) -0.1126(3) 0.4875(6)
O4G O -0.2051(6) -0.1126(3) 0.4875(6)
O5A O -0.1778(3) 0.0376(3) 0.4391(5)
O5C O 0.1778(3) 0.0376(3) 0.4391(5)
O6D O -0.2321(4) 0.0620(3) 0.1447(5)
O6E O 0.2321(4) -0.0620(3) -0.3553(5)
O6F O 0.2321(4) 0.0620(3) 0.1447(5)
O6G O -0.2321(4) -0.0620(3) -0.3553(5)
O7A O -0.3230(4) -0.0172(3) 0.4096(6)
O7B_2 O -0.3230(4) 0.0172(3) -0.0904(6)
O7C O 0.3230(4) -0.0172(3) 0.4096(6)
O8A O -0.3750(5) -0.0467(6) -0.4389(7)
O8B_2 O -0.3750(5) 0.0467(6) 0.0611(7)
O8C O 0.3750(5) -0.0467(6) -0.4389(7)
O9_2 O -0.5000 -0.1231(10) -0.171(3)
K2A K 0.6420(2) 0.09934(18) 0.2728(3)
K2B_2 K 0.6420(2) -0.09934(18) -0.2272(3)
K2C K 0.3580(2) 0.09934(18) 0.2728(3)
K2E K 0.1420(2) -0.40066(18) 0.2728(3)
K2G K -0.1420(2) -0.40066(18) 0.2728(3)
loop_
_geom_bond_atom_site_label_1
_geom_bond_atom_site_label_2
_geom_bond_site_symmetry_1
_geom_bond_site_symmetry_2
Zn1 O1 1_555 1_555
K1 O1 1_555 1_555
O1 C9 1_555 1_555
O2 K1 1_555 1_555
O3 C9 1_555 1_555
O4 C8 1_555 1_555
O5 Zn1 1_555 1_555
O6 C8 1_555 1_555
C1 H1 1_555 1_555
C2 H2 1_555 1_555
C3 C2 1_555 1_555
C4 C2 1_555 1_555
C5 C1 1_555 1_555
H3 C5 1_555 1_555
C6 H4 1_555 1_555
C7 C6 1_555 1_555
C8 C3 1_555 1_555
C9 C4 1_555 1_555
C10 O2 1_555 1_555
C11 C1 1_555 1_555
H5 C11 1_555 1_555
C12 C7 1_555 1_555
H6 C12 1_555 1_555
C13 C6 1_555 1_555
H7 C13 1_555 1_555
O7 Zn1 1_555 1_555
O8 Zn1 1_555 1_555
C14 O7 1_555 1_555
C15 C14 1_555 1_555
C16 C15 1_555 1_555
H8 C16 1_555 1_555
C17 C15 1_555 1_555
H9 C17 1_555 1_555
C18 C17 1_555 1_555
H10 C18 1_555 1_555
O9 K2 1_555 1_555
O10 K2 1_555 1_555
K2 O3 1_555 1_555
O2B C10B 1_555 1_555
O5B C10B 1_555 1_555
C6B C13 1_555 1_555
H4B C6B 1_555 1_555
C7B C12 1_555 1_555
C10B C7B 1_555 1_555
O7B C14B 1_555 1_555
O8B C14B 1_555 1_555
C14B C15B 1_555 1_555
C15B C16 1_555 1_555
C17B C18 1_555 1_555
H9B C17B 1_555 1_555
Zn1B O5B 1_555 1_555
K1B O2B 1_555 1_555
O1B Zn1B 1_555 1_555
O3B C9B 1_555 1_555
O4B C8B 1_555 1_555
O6B C8B 1_555 1_555
C1B H1B 1_555 1_555
C2B H2B 1_555 1_555
C3B C2B 1_555 1_555
C4B C2B 1_555 1_555
C5B C1B 1_555 1_555
H3B C5B 1_555 1_555
C8B C3B 1_555 1_555
C9B O1B 1_555 1_555
C11B C1B 1_555 1_555
H5B C11B 1_555 1_555
O10B K2B 1_555 1_555
K2B O3B 1_555 1_555
Zn1B_2 O7B 1_555 1_555
Zn1D O6B 1_555 1_555
Zn1F O6 1_555 1_555
K1A O5B 1_555 1_555
K1A_2 O7B 1_555 1_555
K1C O5 1_555 1_555
K1D O6B 1_555 1_555
K1E O4 1_555 1_555
K1F O6 1_555 1_555
K1G O4B 1_555 1_555
O4E K1 1_555 1_555
O4G K1B 1_555 1_555
O5A K1B 1_555 1_555
O5C K1 1_555 1_555
O6D Zn1B 1_555 1_555
O6E K2 1_555 1_555
O6F Zn1 1_555 1_555
O6G K2B 1_555 1_555
O7A K1B 1_555 1_555
O7B_2 Zn1B 1_555 1_555
O7C K1 1_555 1_555
O8A K2B 1_555 1_555
O8B_2 Zn1B 1_555 1_555
O8C K2 1_555 1_555
O9_2 K2B 1_555 1_555
K2A O8B 1_555 1_555
K2B_2 O9 1_555 1_555
K2C O8 1_555 1_555
K2E O6 1_555 1_555
K2G O6B 1_555 1_555
K1 O6F 1_555 1_555
O5 C10 1_555 1_555
C3 C11 1_555 1_555
C4 C5 1_555 1_555
C7 C10 1_555 1_555
O7 K2 1_555 1_555
O7 K1C 1_555 1_555
O8 C14 1_555 1_555
C6B C7B 1_555 1_555
O7B K2B_2 1_555 1_555
O8B Zn1B_2 1_555 1_555
C15B C17B 1_555 1_555
K1B O1B 1_555 1_555
K1B O6D 1_555 1_555
C3B C11B 1_555 1_555
C4B C5B 1_555 1_555
C4B C9B 1_555 1_555
K2B O7B_2 1_555 1_555
K1A O6G 1_555 1_555
K1A O7B_2 1_555 1_555
K1C O6E 1_555 1_555
O6F K2C 1_555 1_555
O7C K2C 1_555 1_555

#END
