
#######################################################################
#
#                 Cambridge Crystallographic Data Centre
#                                CCDC 
#
#######################################################################
#
# If this CIF has been generated from an entry in the Cambridge 
# Structural Database, then it will include bibliographic, chemical, 
# crystal, experimental, refinement or atomic coordinate data resulting 
# from the CCDC's data processing and validation procedures.
#
#######################################################################

data_COVYIX
_symmetry_cell_setting           triclinic
_symmetry_space_group_name_H-M   'P -1'
_symmetry_Int_Tables_number      2
_space_group_name_Hall           '-P 1'
loop_
_symmetry_equiv_pos_site_id
_symmetry_equiv_pos_as_xyz
1 x,y,z
2 -x,-y,-z
_cell_length_a                   10.5526(10)
_cell_length_b                   10.8749(10)
_cell_length_c                   15.3643(14)
_cell_angle_alpha                76.545(2)
_cell_angle_beta                 82.101(2)
_cell_angle_gamma                79.927(2)
_cell_volume                     1679.72
loop_
_atom_site_label
_atom_site_type_symbol
_atom_site_fract_x
_atom_site_fract_y
_atom_site_fract_z
Cu1 Cu 0.15906(7) 0.51020(7) 0.15969(4)
Cu2 Cu -0.07311(7) 0.76119(7) 0.09159(4)
Cu3 Cu 0.0000 0.5000 0.0000
Cu4 Cu 0.32016(7) 0.49567(7) 0.34245(4)
Cu5 Cu 0.5000 0.5000 0.5000
Cu6 Cu 0.61937(7) 0.60361(7) 0.28462(4)
O1 O 0.2089(4) 0.3944(4) 0.3045(2)
O2 O 0.3138(4) 0.2035(5) 0.3624(3)
O3 O -0.2480(4) 0.4572(4) 0.2686(3)
O4 O -0.3612(5) 0.3410(5) 0.3813(4)
O5 O 0.1630(4) 0.6380(4) -0.0189(3)
O6 O 0.0619(4) 0.8285(4) 0.0026(2)
O7 O 0.2384(4) 1.2319(4) -0.1711(3)
O8 O 0.4236(4) 1.2017(4) -0.2507(2)
O9 O -0.0167(3) 0.5421(3) 0.1205(2)
H1 H -0.0789 0.4969 0.1642
O10 O 0.4433(3) 0.5809(3) 0.3819(2)
H2 H 0.3996 0.6671 0.3855
N1 N 0.0305(5) 0.7603(5) 0.1906(3)
N2 N 0.1083(5) 0.6541(5) 0.2215(3)
N3 N 0.1693(5) 0.6701(5) 0.2887(3)
N4 N 0.3486(4) 0.5372(5) 0.1461(3)
N5 N 0.4074(4) 0.5331(4) 0.2183(3)
N6 N 0.5170(5) 0.5794(5) 0.1928(3)
N7 N 0.2013(5) 0.3533(5) 0.1076(3)
N8 N 0.1336(4) 0.3574(4) 0.0396(3)
N9 N 0.1691(5) 0.2505(5) 0.0103(3)
N10 N 0.7114(4) 0.6166(5) 0.3864(3)
N11 N 0.6604(4) 0.5718(4) 0.4684(3)
N12 N 0.7427(5) 0.5675(5) 0.5285(3)
C1 C 0.1256(6) 0.7897(6) 0.2989(4)
H3 H 0.1503 0.8276 0.3410
C2 C 0.0394(6) 0.8473(6) 0.2380(4)
H4 H -0.0046 0.9303 0.2307
C3 C 0.5308(6) 0.6127(6) 0.1029(4)
H5 H 0.5998 0.6471 0.0669
C4 C 0.4226(6) 0.5861(6) 0.0743(4)
H6 H 0.4048 0.6000 0.0149
C5 C 0.2611(6) 0.1767(6) 0.0598(4)
H7 H 0.3034 0.0962 0.0535
C6 C 0.2803(6) 0.2429(6) 0.1206(4)
H8 H 0.3386 0.2156 0.1639
C7 C 0.8468(6) 0.6132(7) 0.4833(4)
H9 H 0.9195 0.6230 0.5076
C8 C 0.8272(6) 0.6431(7) 0.3939(4)
H10 H 0.8850 0.6764 0.3465
C9 C 0.0916(6) 0.2206(6) 0.3456(3)
C10 C -0.0214(6) 0.3032(6) 0.3291(4)
H11 H -0.0177 0.3900 0.3080
C11 C -0.1405(6) 0.2609(6) 0.3429(4)
C12 C -0.1450(6) 0.1308(6) 0.3751(4)
H12 H -0.2242 0.1006 0.3868
C13 C -0.0326(6) 0.0470(6) 0.3896(4)
H13 H -0.0356 -0.0401 0.4089
C14 C 0.0848(6) 0.0918(6) 0.3754(4)
H14 H 0.1603 0.0344 0.3861
C15 C 0.2168(6) 0.2712(7) 0.3376(4)
C16 C -0.2616(7) 0.3588(7) 0.3304(5)
C17 C 0.2423(5) 0.8245(5) -0.1071(3)
C18 C 0.2410(5) 0.9560(5) -0.1190(3)
H15 H 0.1825 1.0032 -0.0837
C19 C 0.3292(6) 1.0158(6) -0.1851(3)
C20 C 0.4141(6) 0.9456(6) -0.2371(4)
H16 H 0.4724 0.9858 -0.2808
C21 C 0.4144(6) 0.8159(6) -0.2256(4)
H17 H 0.4718 0.7691 -0.2617
C22 C 0.3287(6) 0.7562(6) -0.1598(4)
H18 H 0.3296 0.6685 -0.1512
C23 C 0.1501(6) 0.7568(6) -0.0362(4)
C24 C 0.3297(6) 1.1586(6) -0.2022(3)
Cu1A Cu -0.15906(7) 0.48980(7) -0.15969(4)
Cu2A Cu 0.07311(7) 0.23881(7) -0.09159(4)
Cu4A Cu -0.32016(7) 0.50433(7) -0.34245(4)
Cu6A Cu -0.61937(7) 0.39639(7) -0.28462(4)
O1A O -0.2089(4) 0.6056(4) -0.3045(2)
O2A O -0.3138(4) 0.7965(5) -0.3624(3)
O3A O 0.2480(4) 0.5428(4) -0.2686(3)
O4A O 0.3612(5) 0.6590(5) -0.3813(4)
O5A O -0.1630(4) 0.3620(4) 0.0189(3)
O6A O -0.0619(4) 0.1715(4) -0.0026(2)
O7A O -0.2384(4) -0.2319(4) 0.1711(3)
O8A O -0.4236(4) -0.2017(4) 0.2507(2)
O9A O 0.0167(3) 0.4579(3) -0.1205(2)
H1A H 0.0789 0.5031 -0.1642
O10A O -0.4433(3) 0.4191(3) -0.3819(2)
H2A H -0.3996 0.3329 -0.3855
N1A N -0.0305(5) 0.2397(5) -0.1906(3)
N2A N -0.1083(5) 0.3459(5) -0.2215(3)
N3A N -0.1693(5) 0.3299(5) -0.2887(3)
N4A N -0.3486(4) 0.4628(5) -0.1461(3)
N5A N -0.4074(4) 0.4669(4) -0.2183(3)
N6A N -0.5170(5) 0.4206(5) -0.1928(3)
N7A N -0.2013(5) 0.6467(5) -0.1076(3)
N8A N -0.1336(4) 0.6426(4) -0.0396(3)
N9A N -0.1691(5) 0.7495(5) -0.0103(3)
N10A N -0.7114(4) 0.3834(5) -0.3864(3)
N11A N -0.6604(4) 0.4282(4) -0.4684(3)
N12A N -0.7427(5) 0.4325(5) -0.5285(3)
C1A C -0.1256(6) 0.2103(6) -0.2989(4)
H3A H -0.1503 0.1724 -0.3410
C2A C -0.0394(6) 0.1527(6) -0.2380(4)
H4A H 0.0046 0.0697 -0.2307
C3A C -0.5308(6) 0.3873(6) -0.1029(4)
H5A H -0.5998 0.3529 -0.0669
C4A C -0.4226(6) 0.4139(6) -0.0743(4)
H6A H -0.4048 0.4000 -0.0149
C5A C -0.2611(6) 0.8233(6) -0.0598(4)
H7A H -0.3034 0.9038 -0.0535
C6A C -0.2803(6) 0.7571(6) -0.1206(4)
H8A H -0.3386 0.7844 -0.1639
C7A C -0.8468(6) 0.3868(7) -0.4833(4)
H9A H -0.9195 0.3770 -0.5076
C8A C -0.8272(6) 0.3569(7) -0.3939(4)
H10A H -0.8850 0.3236 -0.3465
C9A C -0.0916(6) 0.7794(6) -0.3456(3)
C10A C 0.0214(6) 0.6968(6) -0.3291(4)
H11A H 0.0177 0.6100 -0.3080
C11A C 0.1405(6) 0.7391(6) -0.3429(4)
C12A C 0.1450(6) 0.8692(6) -0.3751(4)
H12A H 0.2242 0.8994 -0.3868
C13A C 0.0326(6) 0.9530(6) -0.3896(4)
H13A H 0.0356 1.0401 -0.4089
C14A C -0.0848(6) 0.9082(6) -0.3754(4)
H14A H -0.1603 0.9656 -0.3861
C15A C -0.2168(6) 0.7288(7) -0.3376(4)
C16A C 0.2616(7) 0.6412(7) -0.3304(5)
C17A C -0.2423(5) 0.1755(5) 0.1071(3)
C18A C -0.2410(5) 0.0440(5) 0.1190(3)
H15A H -0.1825 -0.0032 0.0837
C19A C -0.3292(6) -0.0158(6) 0.1851(3)
C20A C -0.4141(6) 0.0544(6) 0.2371(4)
H16A H -0.4724 0.0142 0.2808
C21A C -0.4144(6) 0.1841(6) 0.2256(4)
H17A H -0.4718 0.2309 0.2617
C22A C -0.3287(6) 0.2438(6) 0.1598(4)
H18A H -0.3296 0.3315 0.1512
C23A C -0.1501(6) 0.2432(6) 0.0362(4)
C24A C -0.3297(6) -0.1586(6) 0.2022(3)
Cu2_2 Cu -0.07311(7) -0.23881(7) 0.09159(4)
Cu2A_2 Cu 0.07311(7) 1.23881(7) -0.09159(4)
Cu4_2 Cu -0.67984(7) 0.49567(7) -0.65755(4)
Cu4A_2 Cu 0.67984(7) 0.50433(7) 0.65755(4)
Cu5_2 Cu -0.5000 0.5000 -0.5000
Cu6_2 Cu -0.38063(7) -0.39639(7) 0.28462(4)
Cu6_3 Cu -0.38063(7) 0.60361(7) 0.28462(4)
Cu6A_2 Cu 0.38063(7) 0.39639(7) -0.28462(4)
Cu6A_3 Cu 0.38063(7) 1.39639(7) -0.28462(4)
O3_2 O 0.7520(4) 0.4572(4) 0.2686(3)
O3A_2 O -0.7520(4) 0.5428(4) -0.2686(3)
O7_2 O -0.7616(4) 0.2319(4) -0.1711(3)
O7_3 O 0.2384(4) 0.2319(4) -0.1711(3)
O7A_2 O -0.2384(4) 0.7681(4) 0.1711(3)
O7A_3 O 0.7616(4) 0.7681(4) 0.1711(3)
O8_2 O -0.5764(4) 0.2017(4) -0.2507(2)
O8A_2 O 0.5764(4) 0.7983(4) 0.2507(2)
O10A_2 O 0.5567(3) 0.4191(3) 0.6181(2)
N11A_2 N 0.3396(4) 0.4282(4) 0.5316(3)
N12_2 N -0.2573(5) 0.5675(5) -0.4715(3)
N12A_2 N 0.2573(5) 0.4325(5) 0.4715(3)
O11 O 0.4062(12) 0.1021(11) 0.5366(7)
O14 O 0.6401(15) 0.1905(15) 0.5629(10)
O12? O 0.5140(13) 0.1499(13) 0.4702(8)
O13? O 0.6332(19) 0.1655(19) 0.6131(12)
loop_
_geom_bond_atom_site_label_1
_geom_bond_atom_site_label_2
_geom_bond_site_symmetry_1
_geom_bond_site_symmetry_2
Cu1 O1 1_555 1_555
Cu2 O6 1_555 1_555
Cu3 O5 1_555 1_555
Cu4 O1 1_555 1_555
Cu5 O10 1_555 1_555
Cu6 O10 1_555 1_555
O1 C15 1_555 1_555
O2 C15 1_555 1_555
O3 C16 1_555 1_555
O4 C16 1_555 1_555
O5 Cu1 1_555 1_555
O6 C23 1_555 1_555
O7 C24 1_555 1_555
O8 C24 1_555 1_555
O9 Cu1 1_555 1_555
H1 O9 1_555 1_555
O10 Cu4 1_555 1_555
H2 O10 1_555 1_555
N1 Cu2 1_555 1_555
N2 Cu1 1_555 1_555
N3 Cu4 1_555 1_555
N4 Cu1 1_555 1_555
N5 Cu4 1_555 1_555
N6 Cu6 1_555 1_555
N7 Cu1 1_555 1_555
N8 Cu3 1_555 1_555
N9 N8 1_555 1_555
N10 Cu6 1_555 1_555
N11 Cu5 1_555 1_555
N12 N11 1_555 1_555
C1 N3 1_555 1_555
H3 C1 1_555 1_555
C2 N1 1_555 1_555
H4 C2 1_555 1_555
C3 N6 1_555 1_555
H5 C3 1_555 1_555
C4 N4 1_555 1_555
H6 C4 1_555 1_555
C5 N9 1_555 1_555
H7 C5 1_555 1_555
C6 N7 1_555 1_555
H8 C6 1_555 1_555
C7 N12 1_555 1_555
H9 C7 1_555 1_555
C8 N10 1_555 1_555
H10 C8 1_555 1_555
C9 C10 1_555 1_555
C10 H11 1_555 1_555
C11 C10 1_555 1_555
C12 C11 1_555 1_555
H12 C12 1_555 1_555
C13 C12 1_555 1_555
H13 C13 1_555 1_555
C14 C9 1_555 1_555
H14 C14 1_555 1_555
C15 C9 1_555 1_555
C16 C11 1_555 1_555
C17 C18 1_555 1_555
C18 H15 1_555 1_555
C19 C18 1_555 1_555
C20 C19 1_555 1_555
H16 C20 1_555 1_555
C21 C20 1_555 1_555
H17 C21 1_555 1_555
C22 C17 1_555 1_555
H18 C22 1_555 1_555
C23 O5 1_555 1_555
C24 C19 1_555 1_555
Cu1A O1A 1_555 1_555
Cu2A N9 1_555 1_555
Cu4A O1A 1_555 1_555
Cu6A O10A 1_555 1_555
O1A C15A 1_555 1_555
O2A C15A 1_555 1_555
O3A C16A 1_555 1_555
O4A C16A 1_555 1_555
O5A Cu3 1_555 1_555
O6A Cu2A 1_555 1_555
O7A C24A 1_555 1_555
O8A C24A 1_555 1_555
O9A Cu3 1_555 1_555
H1A O9A 1_555 1_555
O10A Cu4A 1_555 1_555
H2A O10A 1_555 1_555
N1A Cu2A 1_555 1_555
N2A Cu1A 1_555 1_555
N3A Cu4A 1_555 1_555
N4A Cu1A 1_555 1_555
N5A Cu4A 1_555 1_555
N6A Cu6A 1_555 1_555
N7A Cu1A 1_555 1_555
N8A Cu3 1_555 1_555
N9A Cu2 1_555 1_555
N10A Cu6A 1_555 1_555
N11A N10A 1_555 1_555
N12A N11A 1_555 1_555
C1A N3A 1_555 1_555
H3A C1A 1_555 1_555
C2A N1A 1_555 1_555
H4A C2A 1_555 1_555
C3A N6A 1_555 1_555
H5A C3A 1_555 1_555
C4A N4A 1_555 1_555
H6A C4A 1_555 1_555
C5A N9A 1_555 1_555
H7A C5A 1_555 1_555
C6A N7A 1_555 1_555
H8A C6A 1_555 1_555
C7A N12A 1_555 1_555
H9A C7A 1_555 1_555
C8A N10A 1_555 1_555
H10A C8A 1_555 1_555
C9A C10A 1_555 1_555
C10A H11A 1_555 1_555
C11A C10A 1_555 1_555
C12A C11A 1_555 1_555
H12A C12A 1_555 1_555
C13A C12A 1_555 1_555
H13A C13A 1_555 1_555
C14A C9A 1_555 1_555
H14A C14A 1_555 1_555
C15A C9A 1_555 1_555
C16A C11A 1_555 1_555
C17A C18A 1_555 1_555
C18A H15A 1_555 1_555
C19A C18A 1_555 1_555
C20A C19A 1_555 1_555
H16A C20A 1_555 1_555
C21A C20A 1_555 1_555
H17A C21A 1_555 1_555
C22A C17A 1_555 1_555
H18A C22A 1_555 1_555
C23A O5A 1_555 1_555
C24A C19A 1_555 1_555
Cu2_2 O7A 1_555 1_555
Cu2A_2 O7 1_555 1_555
Cu4_2 N12A 1_555 1_555
Cu4A_2 N12 1_555 1_555
Cu5_2 O10A 1_555 1_555
Cu6_2 O7A 1_555 1_555
Cu6_3 O3 1_555 1_555
Cu6A_2 O3A 1_555 1_555
Cu6A_3 O7 1_555 1_555
O3_2 Cu6 1_555 1_555
O3A_2 Cu6A 1_555 1_555
O7_2 Cu6A 1_555 1_555
O7_3 Cu2A 1_555 1_555
O7A_2 Cu2 1_555 1_555
O7A_3 Cu6 1_555 1_555
O8_2 Cu6A 1_555 1_555
O8A_2 Cu6 1_555 1_555
O10A_2 Cu5 1_555 1_555
N11A_2 Cu5 1_555 1_555
N12_2 Cu4A 1_555 1_555
N12A_2 Cu4 1_555 1_555
Cu2 O9 1_555 1_555
Cu3 O9 1_555 1_555
O8 Cu6A_3 1_555 1_555
N1 N2 1_555 1_555
N2 N3 1_555 1_555
N4 N5 1_555 1_555
N5 N6 1_555 1_555
N7 N8 1_555 1_555
N10 N11 1_555 1_555
C1 C2 1_555 1_555
C3 C4 1_555 1_555
C5 C6 1_555 1_555
C7 C8 1_555 1_555
C13 C14 1_555 1_555
C17 C23 1_555 1_555
C21 C22 1_555 1_555
Cu1A O5A 1_555 1_555
Cu1A O9A 1_555 1_555
Cu2A O9A 1_555 1_555
O6A C23A 1_555 1_555
O8A Cu6_2 1_555 1_555
N1A N2A 1_555 1_555
N2A N3A 1_555 1_555
N4A N5A 1_555 1_555
N5A N6A 1_555 1_555
N7A N8A 1_555 1_555
N8A N9A 1_555 1_555
N11A Cu5_2 1_555 1_555
C1A C2A 1_555 1_555
C3A C4A 1_555 1_555
C5A C6A 1_555 1_555
C7A C8A 1_555 1_555
C13A C14A 1_555 1_555
C17A C23A 1_555 1_555
C21A C22A 1_555 1_555
Cu4A_2 O10A_2 1_555 1_555
Cu6_3 O7A_2 1_555 1_555
Cu6A_2 O7_3 1_555 1_555
N11A_2 N12A_2 1_555 1_555

#END
