
#######################################################################
#
#                 Cambridge Crystallographic Data Centre
#                                CCDC 
#
#######################################################################
#
# If this CIF has been generated from an entry in the Cambridge 
# Structural Database, then it will include bibliographic, chemical, 
# crystal, experimental, refinement or atomic coordinate data resulting 
# from the CCDC's data processing and validation procedures.
#
#######################################################################

data_COWPOU
_symmetry_cell_setting           monoclinic
_symmetry_space_group_name_H-M   'C 2/c'
_symmetry_Int_Tables_number      15
_space_group_name_Hall           '-C 2yn'
loop_
_symmetry_equiv_pos_site_id
_symmetry_equiv_pos_as_xyz
1 x,y,z
2 1/2+x,1/2+y,z
3 -x,y,1/2-z
4 1/2-x,1/2+y,1/2-z
5 -x,-y,-z
6 1/2-x,1/2-y,-z
7 x,-y,1/2+z
8 1/2+x,1/2-y,1/2+z
_cell_length_a                   26.1377(16)
_cell_length_b                   6.7464(4)
_cell_length_c                   25.0235(15)
_cell_angle_alpha                90
_cell_angle_beta                 105.916(1)
_cell_angle_gamma                90
_cell_volume                     4243.37
loop_
_atom_site_label
_atom_site_type_symbol
_atom_site_fract_x
_atom_site_fract_y
_atom_site_fract_z
Zn1 Zn 0.934966(13) -0.11445(5) 0.965756(13)
O1 O 0.91944(10) 0.0527(3) 0.90059(9)
O2 O 0.91544(11) -0.2323(3) 0.85589(10)
O3 O 0.99658(8) 0.7518(3) 0.52194(8)
O4 O 0.92966(9) 0.9461(3) 0.52834(9)
C1 C 0.91441(12) 0.0659(4) 0.80520(12)
C2 C 0.90256(14) 0.2649(5) 0.80158(13)
H1 H 0.8932 0.3272 0.8307
C3 C 0.90442(15) 0.3733(5) 0.75554(13)
H2 H 0.8957 0.5072 0.7538
C4 C 0.91904(12) 0.2870(5) 0.71170(12)
C5 C 0.93051(14) 0.0848(5) 0.71530(13)
H3 H 0.9402 0.0222 0.6864
C6 C 0.92776(14) -0.0236(5) 0.76112(13)
H4 H 0.9350 -0.1588 0.7624
C7 C 0.91623(13) -0.0504(5) 0.85690(13)
C8 C 0.92515(13) 0.4083(4) 0.66408(12)
C9 C 0.89514(13) 0.5787(5) 0.64731(13)
H5 H 0.8682 0.6112 0.6635
C10 C 0.90502(12) 0.7004(5) 0.60676(12)
H6 H 0.8847 0.8141 0.5960
C11 C 0.94488(11) 0.6549(4) 0.58189(11)
C12 C 0.97319(13) 0.4804(5) 0.59672(14)
H7 H 0.9993 0.4456 0.5796
C13 C 0.96303(13) 0.3586(5) 0.63651(14)
H8 H 0.9818 0.2405 0.6453
C14 C 0.95826(11) 0.7931(4) 0.54157(11)
N1 N 0.88107(9) -0.3210(3) 0.97240(10)
C15 C 0.84896(13) -0.2905(5) 1.00519(14)
H9 H 0.8525 -0.1733 1.0254
C16 C 0.81119(13) -0.4243(5) 1.01018(14)
H10 H 0.7897 -0.3973 1.0334
C17 C 0.80502(12) -0.6002(5) 0.98052(13)
C18 C 0.83928(12) -0.6326(5) 0.94746(13)
H11 H 0.8371 -0.7497 0.9274
C19 C 0.87601(13) -0.4922(4) 0.94460(13)
H12 H 0.8985 -0.5168 0.9223
C20 C 0.76581(13) -0.7528(5) 0.98360(15)
H13 H 0.7631 -0.8624 0.9605
Zn1F Zn 0.934966(13) 1.11445(5) 1.465756(13)
Zn1B Zn 1.065034(13) 0.88555(5) 0.534244(13)
Zn1F_2 Zn 0.934966(13) 1.11445(5) 0.465756(13)
Zn1E Zn 0.565034(13) -1.38555(5) 1.034244(13)
Zn1D Zn 1.065034(13) 0.11445(5) 1.034244(13)
O1F O 0.91944(10) 0.9473(3) 1.40059(9)
O2F O 0.91544(11) 1.2323(3) 1.35589(10)
O3F O 0.99658(8) 0.2482(3) 1.02194(8)
O3B O 1.00342(8) -0.2482(3) 0.97806(8)
O3D O 1.00342(8) 1.2482(3) 1.47806(8)
O4F O 0.92966(9) 0.0539(3) 1.02834(9)
O4_2 O 0.92966(9) 0.9461(3) 1.52834(9)
C1F C 0.91441(12) 0.9341(4) 1.30520(12)
C2F C 0.90256(14) 0.7351(5) 1.30158(13)
H1F H 0.8932 0.6728 1.3307
C3F C 0.90442(15) 0.6267(5) 1.25554(13)
H2F H 0.8957 0.4928 1.2538
C4F C 0.91904(12) 0.7130(5) 1.21170(12)
C5F C 0.93051(14) 0.9152(5) 1.21530(13)
H3F H 0.9402 0.9778 1.1864
C6F C 0.92776(14) 1.0236(5) 1.26112(13)
H4F H 0.9350 1.1588 1.2624
C7F C 0.91623(13) 1.0504(5) 1.35690(13)
C8F C 0.92515(13) 0.5917(4) 1.16408(12)
C9F C 0.89514(13) 0.4213(5) 1.14731(13)
H5F H 0.8682 0.3888 1.1635
C10F C 0.90502(12) 0.2996(5) 1.10676(12)
H6F H 0.8847 0.1859 1.0960
C11F C 0.94488(11) 0.3451(4) 1.08189(11)
C12F C 0.97319(13) 0.5196(5) 1.09672(14)
H7F H 0.9993 0.5544 1.0796
C13F C 0.96303(13) 0.6414(5) 1.13651(14)
H8F H 0.9818 0.7595 1.1453
C14F C 0.95826(11) 0.2069(4) 1.04157(11)
N1E N 0.61893(9) -1.1790(3) 1.02760(10)
N1F N 0.88107(9) 1.3210(3) 1.47240(10)
C15E C 0.65104(13) -1.2095(5) 0.99481(14)
H9E H 0.6475 -1.3267 0.9746
C16E C 0.68881(13) -1.0757(5) 0.98982(14)
H10E H 0.7103 -1.1027 0.9666
C17E C 0.69498(12) -0.8998(5) 1.01948(13)
C18E C 0.66072(12) -0.8674(5) 1.05254(13)
H11E H 0.6629 -0.7503 1.0726
C19E C 0.62399(13) -1.0078(4) 1.05540(13)
H12E H 0.6015 -0.9832 1.0777
C20E C 0.73419(13) -0.7472(5) 1.01640(15)
H13E H 0.7369 -0.6376 1.0395
O5 O 0.7533(2) 0.9276(9) 0.8811(2)
C21 C 0.7733(3) 0.8291(13) 0.8540(3)
H14 H 0.8048 0.8761 0.8481
N2 N 0.75515(19) 0.6556(8) 0.8306(2)
C22 C 0.7114(3) 0.5672(16) 0.8403(4)
H15 H 0.7205 0.4360 0.8546
H16 H 0.6834 0.5596 0.8062
H17 H 0.6995 0.6439 0.8669
C23 C 0.7837(4) 0.5625(14) 0.7969(3)
H18 H 0.7627 0.5652 0.7588
H19 H 0.7911 0.4276 0.8086
H20 H 0.8165 0.6318 0.8004
loop_
_geom_bond_atom_site_label_1
_geom_bond_atom_site_label_2
_geom_bond_site_symmetry_1
_geom_bond_site_symmetry_2
Zn1 O1 1_555 1_555
O1 C7 1_555 1_555
O2 C7 1_555 1_555
O3 C14 1_555 1_555
O4 C14 1_555 1_555
C1 C2 1_555 1_555
C2 H1 1_555 1_555
C3 C2 1_555 1_555
H2 C3 1_555 1_555
C4 C3 1_555 1_555
C5 C4 1_555 1_555
H3 C5 1_555 1_555
C6 C1 1_555 1_555
H4 C6 1_555 1_555
C7 C1 1_555 1_555
C8 C4 1_555 1_555
C9 C8 1_555 1_555
H5 C9 1_555 1_555
C10 C9 1_555 1_555
H6 C10 1_555 1_555
C11 C10 1_555 1_555
C12 C11 1_555 1_555
H7 C12 1_555 1_555
C13 C8 1_555 1_555
H8 C13 1_555 1_555
C14 C11 1_555 1_555
N1 Zn1 1_555 1_555
C15 N1 1_555 1_555
H9 C15 1_555 1_555
C16 C15 1_555 1_555
H10 C16 1_555 1_555
C17 C16 1_555 1_555
C18 C17 1_555 1_555
H11 C18 1_555 1_555
C19 N1 1_555 1_555
H12 C19 1_555 1_555
C20 C17 1_555 1_555
H13 C20 1_555 1_555
O5 C21 1_555 1_555
C21 H14 1_555 1_555
N2 C21 1_555 1_555
C22 N2 1_555 1_555
H15 C22 1_555 1_555
H16 C22 1_555 1_555
H17 C22 1_555 1_555
C23 N2 1_555 1_555
H18 C23 1_555 1_555
H19 C23 1_555 1_555
H20 C23 1_555 1_555
Zn1F O1F 1_555 1_555
Zn1B O3 1_555 1_555
Zn1F_2 O4 1_555 1_555
Zn1E N1E 1_555 1_555
Zn1D O3F 1_555 1_555
O1F C7F 1_555 1_555
O2F C7F 1_555 1_555
O3F C14F 1_555 1_555
O3B Zn1 1_555 1_555
O3D Zn1F 1_555 1_555
O4F Zn1 1_555 1_555
O4_2 Zn1F 1_555 1_555
C1F C2F 1_555 1_555
C2F H1F 1_555 1_555
C3F C2F 1_555 1_555
H2F C3F 1_555 1_555
C4F C3F 1_555 1_555
C5F C4F 1_555 1_555
H3F C5F 1_555 1_555
C6F C1F 1_555 1_555
H4F C6F 1_555 1_555
C7F C1F 1_555 1_555
C8F C4F 1_555 1_555
C9F C8F 1_555 1_555
H5F C9F 1_555 1_555
C10F C9F 1_555 1_555
H6F C10F 1_555 1_555
C11F C10F 1_555 1_555
C12F C11F 1_555 1_555
H7F C12F 1_555 1_555
C13F C8F 1_555 1_555
H8F C13F 1_555 1_555
C14F O4F 1_555 1_555
N1E C15E 1_555 1_555
N1F Zn1F 1_555 1_555
C15E H9E 1_555 1_555
C16E C15E 1_555 1_555
H10E C16E 1_555 1_555
C17E C16E 1_555 1_555
C18E C17E 1_555 1_555
H11E C18E 1_555 1_555
C19E N1E 1_555 1_555
H12E C19E 1_555 1_555
C20E C20 1_555 1_555
H13E C20E 1_555 1_555
C5 C6 1_555 1_555
C12 C13 1_555 1_555
C18 C19 1_555 1_555
C5F C6F 1_555 1_555
C11F C14F 1_555 1_555
C12F C13F 1_555 1_555
C17E C20E 1_555 1_555
C18E C19E 1_555 1_555

#END
