
#######################################################################
#
#                 Cambridge Crystallographic Data Centre
#                                CCDC 
#
#######################################################################
#
# If this CIF has been generated from an entry in the Cambridge 
# Structural Database, then it will include bibliographic, chemical, 
# crystal, experimental, refinement or atomic coordinate data resulting 
# from the CCDC's data processing and validation procedures.
#
#######################################################################

data_COXCOJ
_symmetry_cell_setting           monoclinic
_symmetry_space_group_name_H-M   'C 2/c'
_symmetry_Int_Tables_number      15
_space_group_name_Hall           '-C 2yn'
loop_
_symmetry_equiv_pos_site_id
_symmetry_equiv_pos_as_xyz
1 x,y,z
2 -x,y,1/2-z
3 1/2+x,1/2+y,z
4 1/2-x,1/2+y,1/2-z
5 -x,-y,-z
6 x,-y,1/2+z
7 1/2-x,1/2-y,-z
8 1/2+x,1/2-y,1/2+z
_cell_length_a                   26.217(2)
_cell_length_b                   11.5371(9)
_cell_length_c                   16.1404(12)
_cell_angle_alpha                90
_cell_angle_beta                 122.5070(10)
_cell_angle_gamma                90
_cell_volume                     4117.08
loop_
_atom_site_label
_atom_site_type_symbol
_atom_site_fract_x
_atom_site_fract_y
_atom_site_fract_z
Cu1 Cu 0.5000 0.17549(8) 0.7500
Cu2 Cu 0.24216(2) 0.11702(5) 0.44988(4)
Cu3 Cu 0.31276(2) 0.22911(5) 0.32746(4)
Cu4 Cu 0.56792(2) 0.35319(5) 0.50811(4)
Cu5 Cu 0.5000 0.38887(7) 0.2500
N1 N 0.42445(16) 0.1748(4) 0.6343(2)
N2 N 0.32684(16) 0.1441(4) 0.5246(3)
N3 N 0.35175(16) 0.1975(4) 0.4765(3)
N4 N 0.38944(16) 0.2543(4) 0.3413(3)
N5 N 0.48618(15) 0.3050(3) 0.4139(2)
N6 N 0.46144(16) 0.3004(4) 0.3128(2)
N7 N 0.57426(15) 0.4825(3) 0.3526(2)
N8 N 0.60252(16) 0.4629(3) 0.4535(2)
N9 N 0.66702(16) 0.5585(3) 0.4285(2)
N10 N 0.63007(16) 0.6888(3) 0.1448(3)
N11 N 0.72710(16) 0.7178(3) 0.2591(3)
N12 N 0.70194(16) 0.6538(3) 0.3015(3)
C1 C 0.3656(2) 0.0780(5) 0.6964(3)
H1 H 0.3237 0.0533 0.6685
H2 H 0.3768 0.1347 0.7487
H3 H 0.3925 0.0107 0.7236
C2 C 0.37150(19) 0.1321(4) 0.6176(3)
C3 C 0.40963(19) 0.2144(4) 0.5442(3)
C4 C 0.45388(19) 0.2759(4) 0.5293(3)
H4 H 0.4941 0.2407 0.5737
H5 H 0.4562 0.3574 0.5503
C5 C 0.44184(19) 0.2765(4) 0.4270(3)
C6 C 0.40456(19) 0.2694(4) 0.2731(3)
C7 C 0.3609(2) 0.2530(4) 0.1652(3)
H6 H 0.3813 0.2685 0.1303
H7 H 0.3269 0.3067 0.1421
H8 H 0.3458 0.1731 0.1524
C8 C 0.7023(2) 0.5148(5) 0.6028(3)
H9 H 0.6862 0.4748 0.6375
H10 H 0.7108 0.5958 0.6242
H11 H 0.7397 0.4767 0.6176
C9 C 0.65699(19) 0.5102(4) 0.4949(3)
C10 C 0.61405(18) 0.5382(4) 0.3412(3)
C11 C 0.5985(2) 0.5734(5) 0.2404(3)
H12 H 0.5883 0.5022 0.2003
H13 H 0.5613 0.6213 0.2104
C12 C 0.64451(19) 0.6389(4) 0.2312(3)
C13 C 0.68297(19) 0.7388(4) 0.1667(3)
C14 C 0.6913(2) 0.8070(5) 0.0966(3)
H14 H 0.7332 0.8341 0.1298
H15 H 0.6639 0.8738 0.0732
H16 H 0.6822 0.7580 0.0407
Cu2A Cu 0.75784(2) 0.11702(5) 0.05012(4)
Cu3A Cu 0.68724(2) 0.22911(5) 0.17254(4)
Cu4A Cu 0.43208(2) 0.35319(5) -0.00811(4)
N1A N 0.57555(16) 0.1748(4) -0.1343(2)
N2A N 0.67316(16) 0.1441(4) -0.0246(3)
N3A N 0.64825(16) 0.1975(4) 0.0235(3)
N4A N 0.61056(16) 0.2543(4) 0.1587(3)
N5A N 0.51382(15) 0.3050(3) 0.0861(2)
N6A N 0.53856(16) 0.3004(4) 0.1872(2)
N7A N 0.42574(15) 0.4825(3) 0.1474(2)
N8A N 0.39748(16) 0.4629(3) 0.0465(2)
N9A N 0.33298(16) 0.5585(3) 0.0715(2)
N10A N 0.36993(16) 0.6888(3) 0.3552(3)
N11A N 0.27290(16) 0.7178(3) 0.2409(3)
N12A N 0.29806(16) 0.6538(3) 0.1985(3)
C1A C 0.6344(2) 0.0780(5) -0.1964(3)
H1A H 0.6763 0.0533 -0.1685
H2A H 0.6232 0.1347 -0.2487
H3A H 0.6075 0.0107 -0.2236
C2A C 0.62850(19) 0.1321(4) -0.1176(3)
C3A C 0.59037(19) 0.2144(4) -0.0442(3)
C4A C 0.54612(19) 0.2759(4) -0.0293(3)
H4A H 0.5059 0.2407 -0.0737
H5A H 0.5438 0.3574 -0.0503
C5A C 0.55816(19) 0.2765(4) 0.0730(3)
C6A C 0.59544(19) 0.2694(4) 0.2269(3)
C7A C 0.6391(2) 0.2530(4) 0.3348(3)
H6A H 0.6187 0.2685 0.3697
H7A H 0.6731 0.3067 0.3579
H8A H 0.6542 0.1731 0.3476
C8A C 0.2977(2) 0.5148(5) -0.1028(3)
H9A H 0.3138 0.4748 -0.1375
H10A H 0.2892 0.5958 -0.1242
H11A H 0.2603 0.4767 -0.1176
C9A C 0.34301(19) 0.5102(4) 0.0051(3)
C10A C 0.38595(18) 0.5382(4) 0.1588(3)
C11A C 0.4015(2) 0.5734(5) 0.2596(3)
H12A H 0.4117 0.5022 0.2997
H13A H 0.4387 0.6213 0.2896
C12A C 0.35549(19) 0.6389(4) 0.2688(3)
C13A C 0.31703(19) 0.7388(4) 0.3333(3)
C14A C 0.3087(2) 0.8070(5) 0.4034(3)
H14A H 0.2668 0.8341 0.3702
H15A H 0.3361 0.8738 0.4268
H16A H 0.3178 0.7580 0.4593
Cu1_2 Cu 0.5000 0.17549(8) -0.2500
Cu2B Cu 0.74216(2) 0.61702(5) 0.44988(4)
Cu2C Cu 0.25784(2) 0.61702(5) 0.05012(4)
Cu3B Cu 0.81276(2) 0.72911(5) 0.32746(4)
Cu3C Cu 0.18724(2) 0.72911(5) 0.17254(4)
Cu4D Cu 0.43208(2) 0.64681(5) 0.49189(4)
Cu4E Cu 0.56792(2) 0.64681(5) 0.00811(4)
N1A_2 N 0.57555(16) 0.1748(4) 0.8657(2)
N9B N 0.16702(16) 0.0585(3) 0.4285(2)
N9C N 0.83298(16) 0.0585(3) 0.0715(2)
N10D N 0.36993(16) 0.3112(3) -0.1448(3)
N10E N 0.63007(16) 0.3112(3) 0.6448(3)
N11B N 0.22710(16) 0.2178(3) 0.2591(3)
N11C N 0.77290(16) 0.2178(3) 0.2409(3)
N12B N 0.20194(16) 0.1538(3) 0.3015(3)
N12C N 0.79806(16) 0.1538(3) 0.1985(3)
loop_
_geom_bond_atom_site_label_1
_geom_bond_atom_site_label_2
_geom_bond_site_symmetry_1
_geom_bond_site_symmetry_2
Cu1 N1 1_555 1_555
Cu2 N2 1_555 1_555
Cu3 N3 1_555 1_555
Cu4 N5 1_555 1_555
Cu5 N6 1_555 1_555
N1 C2 1_555 1_555
N2 N3 1_555 1_555
N3 C3 1_555 1_555
N4 Cu3 1_555 1_555
N5 N6 1_555 1_555
N6 C6 1_555 1_555
N7 Cu5 1_555 1_555
N8 Cu4 1_555 1_555
N9 C9 1_555 1_555
N10 C12 1_555 1_555
N11 N12 1_555 1_555
N12 C12 1_555 1_555
C1 H1 1_555 1_555
H2 C1 1_555 1_555
H3 C1 1_555 1_555
C2 N2 1_555 1_555
C3 N1 1_555 1_555
C4 C3 1_555 1_555
H4 C4 1_555 1_555
H5 C4 1_555 1_555
C5 N4 1_555 1_555
C6 N4 1_555 1_555
C7 C6 1_555 1_555
H6 C7 1_555 1_555
H7 C7 1_555 1_555
H8 C7 1_555 1_555
C8 H9 1_555 1_555
H10 C8 1_555 1_555
H11 C8 1_555 1_555
C9 N8 1_555 1_555
C10 N7 1_555 1_555
C11 C10 1_555 1_555
H12 C11 1_555 1_555
H13 C11 1_555 1_555
C12 C11 1_555 1_555
C13 N10 1_555 1_555
C14 C13 1_555 1_555
H14 C14 1_555 1_555
H15 C14 1_555 1_555
H16 C14 1_555 1_555
Cu2A N2A 1_555 1_555
Cu3A N3A 1_555 1_555
Cu4A N5A 1_555 1_555
N1A C2A 1_555 1_555
N2A N3A 1_555 1_555
N3A C3A 1_555 1_555
N4A Cu3A 1_555 1_555
N5A N6A 1_555 1_555
N6A Cu5 1_555 1_555
N7A Cu5 1_555 1_555
N8A Cu4A 1_555 1_555
N9A C9A 1_555 1_555
N10A C12A 1_555 1_555
N11A N12A 1_555 1_555
N12A C12A 1_555 1_555
C1A H1A 1_555 1_555
H2A C1A 1_555 1_555
H3A C1A 1_555 1_555
C2A N2A 1_555 1_555
C3A N1A 1_555 1_555
C4A C3A 1_555 1_555
H4A C4A 1_555 1_555
H5A C4A 1_555 1_555
C5A N4A 1_555 1_555
C6A N4A 1_555 1_555
C7A C6A 1_555 1_555
H6A C7A 1_555 1_555
H7A C7A 1_555 1_555
H8A C7A 1_555 1_555
C8A H9A 1_555 1_555
H10A C8A 1_555 1_555
H11A C8A 1_555 1_555
C9A N8A 1_555 1_555
C10A N7A 1_555 1_555
C11A C10A 1_555 1_555
H12A C11A 1_555 1_555
H13A C11A 1_555 1_555
C12A C11A 1_555 1_555
C13A N10A 1_555 1_555
C14A C13A 1_555 1_555
H14A C14A 1_555 1_555
H15A C14A 1_555 1_555
H16A C14A 1_555 1_555
Cu1_2 N1A 1_555 1_555
Cu2B N9 1_555 1_555
Cu2C N9A 1_555 1_555
Cu3B N11 1_555 1_555
Cu3C N11A 1_555 1_555
Cu4D N10A 1_555 1_555
Cu4E N10 1_555 1_555
N1A_2 Cu1 1_555 1_555
N9B Cu2 1_555 1_555
N9C Cu2A 1_555 1_555
N10D Cu4A 1_555 1_555
N10E Cu4 1_555 1_555
N11B Cu3 1_555 1_555
N11C Cu3A 1_555 1_555
N12B Cu2 1_555 1_555
N12C Cu2A 1_555 1_555
N5 C5 1_555 1_555
N7 N8 1_555 1_555
N9 C10 1_555 1_555
N11 C13 1_555 1_555
N12 Cu2B 1_555 1_555
C1 C2 1_555 1_555
C4 C5 1_555 1_555
C8 C9 1_555 1_555
N5A C5A 1_555 1_555
N6A C6A 1_555 1_555
N7A N8A 1_555 1_555
N9A C10A 1_555 1_555
N11A C13A 1_555 1_555
N12A Cu2C 1_555 1_555
C1A C2A 1_555 1_555
C4A C5A 1_555 1_555
C8A C9A 1_555 1_555
N11B N12B 1_555 1_555
N11C N12C 1_555 1_555

#END
