
#######################################################################
#
#                 Cambridge Crystallographic Data Centre
#                                CCDC 
#
#######################################################################
#
# If this CIF has been generated from an entry in the Cambridge 
# Structural Database, then it will include bibliographic, chemical, 
# crystal, experimental, refinement or atomic coordinate data resulting 
# from the CCDC's data processing and validation procedures.
#
#######################################################################

data_COYJIL
_symmetry_cell_setting           triclinic
_symmetry_space_group_name_H-M   'P -1'
_symmetry_Int_Tables_number      2
_space_group_name_Hall           '-P 1'
loop_
_symmetry_equiv_pos_site_id
_symmetry_equiv_pos_as_xyz
1 x,y,z
2 -x,-y,-z
_cell_length_a                   9.5948(19)
_cell_length_b                   11.227(2)
_cell_length_c                   14.752(3)
_cell_angle_alpha                82.390(4)
_cell_angle_beta                 83.808(4)
_cell_angle_gamma                83.401(4)
_cell_volume                     1557.72
loop_
_atom_site_label
_atom_site_type_symbol
_atom_site_fract_x
_atom_site_fract_y
_atom_site_fract_z
Eu1 Eu 1.06398(8) 0.40557(7) 0.33874(6)
C1 C 0.1133(14) -0.1597(14) 0.5643(10)
C2 C 0.1713(15) -0.0730(14) 0.4970(11)
C3 C 0.1382(16) -0.0648(15) 0.4087(11)
H1 H 0.1721 -0.0050 0.3649
C4 C 0.0553(16) -0.1446(16) 0.3846(12)
H2 H 0.0376 -0.1431 0.3237
C5 C -0.0036(16) -0.2299(15) 0.4542(12)
H3 H -0.0639 -0.2813 0.4383
C6 C 0.1380(16) -0.1731(14) 0.6604(11)
C7 C 0.224(2) -0.0950(16) 0.6899(13)
C8 C 0.243(2) -0.1052(19) 0.7837(14)
H4 H 0.2910 -0.0499 0.8065
C9 C 0.191(2) -0.195(2) 0.8388(16)
H5 H 0.2066 -0.2068 0.9007
C10 C 0.112(2) -0.2736(18) 0.8030(14)
H6 H 0.0779 -0.3373 0.8430
C11 C 0.2848(15) -0.0050(14) 0.6220(11)
C12 C 0.2584(14) 0.0027(14) 0.5326(11)
C13 C 0.3903(16) 0.1404(14) 0.5557(13)
C14 C 0.4850(16) 0.2409(14) 0.5336(12)
C15 C 0.5338(18) 0.2834(17) 0.6059(12)
H7 H 0.5044 0.2521 0.6655
C16 C 0.6265(17) 0.3723(15) 0.5918(12)
H8 H 0.6563 0.4025 0.6414
C17 C 0.6726(16) 0.4138(14) 0.5046(11)
C18 C 0.6195(16) 0.3744(15) 0.4327(13)
H9 H 0.6468 0.4083 0.3734
C19 C 0.5310(17) 0.2901(16) 0.4437(12)
H10 H 0.4997 0.2637 0.3930
C20 C 0.7875(17) 0.4979(12) 0.4870(12)
C21 C 1.269(2) 0.2625(17) 0.2332(16)
C22 C 1.3492(14) 0.1844(10) 0.1689(8)
C23 C 1.3676(17) 0.2329(9) 0.0772(9)
H11 H 1.3386 0.3139 0.0599
C24 C 1.4294(17) 0.1604(12) 0.0114(7)
H12 H 1.4417 0.1928 -0.0499
C25 C 1.4727(14) 0.0393(11) 0.0372(7)
C26 C 1.4543(13) -0.0092(9) 0.1289(8)
H13 H 1.4833 -0.0902 0.1462
C27 C 1.3925(14) 0.0634(11) 0.1947(6)
H14 H 1.3802 0.0309 0.2561
C28 C 0.9041(15) 0.8618(14) 0.0378(11)
H15 H 0.8294 0.8797 0.0013
C29 C 0.9144(15) 0.7549(13) 0.0972(12)
H16 H 0.8465 0.7012 0.1005
C30 C 1.0261(14) 0.7281(10) 0.1517(9)
C31 C 1.1275(12) 0.8084(11) 0.1468(9)
H17 H 1.2022 0.7905 0.1832
C32 C 1.1172(12) 0.9153(10) 0.0874(9)
H18 H 1.1851 0.9690 0.0841
C33 C 1.0056(15) 0.9420(11) 0.0329(9)
C34 C 1.033(2) 0.6161(16) 0.2199(13)
N1 N 0.0249(12) -0.2382(11) 0.5412(9)
N2 N 0.0815(13) -0.2625(12) 0.7157(10)
N3 N 0.3264(12) 0.0974(11) 0.4884(9)
N4 N 0.3668(14) 0.0774(13) 0.6369(11)
H19 H 0.3974 0.0872 0.6878
O1 O 0.8664(11) 0.5006(11) 0.4139(8)
O2 O 0.8031(12) 0.5601(11) 0.5506(8)
O3 O 1.2438(12) 0.2257(10) 0.3191(9)
O4 O 1.2240(17) 0.3675(13) 0.2047(9)
O5 O 0.9585(13) 0.5331(11) 0.2127(9)
O6 O 1.1217(14) 0.6056(11) 0.2787(9)
C21A C 1.731(2) -0.2625(17) -0.2332(16)
C22A C 1.6508(14) -0.1844(10) -0.1689(8)
C23A C 1.6324(17) -0.2329(9) -0.0772(9)
H11A H 1.6614 -0.3139 -0.0599
C24A C 1.5706(17) -0.1604(12) -0.0114(7)
H12A H 1.5583 -0.1928 0.0499
C25A C 1.5273(14) -0.0393(11) -0.0372(7)
C26A C 1.5457(13) 0.0092(9) -0.1289(8)
H13A H 1.5167 0.0902 -0.1462
C27A C 1.6075(14) -0.0634(11) -0.1947(6)
H14A H 1.6198 -0.0309 -0.2561
O3A O 1.7562(12) -0.2257(10) -0.3191(9)
O4A O 1.7760(17) -0.3675(13) -0.2047(9)
C28A C 1.0959(15) 1.1382(14) -0.0378(11)
H15A H 1.1706 1.1203 -0.0013
C29A C 1.0856(15) 1.2451(13) -0.0972(12)
H16A H 1.1535 1.2988 -0.1005
C30A C 0.9739(14) 1.2719(10) -0.1517(9)
C31A C 0.8725(12) 1.1916(11) -0.1468(9)
H17A H 0.7978 1.2095 -0.1832
C32A C 0.8828(12) 1.0847(10) -0.0874(9)
H18A H 0.8149 1.0310 -0.0841
C33A C 0.9944(15) 1.0580(11) -0.0329(9)
C34A C 0.967(2) 1.3839(16) -0.2199(13)
O5A O 1.0415(13) 1.4669(11) -0.2127(9)
O6A O 0.8783(14) 1.3944(11) -0.2787(9)
Eu1A Eu -0.06398(8) -0.40557(7) 0.66126(6)
C1A C 0.8867(14) 0.1597(14) 0.4357(10)
C2A C 0.8287(15) 0.0730(14) 0.5030(11)
C3A C 0.8618(16) 0.0648(15) 0.5913(11)
H1A H 0.8279 0.0050 0.6351
C4A C 0.9447(16) 0.1446(16) 0.6154(12)
H2A H 0.9624 0.1431 0.6763
C5A C 1.0036(16) 0.2299(15) 0.5458(12)
H3A H 1.0639 0.2813 0.5617
C6A C 0.8620(16) 0.1731(14) 0.3396(11)
C7A C 0.776(2) 0.0950(16) 0.3101(13)
C8A C 0.757(2) 0.1052(19) 0.2163(14)
H4A H 0.7090 0.0499 0.1935
C9A C 0.809(2) 0.195(2) 0.1612(16)
H5A H 0.7934 0.2068 0.0993
C10A C 0.888(2) 0.2736(18) 0.1970(14)
H6A H 0.9221 0.3373 0.1570
C11A C 0.7152(15) 0.0050(14) 0.3780(11)
C12A C 0.7416(14) -0.0027(14) 0.4674(11)
C13A C 0.6097(16) -0.1404(14) 0.4443(13)
C14A C 0.5150(16) -0.2409(14) 0.4664(12)
C15A C 0.4662(18) -0.2834(17) 0.3941(12)
H7A H 0.4956 -0.2521 0.3345
C16A C 0.3735(17) -0.3723(15) 0.4082(12)
H8A H 0.3437 -0.4025 0.3586
C17A C 0.3274(16) -0.4138(14) 0.4954(11)
C18A C 0.3805(16) -0.3744(15) 0.5673(13)
H9A H 0.3532 -0.4083 0.6266
C19A C 0.4690(17) -0.2901(16) 0.5563(12)
H10A H 0.5003 -0.2637 0.6070
C20A C 0.2125(17) -0.4979(12) 0.5130(12)
N1A N 0.9751(12) 0.2382(11) 0.4588(9)
N2A N 0.9185(13) 0.2625(12) 0.2843(10)
N3A N 0.6736(12) -0.0974(11) 0.5116(9)
N4A N 0.6332(14) -0.0774(13) 0.3631(11)
H19A H 0.6026 -0.0872 0.3122
O1A O 0.1336(11) -0.5006(11) 0.5861(8)
O2A O 0.1969(12) -0.5601(11) 0.4494(8)
Eu1_2 Eu 0.06398(8) -0.59443(7) 0.33874(6)
Eu1A_2 Eu 0.93602(8) 0.59443(7) 0.66126(6)
Eu1A_3 Eu 0.93602(8) 1.59443(7) -0.33874(6)
Eu1A_4 Eu 1.93602(8) -0.40557(7) -0.33874(6)
O2_2 O -0.1969(12) -0.4399(11) 0.5506(8)
O2A_2 O 1.1969(12) 0.4399(11) 0.4494(8)
O3A_2 O -0.2438(12) -0.2257(10) 0.6809(9)
O4A_2 O -0.2240(17) -0.3675(13) 0.7953(9)
O5A_2 O 0.0415(13) -0.5331(11) 0.7873(9)
O6A_2 O -0.1217(14) -0.6056(11) 0.7213(9)
loop_
_geom_bond_atom_site_label_1
_geom_bond_atom_site_label_2
_geom_bond_site_symmetry_1
_geom_bond_site_symmetry_2
Eu1 O1 1_555 1_555
C1 C2 1_555 1_555
C2 C3 1_555 1_555
C3 H1 1_555 1_555
C4 C3 1_555 1_555
H2 C4 1_555 1_555
C5 C4 1_555 1_555
H3 C5 1_555 1_555
C6 C1 1_555 1_555
C7 C6 1_555 1_555
C8 C7 1_555 1_555
H4 C8 1_555 1_555
C9 C8 1_555 1_555
H5 C9 1_555 1_555
C10 C9 1_555 1_555
H6 C10 1_555 1_555
C11 C7 1_555 1_555
C12 C2 1_555 1_555
C13 C14 1_555 1_555
C14 C15 1_555 1_555
C15 H7 1_555 1_555
C16 C15 1_555 1_555
H8 C16 1_555 1_555
C17 C16 1_555 1_555
C18 C17 1_555 1_555
H9 C18 1_555 1_555
C19 C14 1_555 1_555
H10 C19 1_555 1_555
C20 C17 1_555 1_555
C21 C22 1_555 1_555
C22 C23 1_555 1_555
C23 H11 1_555 1_555
C24 C23 1_555 1_555
H12 C24 1_555 1_555
C25 C24 1_555 1_555
C26 C25 1_555 1_555
H13 C26 1_555 1_555
C27 C22 1_555 1_555
H14 C27 1_555 1_555
C28 H15 1_555 1_555
C29 C28 1_555 1_555
H16 C29 1_555 1_555
C30 C29 1_555 1_555
C31 C30 1_555 1_555
H17 C31 1_555 1_555
C32 C31 1_555 1_555
H18 C32 1_555 1_555
C33 C28 1_555 1_555
C34 C30 1_555 1_555
N1 C1 1_555 1_555
N2 C6 1_555 1_555
N3 C12 1_555 1_555
N4 C11 1_555 1_555
H19 N4 1_555 1_555
O1 C20 1_555 1_555
O2 C20 1_555 1_555
O3 Eu1 1_555 1_555
O4 Eu1 1_555 1_555
O5 Eu1 1_555 1_555
O6 Eu1 1_555 1_555
C21A C22A 1_555 1_555
C22A C23A 1_555 1_555
C23A H11A 1_555 1_555
C24A C23A 1_555 1_555
H12A C24A 1_555 1_555
C25A C25 1_555 1_555
C26A C25A 1_555 1_555
H13A C26A 1_555 1_555
C27A C22A 1_555 1_555
H14A C27A 1_555 1_555
O3A C21A 1_555 1_555
O4A C21A 1_555 1_555
C28A H15A 1_555 1_555
C29A C28A 1_555 1_555
H16A C29A 1_555 1_555
C30A C29A 1_555 1_555
C31A C30A 1_555 1_555
H17A C31A 1_555 1_555
C32A C31A 1_555 1_555
H18A C32A 1_555 1_555
C33A C33 1_555 1_555
C34A C30A 1_555 1_555
O5A C34A 1_555 1_555
O6A C34A 1_555 1_555
Eu1A N1 1_555 1_555
C1A C2A 1_555 1_555
C2A C3A 1_555 1_555
C3A H1A 1_555 1_555
C4A C3A 1_555 1_555
H2A C4A 1_555 1_555
C5A C4A 1_555 1_555
H3A C5A 1_555 1_555
C6A C1A 1_555 1_555
C7A C6A 1_555 1_555
C8A C7A 1_555 1_555
H4A C8A 1_555 1_555
C9A C8A 1_555 1_555
H5A C9A 1_555 1_555
C10A C9A 1_555 1_555
H6A C10A 1_555 1_555
C11A C7A 1_555 1_555
C12A C2A 1_555 1_555
C13A C14A 1_555 1_555
C14A C15A 1_555 1_555
C15A H7A 1_555 1_555
C16A C15A 1_555 1_555
H8A C16A 1_555 1_555
C17A C16A 1_555 1_555
C18A C17A 1_555 1_555
H9A C18A 1_555 1_555
C19A C14A 1_555 1_555
H10A C19A 1_555 1_555
C20A C17A 1_555 1_555
N1A Eu1 1_555 1_555
N2A Eu1 1_555 1_555
N3A C12A 1_555 1_555
N4A C11A 1_555 1_555
H19A N4A 1_555 1_555
O1A Eu1A 1_555 1_555
O2A C20A 1_555 1_555
Eu1_2 O2A 1_555 1_555
Eu1A_2 O2 1_555 1_555
Eu1A_3 O5A 1_555 1_555
Eu1A_4 O3A 1_555 1_555
O2_2 Eu1A 1_555 1_555
O2A_2 Eu1 1_555 1_555
O3A_2 Eu1A 1_555 1_555
O4A_2 Eu1A 1_555 1_555
O5A_2 Eu1A 1_555 1_555
O6A_2 Eu1A 1_555 1_555
C5 N1 1_555 1_555
C10 N2 1_555 1_555
C11 C12 1_555 1_555
C13 N3 1_555 1_555
C13 N4 1_555 1_555
C18 C19 1_555 1_555
C21 O3 1_555 1_555
C21 O4 1_555 1_555
C26 C27 1_555 1_555
C32 C33 1_555 1_555
C34 O5 1_555 1_555
C34 O6 1_555 1_555
N2 Eu1A 1_555 1_555
C24A C25A 1_555 1_555
C26A C27A 1_555 1_555
O4A Eu1A_4 1_555 1_555
C28A C33A 1_555 1_555
C32A C33A 1_555 1_555
O6A Eu1A_3 1_555 1_555
C1A N1A 1_555 1_555
C5A N1A 1_555 1_555
C6A N2A 1_555 1_555
C10A N2A 1_555 1_555
C11A C12A 1_555 1_555
C13A N3A 1_555 1_555
C13A N4A 1_555 1_555
C18A C19A 1_555 1_555
C20A O1A 1_555 1_555

#END
