
#######################################################################
#
#                 Cambridge Crystallographic Data Centre
#                                CCDC 
#
#######################################################################
#
# If this CIF has been generated from an entry in the Cambridge 
# Structural Database, then it will include bibliographic, chemical, 
# crystal, experimental, refinement or atomic coordinate data resulting 
# from the CCDC's data processing and validation procedures.
#
#######################################################################

data_CUCFEN
_symmetry_cell_setting           monoclinic
_symmetry_space_group_name_H-M   'C 2/m'
_symmetry_Int_Tables_number      12
_space_group_name_Hall           '-C 2y'
loop_
_symmetry_equiv_pos_site_id
_symmetry_equiv_pos_as_xyz
1 x,y,z
2 -x,y,-z
3 1/2+x,1/2+y,z
4 1/2-x,1/2+y,-z
5 -x,-y,-z
6 x,-y,z
7 1/2-x,1/2-y,-z
8 1/2+x,1/2-y,z
_cell_length_a                   26.953(3)
_cell_length_b                   17.962(2)
_cell_length_c                   13.8757(17)
_cell_angle_alpha                90
_cell_angle_beta                 119.110(2)
_cell_angle_gamma                90
_cell_volume                     5869.12
loop_
_atom_site_label
_atom_site_type_symbol
_atom_site_fract_x
_atom_site_fract_y
_atom_site_fract_z
Dy1 Dy 0.47745(3) 1.0000 0.33997(6)
O1 O 0.5505(3) 0.9241(4) 0.3435(6)
O2 O 0.4700(4) 1.0000 0.1588(8)
O3 O 0.5000 0.9205(13) 0.5000
O4 O 0.3823(5) 1.0000 0.3186(11)
O5 O 0.4279(3) 0.8881(5) 0.2731(6)
Dy2 Dy 0.63278(3) 1.0000 0.41307(5)
Dy3 Dy 0.522827(19) 0.89570(3) 0.15881(4)
H1 H 0.5564 0.8847 0.3814
H2 H 0.4363 1.0000 0.1049
Na1 Na 0.3631(5) 1.0000 -0.0593(11)
C1 C 0.4126(4) 0.8416(6) 0.1978(8)
O6 O 0.6711(3) 0.8967(5) 0.3750(6)
O7 O 0.5825(4) 1.0000 0.2118(8)
O8 O 0.7399(4) 1.0000 0.5194(9)
O9 O 0.6489(3) 1.0823(4) 0.5581(6)
O10 O 0.6160(3) 0.8303(4) 0.2238(6)
O11 O 0.5519(3) 0.8906(4) 0.0242(5)
O12 O 0.5147(3) 0.7705(4) 0.1058(6)
O13 O 0.4354(3) 0.8330(4) 0.1363(6)
C2 C 0.3615(4) 0.7936(6) 0.1744(8)
C3 C 0.6620(4) 0.8419(7) 0.3115(9)
H3 H 0.6038 1.0000 0.1825
Dy4 Dy 0.57810(2) 0.76525(3) 0.03659(5)
H4 H 0.5771 0.9229 0.0346
H5 H 0.5209 0.7365 0.1529
C4 C 0.3615(4) 0.7172(7) 0.1687(9)
C5 C 0.3134(4) 0.8325(6) 0.1616(8)
C6 C 0.7106(4) 0.7907(6) 0.3430(8)
O14 O 0.6147(3) 0.6671(5) 0.1632(6)
O15 O 0.5836(3) 0.6706(5) -0.0705(7)
O16 O 0.6680(3) 0.7923(5) 0.0823(7)
S1 S 0.42008(13) 0.66477(19) 0.1808(3)
C7 C 0.3123(5) 0.6776(7) 0.1479(9)
H6 H 0.3141 0.8851 0.1689
C8 C 0.2649(4) 0.7920(7) 0.1379(8)
C9 C 0.7639(5) 0.8209(6) 0.3820(9)
C10 C 0.7061(4) 0.7133(6) 0.3349(9)
S2 S 0.64155(12) 0.66337(19) 0.2864(3)
Na2 Na 0.6283(4) 0.5000 0.1705(7)
O17 O 0.4711(4) 0.6996(6) 0.2665(7)
O18 O 0.4110(4) 0.5889(5) 0.2039(10)
C11 C 0.2644(4) 0.7162(6) 0.1323(9)
H7 H 0.3118 0.6247 0.1445
H8 H 0.2314 0.8177 0.1254
C12 C 0.8121(4) 0.7788(6) 0.4130(9)
H9 H 0.7677 0.8736 0.3878
C13 C 0.7546(5) 0.6688(7) 0.3661(9)
O19 O 0.6073(3) 0.6987(6) 0.3278(7)
O20 O 0.6567(4) 0.5884(5) 0.3227(8)
O21 O 0.5345(7) 0.5000 0.1517(16)
O22 O 0.7224(7) 0.5000 0.1948(14)
O23 O 0.5898(6) 0.5000 -0.0182(11)
C14 C 0.2120(4) 0.6713(7) 0.1041(9)
H10 H 0.8478 0.8023 0.4379
C15 C 0.8079(5) 0.7026(6) 0.4075(8)
H11 H 0.7512 0.6162 0.3591
O24 O 0.2149(4) 0.6023(5) 0.1054(9)
C16 C 0.8598(5) 0.6530(6) 0.4461(9)
O25 O 0.9069(3) 0.6809(5) 0.4801(7)
O5E O 0.4279(3) 1.1119(5) 0.2731(6)
O1E O 0.5505(3) 1.0759(4) 0.3435(6)
O3D O 0.5000 1.0795(13) 0.5000
Dy3E Dy 0.522827(19) 1.10430(3) 0.15881(4)
Dy1A Dy 0.52255(3) 1.0000 0.66003(6)
O9E O 0.6489(3) 0.9177(4) 0.5581(6)
O6E O 0.6711(3) 1.1033(5) 0.3750(6)
O11A O 0.4481(3) 0.8906(4) -0.0242(5)
O7A O 0.4175(4) 1.0000 -0.2118(8)
Na1A Na 0.6369(5) 1.0000 0.0593(11)
Dy3A Dy 0.477173(19) 0.89570(3) -0.15881(4)
Dy4A Dy 0.42190(2) 0.76525(3) -0.03659(5)
H4A H 0.4229 0.9229 -0.0346
Dy2A Dy 0.36722(3) 1.0000 -0.41307(5)
O2A O 0.5300(4) 1.0000 -0.1588(8)
O13A O 0.5646(3) 0.8330(4) -0.1363(6)
O12A O 0.4853(3) 0.7705(4) -0.1058(6)
O10A O 0.3840(3) 0.8303(4) -0.2238(6)
O1A O 0.4495(3) 0.9241(4) -0.3435(6)
O14A O 0.3853(3) 0.6671(5) -0.1632(6)
O15A O 0.4164(3) 0.6706(5) 0.0705(7)
O16A O 0.3320(3) 0.7923(5) -0.0823(7)
O6A O 0.3289(3) 0.8967(5) -0.3750(6)
Dy1A_2 Dy 0.52255(3) 1.0000 -0.33997(6)
C1A C 0.5874(4) 0.8416(6) -0.1978(8)
S1A S 0.57992(13) 0.66477(19) -0.1808(3)
H5A H 0.4791 0.7365 -0.1529
C3A C 0.3380(4) 0.8419(7) -0.3115(9)
H1A H 0.4436 0.8847 -0.3814
S2A S 0.35845(12) 0.66337(19) -0.2864(3)
Na2A Na 0.3717(4) 0.5000 -0.1705(7)
O5A O 0.5721(3) 0.8881(5) -0.2731(6)
O14E O 0.6147(3) 0.3329(5) 0.1632(6)
O20E O 0.6567(4) 0.4116(5) 0.3227(8)
C2A C 0.6385(4) 0.7936(6) -0.1744(8)
O17A O 0.5289(4) 0.6996(6) -0.2665(7)
O18A O 0.5890(4) 0.5889(5) -0.2039(10)
C4A C 0.6385(4) 0.7172(7) -0.1687(9)
C6A C 0.2894(4) 0.7907(6) -0.3430(8)
O19A O 0.3927(3) 0.6987(6) -0.3278(7)
O20A O 0.3433(4) 0.5884(5) -0.3227(8)
C10A C 0.2939(4) 0.7133(6) -0.3349(9)
C5A C 0.6866(4) 0.8325(6) -0.1616(8)
C7A C 0.6877(5) 0.6776(7) -0.1479(9)
C9A C 0.2361(5) 0.8209(6) -0.3820(9)
C13A C 0.2454(5) 0.6688(7) -0.3661(9)
O16G O 0.1680(3) 0.7077(5) 0.0823(7)
H6A H 0.6859 0.8851 -0.1689
C8A C 0.7351(4) 0.7920(7) -0.1379(8)
C11A C 0.7356(4) 0.7162(6) -0.1323(9)
H7A H 0.6882 0.6247 -0.1445
C12A C 0.1879(4) 0.7788(6) -0.4130(9)
H9A H 0.2323 0.8736 -0.3878
H11A H 0.2488 0.6162 -0.3591
C15A C 0.1921(5) 0.7026(6) -0.4075(8)
Dy4G Dy 0.07810(2) 0.73475(3) 0.03659(5)
Na1C Na 0.1369(5) 0.5000 0.0593(11)
O9C O 0.8511(3) 0.5823(4) 0.4419(6)
H8A H 0.7686 0.8177 -0.1254
C14A C 0.7880(4) 0.6713(7) -0.1041(9)
H10A H 0.1522 0.8023 -0.4379
C16A C 0.1402(5) 0.6530(6) -0.4461(9)
Dy2C Dy 0.86722(3) 0.5000 0.58693(5)
O16F O 0.8320(3) 0.7077(5) -0.0823(7)
O24A O 0.7851(4) 0.6023(5) -0.1054(9)
O9B O 0.1489(3) 0.5823(4) -0.4419(6)
O25A O 0.0931(3) 0.6809(5) -0.4801(7)
Dy4F Dy 0.92190(2) 0.73475(3) -0.03659(5)
Na1B Na 0.8631(5) 0.5000 -0.0593(11)
Dy2B Dy 0.13278(3) 0.5000 -0.58693(5)
O11F O 0.9481(3) 0.6094(4) -0.0242(5)
O24D O 0.7851(4) 0.3977(5) -0.1054(9)
O11C O 0.9481(3) 0.3906(4) -0.0242(5)
O7C O 0.9175(4) 0.5000 -0.2118(8)
O2B O 0.9700(4) 0.5000 0.1588(8)
O26 O 0.7537(9) 1.0000 -0.0174(15)
O27 O 0.5423(13) 0.5000 -0.3381(14)
O28 O 0.7120(8) 0.5000 -0.2752(13)
O29 O 0.4525(6) 0.7071(8) -0.4282(12)
O30 O 0.5000 0.639(2) 0.0000
loop_
_geom_bond_atom_site_label_1
_geom_bond_atom_site_label_2
_geom_bond_site_symmetry_1
_geom_bond_site_symmetry_2
Dy1 O1 1_555 1_555
O1 Dy2 1_555 1_555
O2 Dy1 1_555 1_555
O3 Dy1 1_555 1_555
O4 Dy1 1_555 1_555
O5 Dy1 1_555 1_555
Dy2 O6 1_555 1_555
Dy3 O1 1_555 1_555
H1 O1 1_555 1_555
H2 O2 1_555 1_555
Na1 O2 1_555 1_555
C1 O5 1_555 1_555
O6 C3 1_555 1_555
O7 Dy2 1_555 1_555
O8 Dy2 1_555 1_555
O9 Dy2 1_555 1_555
O10 Dy3 1_555 1_555
O11 Dy3 1_555 1_555
O12 Dy3 1_555 1_555
O13 Dy3 1_555 1_555
C2 C1 1_555 1_555
C3 O10 1_555 1_555
H3 O7 1_555 1_555
Dy4 O10 1_555 1_555
H4 O11 1_555 1_555
H5 O12 1_555 1_555
C4 C2 1_555 1_555
C5 C2 1_555 1_555
C6 C3 1_555 1_555
O14 Dy4 1_555 1_555
O15 Dy4 1_555 1_555
O16 Dy4 1_555 1_555
S1 C4 1_555 1_555
C7 C4 1_555 1_555
H6 C5 1_555 1_555
C8 C5 1_555 1_555
C9 C6 1_555 1_555
C10 C6 1_555 1_555
S2 O14 1_555 1_555
Na2 O14 1_555 1_555
O17 S1 1_555 1_555
O18 S1 1_555 1_555
C11 C7 1_555 1_555
H7 C7 1_555 1_555
H8 C8 1_555 1_555
C12 C9 1_555 1_555
H9 C9 1_555 1_555
C13 C10 1_555 1_555
O19 S2 1_555 1_555
O20 S2 1_555 1_555
O21 Na2 1_555 1_555
O22 Na2 1_555 1_555
O23 Na2 1_555 1_555
C14 C11 1_555 1_555
H10 C12 1_555 1_555
C15 C12 1_555 1_555
H11 C13 1_555 1_555
O24 C14 1_555 1_555
C16 C15 1_555 1_555
O25 C16 1_555 1_555
O5E Dy1 1_555 1_555
O1E Dy1 1_555 1_555
O3D Dy1 1_555 1_555
Dy3E O2 1_555 1_555
Dy1A O3 1_555 1_555
O9E Dy2 1_555 1_555
O6E Dy2 1_555 1_555
O11A Dy3 1_555 1_555
O7A Na1 1_555 1_555
Na1A O7 1_555 1_555
Dy3A O11 1_555 1_555
Dy4A O12 1_555 1_555
H4A O11A 1_555 1_555
Dy2A O7A 1_555 1_555
O2A Na1A 1_555 1_555
O13A Dy4 1_555 1_555
O12A Dy4 1_555 1_555
O10A Dy3A 1_555 1_555
O1A Dy3A 1_555 1_555
O14A Dy4A 1_555 1_555
O15A S1 1_555 1_555
O16A Dy4A 1_555 1_555
O6A Dy2A 1_555 1_555
Dy1A_2 O2A 1_555 1_555
C1A O13A 1_555 1_555
S1A O15 1_555 1_555
H5A O12A 1_555 1_555
C3A O10A 1_555 1_555
H1A O1A 1_555 1_555
S2A O14A 1_555 1_555
Na2A O14A 1_555 1_555
O5A Dy1A_2 1_555 1_555
O14E Na2 1_555 1_555
O20E Na2 1_555 1_555
C2A C1A 1_555 1_555
O17A S1A 1_555 1_555
O18A S1A 1_555 1_555
C4A S1A 1_555 1_555
C6A C3A 1_555 1_555
O19A S2A 1_555 1_555
O20A S2A 1_555 1_555
C10A S2A 1_555 1_555
C5A C2A 1_555 1_555
C7A C4A 1_555 1_555
C9A C6A 1_555 1_555
C13A C10A 1_555 1_555
O16G C14 1_555 1_555
H6A C5A 1_555 1_555
C8A C5A 1_555 1_555
C11A C7A 1_555 1_555
H7A C7A 1_555 1_555
C12A C9A 1_555 1_555
H9A C9A 1_555 1_555
H11A C13A 1_555 1_555
C15A C13A 1_555 1_555
Dy4G O16G 1_555 1_555
Na1C O24 1_555 1_555
O9C C16 1_555 1_555
H8A C8A 1_555 1_555
C14A C11A 1_555 1_555
H10A C12A 1_555 1_555
C16A C15A 1_555 1_555
Dy2C O9C 1_555 1_555
O16F C14A 1_555 1_555
O24A C14A 1_555 1_555
O9B C16A 1_555 1_555
O25A C16A 1_555 1_555
Dy4F O16F 1_555 1_555
Na1B O24A 1_555 1_555
Dy2B O9B 1_555 1_555
O11F Dy4F 1_555 1_555
O24D Na1B 1_555 1_555
O11C Na1B 1_555 1_555
O7C Na1B 1_555 1_555
O2B Na1B 1_555 1_555
O2 Dy3 1_555 1_555
Dy2 O1E 1_555 1_555
Dy3 O7 1_555 1_555
Na1 O11A 1_555 1_555
C1 O13 1_555 1_555
O7 Dy3E 1_555 1_555
O11 Dy4 1_555 1_555
O11 Na1A 1_555 1_555
O12 Dy4 1_555 1_555
O13 Dy4A 1_555 1_555
C8 C11 1_555 1_555
C10 S2 1_555 1_555
Na2 O20 1_555 1_555
C13 C15 1_555 1_555
O1E Dy3E 1_555 1_555
O3D Dy1A 1_555 1_555
O11A Dy3A 1_555 1_555
O11A Dy4A 1_555 1_555
O7A Dy3A 1_555 1_555
Dy3A O2A 1_555 1_555
Dy3A O13A 1_555 1_555
Dy3A O12A 1_555 1_555
Dy4A O12A 1_555 1_555
Dy4A O10A 1_555 1_555
Dy4A O15A 1_555 1_555
Dy2A O1A 1_555 1_555
O1A Dy1A_2 1_555 1_555
O6A C3A 1_555 1_555
C1A O5A 1_555 1_555
Na2A O20A 1_555 1_555
C2A C4A 1_555 1_555
C6A C10A 1_555 1_555
C8A C11A 1_555 1_555
C12A C15A 1_555 1_555
Na1B O11F 1_555 1_555

#END
