
#######################################################################
#
#                 Cambridge Crystallographic Data Centre
#                                CCDC 
#
#######################################################################
#
# If this CIF has been generated from an entry in the Cambridge 
# Structural Database, then it will include bibliographic, chemical, 
# crystal, experimental, refinement or atomic coordinate data resulting 
# from the CCDC's data processing and validation procedures.
#
#######################################################################

data_CUFQUR
_symmetry_cell_setting           monoclinic
_symmetry_space_group_name_H-M   'C 2/c'
_symmetry_Int_Tables_number      15
_space_group_name_Hall           '-C 2yn'
loop_
_symmetry_equiv_pos_site_id
_symmetry_equiv_pos_as_xyz
1 x,y,z
2 -x,y,1/2-z
3 1/2+x,1/2+y,z
4 1/2-x,1/2+y,1/2-z
5 -x,-y,-z
6 x,-y,1/2+z
7 1/2-x,1/2-y,-z
8 1/2+x,1/2-y,1/2+z
_cell_length_a                   30.5301(7)
_cell_length_b                   15.9030(7)
_cell_length_c                   29.9686(10)
_cell_angle_alpha                90
_cell_angle_beta                 107.986(2)
_cell_angle_gamma                90
_cell_volume                     13839.3
loop_
_atom_site_label
_atom_site_type_symbol
_atom_site_fract_x
_atom_site_fract_y
_atom_site_fract_z
I1 I 0.26116(12) 0.7979(2) 1.01493(11)
O39 O 0.3459(8) 1.0446(18) 0.4940(8)
O40 O 0.0721(8) 0.8823(15) 0.7107(8)
H23 H 0.0731 0.9062 0.7409
H24 H 0.0411 0.9010 0.6931
O41 O 0.3017(9) 0.4735(17) 0.6854(9)
O42 O 0.2851(10) 0.4315(14) 0.6145(8)
O43 O 0.3267(10) 0.4720(16) 0.5784(7)
O44 O 0.3872(9) 0.4342(16) 0.7046(9)
O45 O 0.4825(9) 0.4519(17) 0.8691(9)
O46 O 0.1481(9) 0.726(2) 0.8778(8)
U1 U 0.22628(2) 0.73009(3) 0.77263(2)
U2 U 0.23849(2) 0.67059(3) 0.57186(2)
U3 U 0.42283(2) 0.66355(3) 0.76361(2)
U4 U 0.47956(2) 0.97535(3) 0.57560(2)
O1 O 0.2043(3) 0.6428(7) 0.7954(3)
O2 O 0.2478(3) 0.8183(5) 0.7514(3)
O3 O 0.2325(2) 0.7507(5) 0.6097(2)
O4 O 0.2452(3) 0.5907(5) 0.5340(3)
O5 O 0.3932(3) 0.7550(5) 0.7701(3)
O6 O 0.4531(3) 0.5712(5) 0.7576(3)
O7 O 0.4468(3) 1.0600(5) 0.5428(3)
O8 O 0.5127(3) 0.8930(6) 0.6081(3)
O9 O 0.1461(3) 0.7736(6) 0.7207(3)
O10 O 0.1856(3) 0.6845(5) 0.6931(3)
O11 O 0.0363(3) 0.6030(5) 0.4938(2)
O12 O 0.0433(2) 0.5220(5) 0.5558(2)
O13 O 0.1662(3) 0.6094(5) 0.5740(3)
O14 O 0.2276(2) 0.5681(5) 0.6302(3)
O15 O 0.0490(3) 0.6211(6) 0.7071(3)
O16 O 0.0109(3) 0.5760(6) 0.6353(3)
O17 O 0.2931(2) 0.7537(5) 0.5525(3)
O18 O 0.3155(2) 0.7593(6) 0.4886(3)
O19 O 0.4468(2) 0.7326(5) 0.7060(2)
O20 O 0.5094(3) 0.7163(6) 0.6852(3)
O21 O 0.3102(2) 0.6231(5) 0.6252(3)
O22 O 0.3675(2) 0.6210(5) 0.6905(2)
O23 O 0.4331(3) 0.9783(6) 0.6292(3)
O24 O 0.4100(3) 0.8934(5) 0.5703(3)
O25 O 0.4147(2) 0.6110(6) 0.8375(2)
O26 O 0.3596(2) 0.5784(5) 0.7733(2)
O27 O 0.3114(6) 0.4884(9) 0.9852(5)
O28 O 0.3543(6) 0.5992(11) 0.9889(6)
O29 O 0.3038(3) 0.6887(6) 0.8162(3)
O30 O 0.2741(3) 0.7727(6) 0.8558(3)
O31 O 0.4742(5) 0.5778(10) 1.0024(6)
O32 O 0.4463(6) 0.5212(11) 0.9397(7)
O33 O 0.2685(3) 0.6372(6) 0.7309(3)
H1 H 0.2513 0.6025 0.7050
H2 H 0.2915 0.6119 0.7489
O34 O 0.1864(4) 0.8204(8) 0.8116(4)
H3 H 0.2020 0.8733 0.8208
H4 H 0.1835 0.8110 0.8407
C1 C 0.0980(3) 0.6546(7) 0.6148(4)
C2 C 0.1131(3) 0.7294(7) 0.6400(4)
C3 C 0.0989(4) 0.8074(8) 0.6213(5)
H5 H 0.1075 0.8565 0.6400
C4 C 0.0717(5) 0.8131(9) 0.5745(5)
H6 H 0.0623 0.8669 0.5613
C5 C 0.0584(4) 0.7435(8) 0.5476(4)
H7 H 0.0421 0.7488 0.5152
C6 C 0.0689(3) 0.6637(7) 0.5680(3)
C7 C 0.1491(4) 0.7274(7) 0.6870(4)
C8 C 0.0492(3) 0.5908(7) 0.5377(4)
C9 C 0.1127(3) 0.5730(7) 0.6386(3)
C10 C 0.1541(4) 0.5351(7) 0.6384(3)
C11 C 0.1705(4) 0.4633(8) 0.6671(4)
H8 H 0.1991 0.4388 0.6678
C12 C 0.1456(4) 0.4289(8) 0.6936(4)
H9 H 0.1558 0.3790 0.7112
C13 C 0.1057(4) 0.4681(9) 0.6943(4)
H10 H 0.0886 0.4456 0.7132
C14 C 0.0896(4) 0.5407(8) 0.6675(3)
C15 C 0.1834(3) 0.5716(7) 0.6130(3)
C16 C 0.0465(4) 0.5822(7) 0.6700(4)
C17 C 0.3933(3) 0.7330(7) 0.6050(3)
C18 C 0.3710(3) 0.7125(7) 0.5580(4)
C19 C 0.3925(4) 0.6639(8) 0.5325(4)
H11 H 0.3769 0.6508 0.5006
C20 C 0.4363(5) 0.6347(9) 0.5535(4)
H12 H 0.4509 0.6013 0.5360
C21 C 0.4589(4) 0.6530(8) 0.5988(4)
H13 H 0.4890 0.6315 0.6130
C22 C 0.4381(4) 0.7034(8) 0.6250(4)
C23 C 0.3238(3) 0.7440(7) 0.5315(4)
C24 C 0.4663(3) 0.7188(7) 0.6757(4)
C25 C 0.3709(3) 0.7903(7) 0.6316(3)
C26 C 0.3439(3) 0.7559(7) 0.6560(3)
C27 C 0.3221(4) 0.8054(9) 0.6816(4)
H14 H 0.3042 0.7801 0.6989
C28 C 0.3273(4) 0.8935(7) 0.6812(4)
H15 H 0.3117 0.9287 0.6969
C29 C 0.3549(4) 0.9276(8) 0.6580(4)
H16 H 0.3592 0.9868 0.6587
C30 C 0.3775(3) 0.8770(7) 0.6330(3)
C31 C 0.3397(3) 0.6615(7) 0.6576(3)
C32 C 0.4085(3) 0.9179(8) 0.6098(4)
C33 C 0.3504(4) 0.5660(7) 0.8900(4)
C34 C 0.3489(3) 0.5346(7) 0.8456(4)
C35 C 0.3225(4) 0.4667(7) 0.8261(4)
H17 H 0.3211 0.4487 0.7954
C36 C 0.2979(4) 0.4238(8) 0.8508(4)
H18 H 0.2799 0.3761 0.8374
C37 C 0.2998(5) 0.4514(9) 0.8954(5)
H19 H 0.2838 0.4213 0.9129
C38 C 0.3247(6) 0.5221(10) 0.9144(5)
C39 C 0.3758(4) 0.5773(7) 0.8183(4)
C40 C 0.3259(7) 0.5472(11) 0.9635(4)
C41 C 0.3741(3) 0.6475(7) 0.9088(3)
C42 C 0.3513(4) 0.7235(7) 0.8944(4)
C43 C 0.3693(5) 0.7979(8) 0.9143(4)
H20 H 0.3525 0.8484 0.9045
C44 C 0.4124(5) 0.8012(10) 0.9492(5)
H21 H 0.4255 0.8534 0.9621
C45 C 0.4352(5) 0.7269(9) 0.9643(4)
H22 H 0.4639 0.7276 0.9885
C46 C 0.4166(4) 0.6511(8) 0.9446(4)
C47 C 0.3065(4) 0.7275(8) 0.8544(4)
C48 C 0.4432(7) 0.5822(14) 0.9647(7)
O35 O 0.0120(8) 0.7788(14) 0.8016(8)
O36 O -0.0704(9) 0.7649(15) 0.7421(10)
O37 O -0.0447(6) 0.5994(13) 0.7015(6)
Dy1 Dy -0.01467(4) 0.66536(7) 0.73986(4)
O38 O -0.0314(6) 0.5243(11) 0.7220(6)
U2F U 0.26151(2) 0.82941(3) 0.42814(2)
U3A U 0.57717(2) 0.66355(3) 0.73639(2)
U4B U -0.02044(2) 0.47535(3) 0.57560(2)
U4F U 0.02044(2) 0.52465(3) 0.42440(2)
O11F O 0.4637(3) 0.8970(5) 0.5062(2)
O12B O 0.5433(2) 1.0220(5) 0.5558(2)
O15A O -0.0490(3) 0.6211(6) 0.7929(3)
O16B O 0.5109(3) 1.0760(6) 0.6353(3)
O18F O 0.1845(2) 0.7407(6) 0.5114(3)
O20A O 0.4906(3) 0.7163(6) 0.8148(3)
O35A O -0.0120(8) 0.7788(14) 0.6984(8)
O37A O 0.0447(6) 0.5994(13) 0.7985(6)
Dy1A Dy 0.01467(4) 0.66536(7) 0.76014(4)
O38A O 0.0314(6) 0.5243(11) 0.7780(6)
loop_
_geom_bond_atom_site_label_1
_geom_bond_atom_site_label_2
_geom_bond_site_symmetry_1
_geom_bond_site_symmetry_2
U1 O1 1_555 1_555
U2 O3 1_555 1_555
U3 O5 1_555 1_555
U4 O7 1_555 1_555
O2 U1 1_555 1_555
O4 U2 1_555 1_555
O6 U3 1_555 1_555
O8 U4 1_555 1_555
O9 U1 1_555 1_555
O10 U1 1_555 1_555
O11 C8 1_555 1_555
O12 C8 1_555 1_555
O13 U2 1_555 1_555
O14 U2 1_555 1_555
O15 C16 1_555 1_555
O16 C16 1_555 1_555
O17 U2 1_555 1_555
O18 C23 1_555 1_555
O19 U3 1_555 1_555
O20 C24 1_555 1_555
O21 U2 1_555 1_555
O22 U3 1_555 1_555
O23 U4 1_555 1_555
O24 U4 1_555 1_555
O25 U3 1_555 1_555
O26 U3 1_555 1_555
O27 C40 1_555 1_555
O28 C40 1_555 1_555
O29 U1 1_555 1_555
O30 U1 1_555 1_555
O31 C48 1_555 1_555
O32 C48 1_555 1_555
O33 U1 1_555 1_555
H1 O33 1_555 1_555
H2 O33 1_555 1_555
O34 U1 1_555 1_555
H3 O34 1_555 1_555
H4 O34 1_555 1_555
C1 C2 1_555 1_555
C2 C3 1_555 1_555
C3 H5 1_555 1_555
C4 C3 1_555 1_555
H6 C4 1_555 1_555
C5 C4 1_555 1_555
H7 C5 1_555 1_555
C6 C1 1_555 1_555
C7 O9 1_555 1_555
C8 C6 1_555 1_555
C9 C1 1_555 1_555
C10 C9 1_555 1_555
C11 C10 1_555 1_555
H8 C11 1_555 1_555
C12 C11 1_555 1_555
H9 C12 1_555 1_555
C13 C12 1_555 1_555
H10 C13 1_555 1_555
C14 C9 1_555 1_555
C15 O13 1_555 1_555
C16 C14 1_555 1_555
C17 C18 1_555 1_555
C18 C19 1_555 1_555
C19 H11 1_555 1_555
C20 C19 1_555 1_555
H12 C20 1_555 1_555
C21 C20 1_555 1_555
H13 C21 1_555 1_555
C22 C17 1_555 1_555
C23 O17 1_555 1_555
C24 O19 1_555 1_555
C25 C17 1_555 1_555
C26 C25 1_555 1_555
C27 C26 1_555 1_555
H14 C27 1_555 1_555
C28 C27 1_555 1_555
H15 C28 1_555 1_555
C29 C28 1_555 1_555
H16 C29 1_555 1_555
C30 C25 1_555 1_555
C31 O21 1_555 1_555
C32 O23 1_555 1_555
C33 C34 1_555 1_555
C34 C35 1_555 1_555
C35 H17 1_555 1_555
C36 C35 1_555 1_555
H18 C36 1_555 1_555
C37 C36 1_555 1_555
H19 C37 1_555 1_555
C38 C33 1_555 1_555
C39 O25 1_555 1_555
C40 C38 1_555 1_555
C41 C33 1_555 1_555
C42 C41 1_555 1_555
C43 C42 1_555 1_555
H20 C43 1_555 1_555
C44 C43 1_555 1_555
H21 C44 1_555 1_555
C45 C44 1_555 1_555
H22 C45 1_555 1_555
C46 C41 1_555 1_555
C47 O29 1_555 1_555
C48 C46 1_555 1_555
O35 Dy1 1_555 1_555
O36 Dy1 1_555 1_555
O37 Dy1 1_555 1_555
Dy1 O15 1_555 1_555
O38 O37 1_555 1_555
O40 H23 1_555 1_555
H24 O40 1_555 1_555
U2F O18 1_555 1_555
U3A O20 1_555 1_555
U4B O12 1_555 1_555
U4F O11 1_555 1_555
O11F U4 1_555 1_555
O12B U4 1_555 1_555
O15A Dy1 1_555 1_555
O16B U4 1_555 1_555
O18F U2 1_555 1_555
O20A U3 1_555 1_555
O35A Dy1 1_555 1_555
O37A Dy1 1_555 1_555
Dy1A O15 1_555 1_555
O38A Dy1 1_555 1_555
O10 C7 1_555 1_555
O14 C15 1_555 1_555
O16 U4B 1_555 1_555
O22 C31 1_555 1_555
O24 C32 1_555 1_555
O26 C39 1_555 1_555
O30 C47 1_555 1_555
C2 C7 1_555 1_555
C5 C6 1_555 1_555
C10 C15 1_555 1_555
C13 C14 1_555 1_555
C18 C23 1_555 1_555
C21 C22 1_555 1_555
C22 C24 1_555 1_555
C26 C31 1_555 1_555
C29 C30 1_555 1_555
C30 C32 1_555 1_555
C34 C39 1_555 1_555
C37 C38 1_555 1_555
C42 C47 1_555 1_555
C45 C46 1_555 1_555
O35 Dy1A 1_555 1_555
O37 Dy1A 1_555 1_555
Dy1 O38 1_555 1_555
Dy1 Dy1A 1_555 1_555
O38 Dy1A 1_555 1_555
O15A Dy1A 1_555 1_555
O35A Dy1A 1_555 1_555
O37A Dy1A 1_555 1_555
O37A O38A 1_555 1_555
Dy1A O38A 1_555 1_555

#END
