
#######################################################################
#
#                 Cambridge Crystallographic Data Centre
#                                CCDC 
#
#######################################################################
#
# If this CIF has been generated from an entry in the Cambridge 
# Structural Database, then it will include bibliographic, chemical, 
# crystal, experimental, refinement or atomic coordinate data resulting 
# from the CCDC's data processing and validation procedures.
#
#######################################################################

data_CUNRAG
_symmetry_cell_setting           monoclinic
_symmetry_space_group_name_H-M   'P 21/n'
_symmetry_Int_Tables_number      14
_space_group_name_Hall           '-P 2yn'
loop_
_symmetry_equiv_pos_site_id
_symmetry_equiv_pos_as_xyz
1 x,y,z
2 1/2-x,1/2+y,1/2-z
3 -x,-y,-z
4 1/2+x,1/2-y,1/2+z
_cell_length_a                   6.21517(5)
_cell_length_b                   18.83913(15)
_cell_length_c                   16.65678(13)
_cell_angle_alpha                90
_cell_angle_beta                 92.2293(7)
_cell_angle_gamma                90
_cell_volume                     1948.84
loop_
_atom_site_label
_atom_site_type_symbol
_atom_site_fract_x
_atom_site_fract_y
_atom_site_fract_z
C3 C 0.7421(11) 0.6690(3) 0.2265(3)
H5 H 0.8940 0.6705 0.2153
H6 H 0.7217 0.6954 0.2757
C4 C 0.6148(10) 0.7034(3) 0.1589(3)
H7 H 0.4633 0.6928 0.1640
H8 H 0.6591 0.6838 0.1082
C5 C 0.6460(10) 0.7833(3) 0.1581(3)
H9 H 0.5596 0.8029 0.1137
H10 H 0.5914 0.8027 0.2073
C6 C 0.8761(10) 0.8081(3) 0.1506(3)
H11 H 0.9592 0.7961 0.1992
H12 H 0.9399 0.7839 0.1060
N1 N 0.6759(9) 0.5942(3) 0.2382(3)
H13 H 0.7542 0.5753 0.2787
H14 H 0.5372 0.5927 0.2494
H15 H 0.6968 0.5697 0.1935
N2 N 0.8846(8) 0.8866(2) 0.1373(2)
H16 H 1.0209 0.9001 0.1330
H17 H 0.8100 0.8975 0.0923
H18 H 0.8280 0.9089 0.1786
Ga1 Ga 0.76728(7) 0.44126(2) 0.59771(3)
O1 O 0.7577(4) 0.49210(15) 0.49951(16)
O2 O 0.7735(5) 0.51849(15) 0.67576(17)
O3 O 0.4603(4) 0.44167(14) 0.60533(16)
O4 O 1.0742(4) 0.43504(14) 0.60813(16)
O5 O 0.7632(4) 0.36175(14) 0.68426(16)
O6 O 0.7589(4) 0.35303(14) 0.52556(16)
P1 P 0.74114(14) 0.55873(4) 0.44932(5)
P2 P 0.83625(16) 0.53572(5) 0.76108(6)
O7 O 0.7391(5) 0.62326(15) 0.50768(17)
O8 O 0.6983(4) 0.59471(15) 0.79144(17)
O9 O 0.8157(7) 0.46763(17) 0.8122(2)
O10 O 1.0791(5) 0.55873(17) 0.7660(2)
H1 H 0.7302 0.6601 0.4816
Ga2 Ga 0.71357(7) 0.65813(2) 0.88290(3)
H2 H 0.8497 0.4765 0.8592
H3 H 1.1147 0.5683 0.8127
O11 O 0.4085(5) 0.6581(2) 0.8789(2)
O12 O 0.7089(7) 0.58321(19) 0.9655(2)
O13 O 0.7234(5) 0.74359(14) 0.80784(16)
O14 O 0.7281(4) 0.73486(14) 0.96682(16)
O15 O 1.0257(5) 0.65072(15) 0.88353(18)
P3 P 0.22093(15) 0.69046(5) 0.92124(6)
P4 P 0.8129(4) 0.53097(11) 1.01756(12)
C1 C 0.7312(6) 0.8008(2) 0.8449(2)
C2 C 0.7337(6) 0.7959(2) 0.9375(2)
O16 O 0.2334(7) 0.6719(2) 1.0128(2)
O17 O 0.2079(6) 0.76901(17) 0.9139(2)
O18 O 0.8906(12) 0.4678(3) 0.9684(4)
O19 O 0.9923(11) 0.5687(4) 1.0651(4)
O20 O 0.6390(10) 0.5064(3) 1.0896(3)
H4 H 0.2407 0.6288 1.0185
P1B P 0.25886(14) 0.44127(4) 0.55068(5)
O3B O 0.5397(4) 0.55833(14) 0.39467(16)
O4B O 0.9258(4) 0.56496(14) 0.39187(16)
O1B O 0.2423(4) 0.50790(15) 0.50049(16)
O7B O 0.2609(5) 0.37674(15) 0.49232(17)
O4_2 O 0.0742(4) 0.43504(14) 0.60813(16)
Ga1B Ga 0.23272(7) 0.55874(2) 0.40229(3)
Ga1B_2 Ga 1.23272(7) 0.55874(2) 0.40229(3)
H1B H 0.2698 0.3399 0.5184
Ga1_2 Ga -0.23272(7) 0.44126(2) 0.59771(3)
O2B O 0.2265(5) 0.48151(15) 0.32424(17)
O4B_2 O -0.0742(4) 0.56496(14) 0.39187(16)
O5B O 0.2368(4) 0.63825(14) 0.31574(16)
O6B O 0.2411(4) 0.64697(14) 0.47444(16)
P2B P 0.16375(16) 0.46428(5) 0.23892(6)
O8B O 0.3017(4) 0.40529(15) 0.20856(17)
O9B O 0.1843(7) 0.53237(17) 0.1878(2)
O10B O -0.0791(5) 0.44127(17) 0.2340(2)
O15_2 O 0.0257(5) 0.65072(15) 0.88353(18)
O18B O 1.1094(12) 0.5322(3) 1.0316(4)
O5A O 0.7368(4) 0.86175(14) 0.81574(16)
O6A O 0.7411(4) 0.85303(14) 0.97444(16)
Ga2B Ga 0.28643(7) 0.34187(2) 0.11710(3)
H2B H 0.1503 0.5235 0.1408
H3B H -0.1147 0.4317 0.1873
Ga2B_2 Ga 1.28643(7) 0.34187(2) 0.11710(3)
Ga2_2 Ga -0.28643(7) 0.65813(2) 0.88290(3)
P4B P 1.1871(4) 0.46903(11) 0.98244(12)
O19B O 1.0077(11) 0.4313(4) 0.9349(4)
Ga1A Ga 0.73272(7) 0.94126(2) 0.90229(3)
O11B O 0.5915(5) 0.3419(2) 0.1211(2)
O13B O 0.2766(5) 0.25641(14) 0.19216(16)
O14B O 0.2719(4) 0.26514(14) 0.03318(16)
O15B O -0.0257(5) 0.34928(15) 0.11647(18)
O12B O 0.2911(7) 0.41679(19) 0.0345(2)
O15B_2 O 0.9743(5) 0.34928(15) 0.11647(18)
O12B_2 O 1.2911(7) 0.41679(19) 1.0345(2)
O20B O 1.3610(10) 0.4936(3) 0.9104(3)
P3B P 0.77907(15) 0.30954(5) 0.07876(6)
C1B C 0.2688(6) 0.1992(2) 0.1551(2)
C2B C 0.2663(6) 0.2041(2) 0.0625(2)
Ga2B_3 Ga 1.28643(7) 0.34187(2) 1.11710(3)
O16B O 0.7666(7) 0.3281(2) -0.0128(2)
O17B O 0.7921(6) 0.23099(17) 0.0861(2)
O5C O 0.2632(4) 0.13825(14) 0.18426(16)
O6C O 0.2589(4) 0.14697(14) 0.02556(16)
H4B H 0.7593 0.3712 -0.0185
Ga1C Ga 0.26728(7) 0.05874(2) 0.09771(3)
loop_
_geom_bond_atom_site_label_1
_geom_bond_atom_site_label_2
_geom_bond_site_symmetry_1
_geom_bond_site_symmetry_2
Ga1 O1 1_555 1_555
O1 P1 1_555 1_555
O2 Ga1 1_555 1_555
O3 Ga1 1_555 1_555
O4 Ga1 1_555 1_555
O5 Ga1 1_555 1_555
O6 Ga1 1_555 1_555
P1 O7 1_555 1_555
P2 O2 1_555 1_555
O7 H1 1_555 1_555
O8 P2 1_555 1_555
O9 P2 1_555 1_555
O10 P2 1_555 1_555
Ga2 O8 1_555 1_555
H2 O9 1_555 1_555
H3 O10 1_555 1_555
O11 Ga2 1_555 1_555
O12 Ga2 1_555 1_555
O13 Ga2 1_555 1_555
O14 Ga2 1_555 1_555
O15 Ga2 1_555 1_555
P3 O11 1_555 1_555
P4 O12 1_555 1_555
C1 O13 1_555 1_555
C2 O14 1_555 1_555
O16 P3 1_555 1_555
O17 P3 1_555 1_555
O18 P4 1_555 1_555
O19 P4 1_555 1_555
O20 P4 1_555 1_555
H4 O16 1_555 1_555
C3 H5 1_555 1_555
H6 C3 1_555 1_555
C4 C3 1_555 1_555
H7 C4 1_555 1_555
H8 C4 1_555 1_555
C5 C4 1_555 1_555
H9 C5 1_555 1_555
H10 C5 1_555 1_555
C6 C5 1_555 1_555
H11 C6 1_555 1_555
H12 C6 1_555 1_555
N1 C3 1_555 1_555
H13 N1 1_555 1_555
H14 N1 1_555 1_555
H15 N1 1_555 1_555
N2 C6 1_555 1_555
H16 N2 1_555 1_555
H17 N2 1_555 1_555
H18 N2 1_555 1_555
P1B O3 1_555 1_555
O3B P1 1_555 1_555
O4B P1 1_555 1_555
O1B P1B 1_555 1_555
O7B P1B 1_555 1_555
O4_2 P1B 1_555 1_555
Ga1B O3B 1_555 1_555
Ga1B_2 O4B 1_555 1_555
H1B O7B 1_555 1_555
Ga1_2 O4_2 1_555 1_555
O2B Ga1B 1_555 1_555
O4B_2 Ga1B 1_555 1_555
O5B Ga1B 1_555 1_555
O6B Ga1B 1_555 1_555
P2B O2B 1_555 1_555
O8B P2B 1_555 1_555
O9B P2B 1_555 1_555
O10B P2B 1_555 1_555
O15_2 P3 1_555 1_555
O18B P4 1_555 1_555
O5A C1 1_555 1_555
O6A C2 1_555 1_555
Ga2B O8B 1_555 1_555
H2B O9B 1_555 1_555
H3B O10B 1_555 1_555
Ga2B_2 O15B_2 1_555 1_555
Ga2_2 O15_2 1_555 1_555
P4B O18 1_555 1_555
O19B O18 1_555 1_555
Ga1A O5A 1_555 1_555
O11B Ga2B 1_555 1_555
O13B Ga2B 1_555 1_555
O14B Ga2B 1_555 1_555
O15B Ga2B 1_555 1_555
O12B Ga2B 1_555 1_555
O15B_2 P3B 1_555 1_555
O12B_2 P4B 1_555 1_555
O20B P4B 1_555 1_555
P3B O11B 1_555 1_555
C1B O13B 1_555 1_555
C2B O14B 1_555 1_555
Ga2B_3 O12B_2 1_555 1_555
O16B P3B 1_555 1_555
O17B P3B 1_555 1_555
O5C C1B 1_555 1_555
O6C C2B 1_555 1_555
H4B O16B 1_555 1_555
Ga1C O5C 1_555 1_555
C1 C2 1_555 1_555
O19 O18B 1_555 1_555
O1B Ga1B 1_555 1_555
O18B P4B 1_555 1_555
O6A Ga1A 1_555 1_555
P4B O19B 1_555 1_555
C1B C2B 1_555 1_555
O6C Ga1C 1_555 1_555

#END
