
#######################################################################
#
#                 Cambridge Crystallographic Data Centre
#                                CCDC 
#
#######################################################################
#
# If this CIF has been generated from an entry in the Cambridge 
# Structural Database, then it will include bibliographic, chemical, 
# crystal, experimental, refinement or atomic coordinate data resulting 
# from the CCDC's data processing and validation procedures.
#
#######################################################################

data_CUQKOQ
_symmetry_cell_setting           orthorhombic
_symmetry_space_group_name_H-M   'P 21 21 21'
_symmetry_Int_Tables_number      19
_space_group_name_Hall           'P 2ac 2ab'
loop_
_symmetry_equiv_pos_site_id
_symmetry_equiv_pos_as_xyz
1 x,y,z
2 1/2-x,-y,1/2+z
3 -x,1/2+y,1/2-z
4 1/2+x,1/2-y,-z
_cell_length_a                   9.7669(5)
_cell_length_b                   19.1321(10)
_cell_length_c                   19.1390(10)
_cell_angle_alpha                90
_cell_angle_beta                 90
_cell_angle_gamma                90
_cell_volume                     3576.34
loop_
_atom_site_label
_atom_site_type_symbol
_atom_site_fract_x
_atom_site_fract_y
_atom_site_fract_z
U1 U -0.01511(3) 0.23478(2) 1.24913(3)
U2 U 0.28929(3) 0.00314(2) 0.74185(2)
P1 P 0.0725(3) 0.10782(16) 1.11375(15)
P2 P 0.3766(3) 0.12444(16) 0.87158(15)
P3 P 0.4131(4) 0.12749(17) 0.61974(16)
P4 P 0.1117(4) 0.10901(17) 0.37779(16)
O1 O -0.0121(8) 0.0511(4) 1.0789(4)
O2 O 0.1919(9) 0.0773(4) 1.1544(4)
O3 O -0.0151(9) 0.1555(4) 1.1595(4)
O4 O 0.4557(9) 0.1796(4) 0.8323(4)
O5 O 0.4730(8) 0.0731(4) 0.9061(4)
H1 H 0.4440 0.0332 0.9006
O6 O 0.2696(9) 0.0896(4) 0.8238(4)
O7 O 0.4818(11) 0.1814(4) 0.6656(4)
O8 O 0.3016(10) 0.0861(4) 0.6557(4)
O9 O 0.5244(9) 0.0796(4) 0.5900(4)
H2 H 0.5040 0.0387 0.5974
O10 O 0.2188(10) 0.0772(4) 0.3303(4)
O11 O 0.0124(10) 0.1552(4) 0.3381(4)
O12 O 0.0382(8) 0.0534(4) 0.4202(4)
O13 O -0.1944(6) 0.2250(3) 1.2559(4)
O14 O 0.1651(6) 0.2428(3) 1.2432(5)
O15 O 0.1081(5) 0.0009(3) 0.7343(3)
O16 O 0.4700(5) 0.0056(3) 0.7483(3)
C1 C 0.1474(11) 0.1609(5) 1.0459(5)
C2 C 0.2168(12) 0.1285(6) 0.9911(5)
H3 H 0.2193 0.0799 0.9887
C3 C 0.2830(12) 0.1682(5) 0.9395(5)
C4 C 0.2758(13) 0.2395(6) 0.9437(6)
H4 H 0.3184 0.2665 0.9096
C5 C 0.2061(15) 0.2729(6) 0.9980(5)
H5 H 0.2015 0.3214 0.9998
C6 C 0.1437(12) 0.2324(6) 1.0495(6)
H6 H 0.0992 0.2542 1.0866
C7 C 0.3343(11) 0.1702(5) 0.5462(5)
C8 C 0.2623(10) 0.1319(7) 0.4982(4)
H7 H 0.2541 0.0839 0.5047
C9 C 0.2015(12) 0.1622(6) 0.4408(5)
C10 C 0.2152(12) 0.2356(6) 0.4324(6)
H8 H 0.1761 0.2576 0.3939
C11 C 0.2851(14) 0.2738(6) 0.4802(6)
H9 H 0.2933 0.3219 0.4741
C12 C 0.3444(12) 0.2427(5) 0.5378(6)
H10 H 0.3906 0.2696 0.5707
U1_2 U -0.01511(3) 0.23478(2) 0.24913(3)
U1C U 0.48489(3) 0.26522(2) 0.75087(3)
U2A U 0.21071(3) -0.00314(2) 0.24185(2)
U2A_2 U 0.21071(3) -0.00314(2) 1.24185(2)
O2A O 0.3081(9) -0.0773(4) 0.6544(4)
O4C O -0.0443(9) 0.3204(4) 1.1677(4)
O7C O -0.0182(11) 0.3186(4) 1.3344(4)
O10A O 0.2812(10) -0.0772(4) 0.8303(4)
O11_2 O 0.0124(10) 0.1552(4) 1.3381(4)
N1 N 0.9519(14) 0.8839(7) 0.6464(7)
N2 N 0.8905(16) 0.9691(9) 0.5687(8)
H11 H 0.8918 1.0021 0.5382
C13 C 0.9954(17) 0.9276(8) 0.5937(8)
H12 H 1.0847 0.9290 0.5770
C14 C 0.7847(16) 0.9426(8) 0.6065(8)
H13 H 0.6939 0.9559 0.6006
C15 C 0.8267(17) 0.8953(9) 0.6528(9)
H14 H 0.7703 0.8736 0.6854
C16 C 1.0314(19) 0.8316(10) 0.6855(10)
H15 H 0.9768 0.7904 0.6923
H16 H 1.0571 0.8505 0.7301
H17 H 1.1124 0.8197 0.6596
N3 N 0.9179(15) 0.1341(7) 0.7298(9)
N4 N 0.8543(16) 0.0891(9) 0.8362(9)
C17 C 0.952(2) 0.1218(9) 0.7981(11)
H18 H 1.0359 0.1348 0.8168
C18 C 0.788(2) 0.1082(9) 0.7198(11)
H19 H 0.7361 0.1081 0.6790
C19 C 0.753(2) 0.0829(10) 0.7833(11)
H20 H 0.6685 0.0625 0.7918
C20 C 0.995(2) 0.1640(12) 0.6744(12)
H21 H 1.0880 0.1706 0.6892
H22 H 0.9561 0.2083 0.6617
H23 H 0.9931 0.1333 0.6348
C21 C 0.863(2) 0.0554(12) 0.9026(11)
H24 H 0.7715 0.0487 0.9206
H25 H 0.9112 0.0862 0.9346
C22 C 0.932(2) -0.0112(12) 0.9021(11)
H26 H 1.0185 -0.0062 0.8776
H27 H 0.9524 -0.0244 0.9499
C23 C 0.859(3) -0.0633(13) 0.8716(13)
H28 H 0.8448 -0.0520 0.8227
H29 H 0.7698 -0.0662 0.8937
C24 C 0.930(3) -0.1345(11) 0.8769(11)
H30 H 0.9401 -0.1472 0.9252
H31 H 1.0192 -0.1317 0.8556
H32 H 0.8766 -0.1692 0.8533
loop_
_geom_bond_atom_site_label_1
_geom_bond_atom_site_label_2
_geom_bond_site_symmetry_1
_geom_bond_site_symmetry_2
U1 O3 1_555 1_555
U2 O6 1_555 1_555
P1 O1 1_555 1_555
P2 O4 1_555 1_555
P3 O7 1_555 1_555
P4 O10 1_555 1_555
O2 P1 1_555 1_555
O3 P1 1_555 1_555
O4 U1C 1_555 1_555
O5 P2 1_555 1_555
H1 O5 1_555 1_555
O6 P2 1_555 1_555
O7 U1C 1_555 1_555
O8 U2 1_555 1_555
O9 P3 1_555 1_555
H2 O9 1_555 1_555
O10 U2A 1_555 1_555
O11 P4 1_555 1_555
O12 P4 1_555 1_555
O13 U1 1_555 1_555
O14 U1 1_555 1_555
O15 U2 1_555 1_555
O16 U2 1_555 1_555
C1 P1 1_555 1_555
C2 C1 1_555 1_555
H3 C2 1_555 1_555
C3 P2 1_555 1_555
C4 C3 1_555 1_555
H4 C4 1_555 1_555
C5 C4 1_555 1_555
H5 C5 1_555 1_555
C6 C1 1_555 1_555
H6 C6 1_555 1_555
C7 P3 1_555 1_555
C8 C7 1_555 1_555
H7 C8 1_555 1_555
C9 P4 1_555 1_555
C10 C9 1_555 1_555
H8 C10 1_555 1_555
C11 C10 1_555 1_555
H9 C11 1_555 1_555
C12 C7 1_555 1_555
H10 C12 1_555 1_555
N1 C13 1_555 1_555
N2 H11 1_555 1_555
C13 N2 1_555 1_555
H12 C13 1_555 1_555
C14 N2 1_555 1_555
H13 C14 1_555 1_555
C15 N1 1_555 1_555
H14 C15 1_555 1_555
C16 N1 1_555 1_555
H15 C16 1_555 1_555
H16 C16 1_555 1_555
H17 C16 1_555 1_555
N3 C17 1_555 1_555
N4 C17 1_555 1_555
C17 H18 1_555 1_555
C18 N3 1_555 1_555
H19 C18 1_555 1_555
C19 N4 1_555 1_555
H20 C19 1_555 1_555
C20 N3 1_555 1_555
H21 C20 1_555 1_555
H22 C20 1_555 1_555
H23 C20 1_555 1_555
C21 N4 1_555 1_555
H24 C21 1_555 1_555
H25 C21 1_555 1_555
C22 C21 1_555 1_555
H26 C22 1_555 1_555
H27 C22 1_555 1_555
C23 C22 1_555 1_555
H28 C23 1_555 1_555
H29 C23 1_555 1_555
C24 C23 1_555 1_555
H30 C24 1_555 1_555
H31 C24 1_555 1_555
H32 C24 1_555 1_555
U1_2 O11 1_555 1_555
U2A_2 O2 1_555 1_555
O2A U2 1_555 1_555
O4C U1 1_555 1_555
O7C U1 1_555 1_555
O10A U2 1_555 1_555
O11_2 U1 1_555 1_555
P3 O8 1_555 1_555
C2 C3 1_555 1_555
C5 C6 1_555 1_555
C8 C9 1_555 1_555
C11 C12 1_555 1_555
C14 C15 1_555 1_555
C18 C19 1_555 1_555

#END
