
#######################################################################
#
#                 Cambridge Crystallographic Data Centre
#                                CCDC 
#
#######################################################################
#
# If this CIF has been generated from an entry in the Cambridge 
# Structural Database, then it will include bibliographic, chemical, 
# crystal, experimental, refinement or atomic coordinate data resulting 
# from the CCDC's data processing and validation procedures.
#
#######################################################################

data_CURQEN
_symmetry_cell_setting           monoclinic
_symmetry_space_group_name_H-M   'P 21/n'
_symmetry_Int_Tables_number      14
_space_group_name_Hall           '-P 2yn'
loop_
_symmetry_equiv_pos_site_id
_symmetry_equiv_pos_as_xyz
1 x,y,z
2 1/2-x,1/2+y,1/2-z
3 -x,-y,-z
4 1/2+x,1/2-y,1/2+z
_cell_length_a                   10.3340(2)
_cell_length_b                   15.9714(4)
_cell_length_c                   25.3074(7)
_cell_angle_alpha                90
_cell_angle_beta                 93.2770(10)
_cell_angle_gamma                90
_cell_volume                     4170.12
loop_
_atom_site_label
_atom_site_type_symbol
_atom_site_fract_x
_atom_site_fract_y
_atom_site_fract_z
Sn1 Sn 0.0000 0.0000 0.0000
Sn2 Sn 1.5000 0.5000 0.0000
Cu1 Cu 0.76038(5) 0.21429(4) -0.16676(2)
O1 O -0.0967(3) 0.1038(2) -0.02501(15)
C1 C -0.1309(7) 0.1677(4) 0.0074(3)
H1 H -0.1933 0.1470 0.0321
H2 H -0.1703 0.2131 -0.0140
H3 H -0.0535 0.1887 0.0274
N1 N 0.0688(4) -0.0097(2) -0.07638(16)
N2 N 0.1649(4) 0.0710(2) 0.02472(16)
C2 C 0.0101(5) -0.0534(3) -0.11793(19)
C3 C 0.0895(5) -0.0449(3) -0.1626(2)
H4 H 0.0720 -0.0683 -0.1968
C4 C 0.1937(5) 0.0025(3) -0.1472(2)
H5 H 0.2622 0.0183 -0.1686
C5 C 0.1817(4) 0.0248(3) -0.09234(19)
C6 C 0.2706(4) 0.0718(3) -0.06015(19)
C7 C 0.2613(4) 0.0938(3) -0.00687(19)
C8 C 0.3497(5) 0.1477(3) 0.0242(2)
H6 H 0.4263 0.1728 0.0123
C9 C 0.3042(5) 0.1559(3) 0.0724(2)
H7 H 0.3426 0.1878 0.1009
C10 C 0.1865(4) 0.1075(3) 0.07346(19)
C11 C -0.1063(5) -0.0990(3) -0.11650(19)
C12 C -0.1458(4) -0.1453(3) -0.16624(19)
C13 C -0.2599(5) -0.1255(3) -0.19579(19)
H8 H -0.3186 -0.0854 -0.1832
C14 C -0.2858(5) -0.1654(3) -0.2437(2)
H9 H -0.3623 -0.1504 -0.2640
N3 N -0.2089(4) -0.2242(3) -0.26299(16)
C15 C -0.1023(5) -0.2465(3) -0.2324(2)
H10 H -0.0489 -0.2901 -0.2444
C16 C -0.0681(5) -0.2087(3) -0.1846(2)
H11 H 0.0077 -0.2258 -0.1645
C17 C 0.3874(4) 0.1034(3) -0.08650(19)
C18 C 0.5112(5) 0.0731(3) -0.0732(2)
H12 H 0.5232 0.0299 -0.0476
C19 C 0.6168(5) 0.1058(3) -0.0974(2)
H13 H 0.7005 0.0842 -0.0877
N4 N 0.6058(4) 0.1672(2) -0.13399(15)
C20 C 0.4862(5) 0.1953(3) -0.1468(2)
H14 H 0.4764 0.2381 -0.1728
C21 C 0.3765(4) 0.1660(3) -0.12460(19)
H15 H 0.2940 0.1885 -0.1352
N5 N 0.8937(4) 0.2770(2) -0.12257(17)
C22 C 0.9949(5) 0.2358(3) -0.1009(2)
H16 H 0.9969 0.1766 -0.1043
C23 C 1.0978(5) 0.2753(3) -0.0737(2)
H17 H 1.1677 0.2432 -0.0584
C24 C 1.0984(5) 0.3614(3) -0.06900(19)
C25 C 0.9911(6) 0.4046(3) -0.0898(3)
H18 H 0.9862 0.4638 -0.0864
C26 C 0.8908(5) 0.3603(3) -0.1155(3)
H19 H 0.8165 0.3903 -0.1288
C27 C 1.2164(5) 0.4058(3) -0.0462(2)
C28 C 1.2377(5) 0.4066(3) 0.0086(2)
C29 C 1.1560(5) 0.3705(3) 0.0466(2)
H20 H 1.0752 0.3435 0.0389
C30 C 1.2148(5) 0.3820(3) 0.0956(2)
H21 H 1.1833 0.3635 0.1282
C31 C 1.3338(5) 0.4273(3) 0.0891(2)
C32 C 1.4244(5) 0.4532(3) 0.1294(2)
C33 C 1.5413(5) 0.4973(3) 0.1226(2)
C34 C 1.6274(6) 0.5300(4) 0.1640(2)
H22 H 1.6167 0.5254 0.2009
C35 C 1.7260(6) 0.5683(4) 0.1412(2)
H23 H 1.7977 0.5952 0.1592
C36 C 1.2961(5) 0.4386(3) -0.0851(2)
C37 C 1.4001(5) 0.4286(3) 0.18511(19)
C38 C 1.2894(5) 0.4536(3) 0.2097(2)
H24 H 1.2267 0.4882 0.1915
C39 C 1.2721(5) 0.4276(3) 0.2608(2)
H25 H 1.1967 0.4462 0.2771
N6 N 1.3541(4) 0.3781(3) 0.28868(17)
C40 C 1.4625(5) 0.3557(3) 0.2655(2)
H26 H 1.5246 0.3223 0.2850
C41 C 1.4877(5) 0.3794(3) 0.2142(2)
H27 H 1.5653 0.3617 0.1992
N7 N 1.4106(4) 0.4815(3) -0.07523(16)
N8 N 1.3443(4) 0.4413(3) 0.03592(16)
O2 O 1.5961(4) 0.3889(2) -0.00144(15)
C42 C 1.5754(8) 0.3290(4) -0.0402(3)
H28 H 1.4828 0.3155 -0.0440
H29 H 1.6247 0.2784 -0.0304
H30 H 1.6040 0.3506 -0.0739
N1B N -0.0688(4) 0.0097(2) 0.07638(16)
N2B N -0.1649(4) -0.0710(2) -0.02472(16)
C2B C -0.0101(5) 0.0534(3) 0.11793(19)
C3B C -0.0895(5) 0.0449(3) 0.1626(2)
H4B H -0.0720 0.0683 0.1968
C4B C -0.1937(5) -0.0025(3) 0.1472(2)
H5B H -0.2622 -0.0183 0.1686
C5B C -0.1817(4) -0.0248(3) 0.09234(19)
C6B C -0.2706(4) -0.0718(3) 0.06015(19)
C7B C -0.2613(4) -0.0938(3) 0.00687(19)
C8B C -0.3497(5) -0.1477(3) -0.0242(2)
H6B H -0.4263 -0.1728 -0.0123
C9B C -0.3042(5) -0.1559(3) -0.0724(2)
H7B H -0.3426 -0.1878 -0.1009
C10B C -0.1865(4) -0.1075(3) -0.07346(19)
C11B C 0.1063(5) 0.0990(3) 0.11650(19)
C12B C 0.1458(4) 0.1453(3) 0.16624(19)
C13B C 0.2599(5) 0.1255(3) 0.19579(19)
H8B H 0.3186 0.0854 0.1832
C14B C 0.2858(5) 0.1654(3) 0.2437(2)
H9B H 0.3623 0.1504 0.2640
N3B N 0.2089(4) 0.2242(3) 0.26299(16)
C15B C 0.1023(5) 0.2465(3) 0.2324(2)
H10B H 0.0489 0.2901 0.2444
C16B C 0.0681(5) 0.2087(3) 0.1846(2)
H11B H -0.0077 0.2258 0.1645
C17B C -0.3874(4) -0.1034(3) 0.08650(19)
C18B C -0.5112(5) -0.0731(3) 0.0732(2)
H12B H -0.5232 -0.0299 0.0476
C19B C -0.6168(5) -0.1058(3) 0.0974(2)
H13B H -0.7005 -0.0842 0.0877
N4B N -0.6058(4) -0.1672(2) 0.13399(15)
C20B C -0.4862(5) -0.1953(3) 0.1468(2)
H14B H -0.4764 -0.2381 0.1728
C21B C -0.3765(4) -0.1660(3) 0.12460(19)
H15B H -0.2940 -0.1885 0.1352
N5B N 2.1063(4) 0.7230(2) 0.12257(17)
C22B C 2.0051(5) 0.7642(3) 0.1009(2)
H16B H 2.0031 0.8234 0.1043
C23B C 1.9022(5) 0.7247(3) 0.0737(2)
H17B H 1.8323 0.7568 0.0584
C24B C 1.9016(5) 0.6386(3) 0.06900(19)
C25B C 2.0089(6) 0.5954(3) 0.0898(3)
H18B H 2.0138 0.5362 0.0864
C26B C 2.1092(5) 0.6397(3) 0.1155(3)
H19B H 2.1835 0.6097 0.1288
C27B C 1.7836(5) 0.5942(3) 0.0462(2)
C28B C 1.7623(5) 0.5934(3) -0.0086(2)
C29B C 1.8440(5) 0.6295(3) -0.0466(2)
H20B H 1.9248 0.6565 -0.0389
C30B C 1.7852(5) 0.6180(3) -0.0956(2)
H21B H 1.8167 0.6365 -0.1282
C31B C 1.6662(5) 0.5727(3) -0.0891(2)
C32B C 1.5756(5) 0.5468(3) -0.1294(2)
C33B C 1.4587(5) 0.5027(3) -0.1226(2)
C34B C 1.3726(6) 0.4700(4) -0.1640(2)
H22B H 1.3833 0.4746 -0.2009
C35B C 1.2740(6) 0.4317(4) -0.1412(2)
H23B H 1.2023 0.4048 -0.1592
C36B C 1.7039(5) 0.5614(3) 0.0851(2)
C37B C 1.5999(5) 0.5714(3) -0.18511(19)
C38B C 1.7106(5) 0.5464(3) -0.2097(2)
H24B H 1.7733 0.5118 -0.1915
C39B C 1.7279(5) 0.5724(3) -0.2608(2)
H25B H 1.8033 0.5538 -0.2771
N6B N 1.6459(4) 0.6219(3) -0.28868(17)
C40B C 1.5375(5) 0.6443(3) -0.2655(2)
H26B H 1.4754 0.6777 -0.2850
C41B C 1.5123(5) 0.6206(3) -0.2142(2)
H27B H 1.4347 0.6383 -0.1992
N7B N 1.5894(4) 0.5185(3) 0.07523(16)
N8B N 1.6557(4) 0.5587(3) -0.03592(16)
Cu1B Cu -0.76038(5) -0.21429(4) 0.16676(2)
O1B O 0.0967(3) -0.1038(2) 0.02501(15)
C1B C 0.1309(7) -0.1677(4) -0.0074(3)
H1B H 0.1933 -0.1470 -0.0321
H2B H 0.1703 -0.2131 0.0140
H3B H 0.0535 -0.1887 -0.0274
O2B O 1.4039(4) 0.6111(2) 0.00144(15)
C42B C 1.4246(8) 0.6710(4) 0.0402(3)
H28B H 1.5172 0.6845 0.0440
H29B H 1.3753 0.7216 0.0304
H30B H 1.3960 0.6494 0.0739
Cu1A Cu -0.26038(5) -0.28571(4) -0.33324(2)
Cu1A_2 Cu 1.73962(5) 0.71429(4) -0.33324(2)
Cu1B_2 Cu 2.23962(5) 0.78571(4) 0.16676(2)
Cu1C Cu 0.26038(5) 0.28571(4) 0.33324(2)
Cu1C_2 Cu 1.26038(5) 0.28571(4) 0.33324(2)
N3A N 0.7089(4) 0.2758(3) -0.23701(16)
N3C N -0.7089(4) -0.2758(3) 0.23701(16)
N5B_2 N -0.8937(4) -0.2770(2) 0.12257(17)
N6A N -0.8541(4) -0.1219(3) 0.21132(17)
N6C N 0.8541(4) 0.1219(3) -0.21132(17)
Cu2 Cu 1.85333(7) 0.62527(6) 0.26033(3)
Cl1 Cl 1.74574(15) 0.73684(12) 0.25157(8)
Cl2 Cl 1.95335(15) 0.51048(11) 0.26176(8)
loop_
_geom_bond_atom_site_label_1
_geom_bond_atom_site_label_2
_geom_bond_site_symmetry_1
_geom_bond_site_symmetry_2
Sn1 O1 1_555 1_555
Sn2 N7 1_555 1_555
Cu1 N4 1_555 1_555
O1 C1 1_555 1_555
C1 H1 1_555 1_555
H2 C1 1_555 1_555
H3 C1 1_555 1_555
N1 Sn1 1_555 1_555
N2 Sn1 1_555 1_555
C2 N1 1_555 1_555
C3 C2 1_555 1_555
H4 C3 1_555 1_555
C4 C3 1_555 1_555
H5 C4 1_555 1_555
C5 N1 1_555 1_555
C6 C5 1_555 1_555
C7 N2 1_555 1_555
C8 C7 1_555 1_555
H6 C8 1_555 1_555
C9 C8 1_555 1_555
H7 C9 1_555 1_555
C10 N2 1_555 1_555
C11 C2 1_555 1_555
C12 C11 1_555 1_555
C13 C12 1_555 1_555
H8 C13 1_555 1_555
C14 C13 1_555 1_555
H9 C14 1_555 1_555
N3 C14 1_555 1_555
C15 N3 1_555 1_555
H10 C15 1_555 1_555
C16 C12 1_555 1_555
H11 C16 1_555 1_555
C17 C6 1_555 1_555
C18 C17 1_555 1_555
H12 C18 1_555 1_555
C19 C18 1_555 1_555
H13 C19 1_555 1_555
N4 C19 1_555 1_555
C20 N4 1_555 1_555
H14 C20 1_555 1_555
C21 C17 1_555 1_555
H15 C21 1_555 1_555
N5 Cu1 1_555 1_555
C22 N5 1_555 1_555
H16 C22 1_555 1_555
C23 C22 1_555 1_555
H17 C23 1_555 1_555
C24 C23 1_555 1_555
C25 C24 1_555 1_555
H18 C25 1_555 1_555
C26 N5 1_555 1_555
H19 C26 1_555 1_555
C27 C24 1_555 1_555
C28 C27 1_555 1_555
C29 C28 1_555 1_555
H20 C29 1_555 1_555
C30 C29 1_555 1_555
H21 C30 1_555 1_555
C31 C30 1_555 1_555
C32 C31 1_555 1_555
C33 C32 1_555 1_555
C34 C33 1_555 1_555
H22 C34 1_555 1_555
C35 C34 1_555 1_555
H23 C35 1_555 1_555
C36 C27 1_555 1_555
C37 C32 1_555 1_555
C38 C37 1_555 1_555
H24 C38 1_555 1_555
C39 C38 1_555 1_555
H25 C39 1_555 1_555
N6 C39 1_555 1_555
C40 N6 1_555 1_555
H26 C40 1_555 1_555
C41 C37 1_555 1_555
H27 C41 1_555 1_555
N7 C36 1_555 1_555
N8 Sn2 1_555 1_555
O2 Sn2 1_555 1_555
C42 O2 1_555 1_555
H28 C42 1_555 1_555
H29 C42 1_555 1_555
H30 C42 1_555 1_555
Cu2 Cl1 1_555 1_555
Cl2 Cu2 1_555 1_555
N1B Sn1 1_555 1_555
N2B Sn1 1_555 1_555
C2B N1B 1_555 1_555
C3B C2B 1_555 1_555
H4B C3B 1_555 1_555
C4B C3B 1_555 1_555
H5B C4B 1_555 1_555
C5B N1B 1_555 1_555
C6B C5B 1_555 1_555
C7B N2B 1_555 1_555
C8B C7B 1_555 1_555
H6B C8B 1_555 1_555
C9B C8B 1_555 1_555
H7B C9B 1_555 1_555
C10B C11 1_555 1_555
C11B C10 1_555 1_555
C12B C11B 1_555 1_555
C13B C12B 1_555 1_555
H8B C13B 1_555 1_555
C14B C13B 1_555 1_555
H9B C14B 1_555 1_555
N3B C14B 1_555 1_555
C15B N3B 1_555 1_555
H10B C15B 1_555 1_555
C16B C12B 1_555 1_555
H11B C16B 1_555 1_555
C17B C6B 1_555 1_555
C18B C17B 1_555 1_555
H12B C18B 1_555 1_555
C19B C18B 1_555 1_555
H13B C19B 1_555 1_555
N4B C19B 1_555 1_555
C20B N4B 1_555 1_555
H14B C20B 1_555 1_555
C21B C17B 1_555 1_555
H15B C21B 1_555 1_555
N5B C22B 1_555 1_555
C22B H16B 1_555 1_555
C23B C22B 1_555 1_555
H17B C23B 1_555 1_555
C24B C23B 1_555 1_555
C25B C24B 1_555 1_555
H18B C25B 1_555 1_555
C26B N5B 1_555 1_555
H19B C26B 1_555 1_555
C27B C24B 1_555 1_555
C28B C27B 1_555 1_555
C29B C28B 1_555 1_555
H20B C29B 1_555 1_555
C30B C29B 1_555 1_555
H21B C30B 1_555 1_555
C31B C30B 1_555 1_555
C32B C31B 1_555 1_555
C33B N7 1_555 1_555
C34B C33B 1_555 1_555
H22B C34B 1_555 1_555
C35B C36 1_555 1_555
H23B C35B 1_555 1_555
C36B C35 1_555 1_555
C37B C32B 1_555 1_555
C38B C37B 1_555 1_555
H24B C38B 1_555 1_555
C39B C38B 1_555 1_555
H25B C39B 1_555 1_555
N6B C39B 1_555 1_555
C40B N6B 1_555 1_555
H26B C40B 1_555 1_555
C41B C37B 1_555 1_555
H27B C41B 1_555 1_555
N7B Sn2 1_555 1_555
N8B Sn2 1_555 1_555
Cu1B N4B 1_555 1_555
O1B Sn1 1_555 1_555
C1B O1B 1_555 1_555
H1B C1B 1_555 1_555
H2B C1B 1_555 1_555
H3B C1B 1_555 1_555
O2B Sn2 1_555 1_555
C42B O2B 1_555 1_555
H28B C42B 1_555 1_555
H29B C42B 1_555 1_555
H30B C42B 1_555 1_555
Cu1A N3 1_555 1_555
Cu1A_2 N6B 1_555 1_555
Cu1B_2 N5B 1_555 1_555
Cu1C N3B 1_555 1_555
Cu1C_2 N6 1_555 1_555
N3A Cu1 1_555 1_555
N3C Cu1B 1_555 1_555
N5B_2 Cu1B 1_555 1_555
N6A Cu1B 1_555 1_555
N6C Cu1 1_555 1_555
C4 C5 1_555 1_555
C6 C7 1_555 1_555
C9 C10 1_555 1_555
C15 C16 1_555 1_555
C20 C21 1_555 1_555
C25 C26 1_555 1_555
C28 N8 1_555 1_555
C31 N8 1_555 1_555
C33 N7B 1_555 1_555
C40 C41 1_555 1_555
N2B C10B 1_555 1_555
C2B C11B 1_555 1_555
C4B C5B 1_555 1_555
C6B C7B 1_555 1_555
C9B C10B 1_555 1_555
C15B C16B 1_555 1_555
C20B C21B 1_555 1_555
C25B C26B 1_555 1_555
C27B C36B 1_555 1_555
C28B N8B 1_555 1_555
C31B N8B 1_555 1_555
C32B C33B 1_555 1_555
C34B C35B 1_555 1_555
C36B N7B 1_555 1_555
C40B C41B 1_555 1_555

#END
