
#######################################################################
#
#                 Cambridge Crystallographic Data Centre
#                                CCDC 
#
#######################################################################
#
# If this CIF has been generated from an entry in the Cambridge 
# Structural Database, then it will include bibliographic, chemical, 
# crystal, experimental, refinement or atomic coordinate data resulting 
# from the CCDC's data processing and validation procedures.
#
#######################################################################

data_CURZAR
_symmetry_cell_setting           orthorhombic
_symmetry_space_group_name_H-M   'C m c m'
_symmetry_Int_Tables_number      63
_space_group_name_Hall           '-C 2n 2'
loop_
_symmetry_equiv_pos_site_id
_symmetry_equiv_pos_as_xyz
1 x,y,z
2 -x,-y,1/2+z
3 x,-y,-z
4 -x,y,1/2-z
5 1/2+x,1/2+y,z
6 1/2-x,1/2-y,1/2+z
7 1/2+x,1/2-y,-z
8 1/2-x,1/2+y,1/2-z
9 -x,-y,-z
10 x,y,1/2-z
11 -x,y,z
12 x,-y,1/2+z
13 1/2-x,1/2-y,-z
14 1/2+x,1/2+y,1/2-z
15 1/2-x,1/2+y,z
16 1/2+x,1/2-y,1/2+z
_cell_length_a                   27.9319(6)
_cell_length_b                   14.3167(9)
_cell_length_c                   21.4476(6)
_cell_angle_alpha                90
_cell_angle_beta                 90
_cell_angle_gamma                90
_cell_volume                     8576.74
loop_
_atom_site_label
_atom_site_type_symbol
_atom_site_fract_x
_atom_site_fract_y
_atom_site_fract_z
N3 N -0.2004(8) 0.989(2) 0.0977(11)
O7 O -0.2244(10) 1.015(3) 0.0586(12)
O8 O -0.1553(8) 0.988(3) 0.0881(13)
O9 O -0.2130(11) 0.956(2) 0.1477(12)
N4 N 0.0000 0.598(2) 0.4593(13)
O10 O 0.0000 0.643(2) 0.4126(14)
O11 O 0.0000 0.5167(19) 0.4577(16)
O12 O 0.0000 0.639(2) 0.5083(14)
O13 O 0.0000 0.782(3) 0.4713(19)
O15 O -0.1667(14) 0.874(3) 0.2500
O16 O -0.0783(14) 0.899(2) 0.2500
O17 O 0.0000 0.860(6) 0.383(4)
Cd1 Cd 0.0000 0.66464(8) -0.16595(4)
Cd2 Cd 0.05959(2) 0.43526(7) -0.2500
Cl1 Cl 0.0000 0.4948(4) -0.1676(2)
Cl2 Cl 0.0000 0.2880(3) -0.2500
O2 O 0.0535(3) 0.6765(6) -0.2500
O3 O 0.1084(3) 0.5625(7) -0.2500
O4 O 0.0000 0.8308(8) -0.1795(6)
N1 N 0.1090(2) 0.3726(6) -0.1738(3)
N2 N -0.0675(2) 0.6765(6) -0.1046(3)
C1 C 0.1357(3) 0.7160(8) -0.2500
C2 C 0.1240(4) 0.8100(10) -0.2500
H2 H 0.0913 0.8283 -0.2500
C3 C 0.1600(5) 0.8787(10) -0.2500
H3 H 0.1519 0.9431 -0.2500
C4 C 0.2076(5) 0.8510(11) -0.2500
H4 H 0.2323 0.8967 -0.2500
C5 C 0.2195(4) 0.7548(11) -0.2500
H5 H 0.2521 0.7358 -0.2500
C6 C 0.1830(4) 0.6881(8) -0.2500
H6 H 0.1907 0.6235 -0.2500
C7 C 0.0972(4) 0.6447(12) -0.2500
C8 C 0.2071(3) 0.2516(8) -0.0411(4)
O5 O 0.1899(10) 0.1629(15) -0.0249(14)
H8 H 0.2131 0.1275 -0.0167
C9 C 0.2575(3) 0.2403(8) -0.0676(4)
H9 H 0.2561 0.1998 -0.1049
H10 H 0.2695 0.3023 -0.0809
C10 C 0.2075(3) 0.3015(8) 0.0211(4)
H11 H 0.2186 0.3667 0.0127
C11 C 0.1734(3) 0.2946(7) -0.0881(4)
C12 C 0.1847(3) 0.3732(8) -0.1198(4)
H13 H 0.2149 0.4023 -0.1138
C13 C 0.1518(3) 0.4110(8) -0.1613(5)
H14 H 0.1601 0.4673 -0.1821
C14 C 0.0970(3) 0.3007(9) -0.1412(5)
H15 H 0.0655 0.2767 -0.1462
C15 C 0.1283(4) 0.2546(9) -0.0979(5)
H16 H 0.1188 0.1993 -0.0768
C16 C 0.1582(3) 0.3096(8) 0.0501(4)
C17 C 0.1362(3) 0.3959(7) 0.0600(4)
H17 H 0.1523 0.4518 0.0484
C18 C -0.0916(3) 0.5994(7) -0.0866(4)
H18 H -0.0772 0.5399 -0.0924
C19 C -0.0885(4) 0.7559(8) -0.0955(5)
H19 H -0.0720 0.8105 -0.1085
C20 C 0.1330(4) 0.2321(8) 0.0683(5)
H20 H 0.1458 0.1713 0.0624
Cd1C Cd 0.0000 0.66464(8) -0.33405(4)
Cd2C Cd -0.05959(2) 0.43526(7) -0.2500
Cl1C Cl 0.0000 0.4948(4) -0.3324(2)
O2C O -0.0535(3) 0.6765(6) -0.2500
N1I N 0.1090(2) 0.3726(6) -0.3262(3)
N2J N 0.0675(2) 0.6765(6) -0.1046(3)
C9L C 0.2425(3) 0.2597(8) 0.0676(4)
C10L C 0.2925(3) 0.1985(8) -0.0211(4)
C17H C -0.1362(3) 0.6041(7) -0.0600(4)
C18H C 0.0916(3) 0.4006(7) 0.0866(4)
C19H C 0.0885(4) 0.2441(8) 0.0955(5)
C20H C -0.1330(4) 0.7679(8) -0.0683(5)
O1? O -0.5000 0.9948(4) -0.1676(2)
H1? H -0.5000 0.9623 -0.1263
H7? H -0.3051 0.6871 -0.0329
O6? O -0.2230(6) 0.6012(12) -0.0078(10)
H12? H -0.2530 0.5980 -0.0096
O14? O 0.0000 0.835(4) 0.461(3)
loop_
_geom_bond_atom_site_label_1
_geom_bond_atom_site_label_2
_geom_bond_site_symmetry_1
_geom_bond_site_symmetry_2
Cd1 Cl1 1_555 1_555
Cd2 Cl1 1_555 1_555
Cl1 Cd2C 1_555 1_555
Cl2 Cd2 1_555 1_555
O2 Cd1 1_555 1_555
O3 Cd2 1_555 1_555
O4 Cd1 1_555 1_555
N1 Cd2 1_555 1_555
N2 Cd1 1_555 1_555
C1 C2 1_555 1_555
C2 H2 1_555 1_555
C3 C2 1_555 1_555
H3 C3 1_555 1_555
C4 C3 1_555 1_555
H4 C4 1_555 1_555
C5 C4 1_555 1_555
H5 C5 1_555 1_555
C6 C1 1_555 1_555
H6 C6 1_555 1_555
C7 O2 1_555 1_555
C8 O5 1_555 1_555
O5 H8 1_555 1_555
C9 C8 1_555 1_555
H9 C9 1_555 1_555
H10 C9 1_555 1_555
C10 C8 1_555 1_555
H11 C10 1_555 1_555
C11 C8 1_555 1_555
C12 C11 1_555 1_555
H13 C12 1_555 1_555
C13 N1 1_555 1_555
H14 C13 1_555 1_555
C14 N1 1_555 1_555
H15 C14 1_555 1_555
C15 C11 1_555 1_555
H16 C15 1_555 1_555
C16 C10 1_555 1_555
C17 C16 1_555 1_555
H17 C17 1_555 1_555
C18 N2 1_555 1_555
H18 C18 1_555 1_555
C19 N2 1_555 1_555
H19 C19 1_555 1_555
C20 C16 1_555 1_555
H20 C20 1_555 1_555
N3 O7 1_555 1_555
O8 N3 1_555 1_555
O9 N3 1_555 1_555
N4 O10 1_555 1_555
O11 N4 1_555 1_555
O12 N4 1_555 1_555
Cd1C O2 1_555 1_555
Cd2C Cl2 1_555 1_555
Cl1C Cd2 1_555 1_555
O2C Cd1 1_555 1_555
N1I Cd2 1_555 1_555
N2J Cd1 1_555 1_555
C9L C10 1_555 1_555
C10L C9 1_555 1_555
C17H C18 1_555 1_555
C18H C17 1_555 1_555
C19H C20 1_555 1_555
C20H C19 1_555 1_555
O3 C7 1_555 1_555
C1 C7 1_555 1_555
C5 C6 1_555 1_555
C12 C13 1_555 1_555
C14 C15 1_555 1_555
Cd1C Cl1C 1_555 1_555
Cd1C O2C 1_555 1_555
Cd2C Cl1C 1_555 1_555

#END
