
#######################################################################
#
#                 Cambridge Crystallographic Data Centre
#                                CCDC 
#
#######################################################################
#
# If this CIF has been generated from an entry in the Cambridge 
# Structural Database, then it will include bibliographic, chemical, 
# crystal, experimental, refinement or atomic coordinate data resulting 
# from the CCDC's data processing and validation procedures.
#
#######################################################################

data_CUYQIX
_symmetry_cell_setting           triclinic
_symmetry_space_group_name_H-M   'P -1'
_symmetry_Int_Tables_number      2
_space_group_name_Hall           '-P 1'
loop_
_symmetry_equiv_pos_site_id
_symmetry_equiv_pos_as_xyz
1 x,y,z
2 -x,-y,-z
_cell_length_a                   8.3207(6)
_cell_length_b                   13.1120(10)
_cell_length_c                   13.4253(10)
_cell_angle_alpha                71.716(1)
_cell_angle_beta                 79.758(1)
_cell_angle_gamma                88.055(1)
_cell_volume                     1368.23
loop_
_atom_site_label
_atom_site_type_symbol
_atom_site_fract_x
_atom_site_fract_y
_atom_site_fract_z
Zn1 Zn 0.22563(3) 0.363011(17) 0.639162(17)
Zn2 Zn 1.0000 0.0000 1.0000
O1 O 0.25364(18) 0.28773(12) 0.83232(12)
O3 O 0.41065(18) 0.27251(12) 0.68792(12)
O5 O 0.98976(17) 0.36295(11) 0.68227(12)
O7 O 0.99063(18) 0.18915(11) 0.69923(12)
O9 O 0.81639(17) 0.08518(11) 0.93407(11)
O10 O 0.70352(19) -0.02672(11) 0.86911(13)
O11 O 0.86690(19) -0.03140(13) 1.15697(12)
H9 H 0.778(2) -0.010(2) 1.181(2)
H10 H 0.899(3) -0.0801(18) 1.2080(17)
O12 O 0.91188(18) -0.14506(12) 0.98391(12)
H11 H 0.862(3) -0.1891(17) 1.0402(15)
H12 H 0.843(3) -0.1189(19) 0.9444(17)
N1 N 0.2479(2) 0.52185(13) 0.63255(14)
N2 N 0.1113(2) 0.92093(13) 0.55053(15)
N3 N 0.2649(2) 0.35485(13) 0.48707(13)
N4 N 0.3873(2) 0.43133(14) 0.08842(13)
C1 C 0.1879(3) 0.54120(16) 0.72421(17)
H13 H 0.1659 0.4820 0.7878
C2 C 0.1566(3) 0.64315(17) 0.73021(17)
H14 H 0.1160 0.6533 0.7971
C3 C 0.1845(2) 0.73118(16) 0.63838(17)
C4 C 0.2471(3) 0.71129(16) 0.54348(18)
H15 H 0.2688 0.7691 0.4787
C5 C 0.2775(2) 0.60725(16) 0.54371(17)
H16 H 0.3215 0.5952 0.4781
C6 C 0.1505(3) 0.84217(17) 0.64726(18)
H17 H 0.0581 0.8368 0.7065
H18 H 0.2475 0.8688 0.6658
C7 C 0.0895(3) 1.02605(16) 0.56914(18)
H19 H 0.1924 1.0488 0.5843
H20 H 0.0029 1.0195 0.6319
C8 C -0.0433(3) 0.89055(16) 0.52721(18)
H21 H -0.1311 0.8830 0.5896
H22 H -0.0318 0.8202 0.5141
C9 C 0.3579(2) 0.27699(16) 0.46334(16)
H23 H 0.4060 0.2276 0.5177
C10 C 0.3859(2) 0.26633(17) 0.36268(17)
H24 H 0.4523 0.2104 0.3486
C11 C 0.3168(2) 0.33751(17) 0.28208(16)
C12 C 0.2191(3) 0.41742(17) 0.30733(17)
H25 H 0.1689 0.4675 0.2545
C13 C 0.1959(2) 0.42301(16) 0.40928(16)
H26 H 0.1282 0.4774 0.4257
C14 C 0.3480(3) 0.32739(18) 0.17161(17)
H27 H 0.4397 0.2783 0.1658
H28 H 0.2498 0.2952 0.1599
C15 C 0.5314(3) 0.48243(19) 0.10402(17)
H29 H 0.6247 0.4334 0.1049
H30 H 0.5082 0.4962 0.1736
C16 C 0.4243(3) 0.41313(19) -0.01597(17)
H31 H 0.3279 0.3795 -0.0282
H32 H 0.5163 0.3633 -0.0166
C17 C 0.3747(2) 0.24917(15) 0.78896(17)
C18 C 0.4792(2) 0.17049(16) 0.85742(16)
H33 H 0.4248 0.0987 0.8832
H34 H 0.4854 0.1928 0.9206
C19 C 0.6532(2) 0.16096(16) 0.80084(16)
H35 H 0.6472 0.1462 0.7329
C20 C 0.7487(2) 0.26566(16) 0.77441(17)
H36 H 0.6878 0.3243 0.7315
H37 H 0.7525 0.2805 0.8419
C21 C 0.9216(2) 0.26953(16) 0.71464(15)
C22 C 0.7321(2) 0.06530(16) 0.87292(16)
Zn1A Zn 1.77437(3) -0.363011(17) 1.360838(17)
Zn1_2 Zn 1.22563(3) 0.363011(17) 0.639162(17)
Zn1A_2 Zn -0.22563(3) 1.636989(17) 0.360838(17)
Zn1A_3 Zn 0.77437(3) 0.636989(17) -0.639162(17)
Zn1A_4 Zn 0.77437(3) -0.363011(17) 1.360838(17)
O1A O 1.74636(18) -0.28773(12) 1.16768(12)
O3A O 1.58935(18) -0.27251(12) 1.31208(12)
O5A O 1.01024(17) -0.36295(11) 1.31773(12)
O5_2 O -0.01024(17) 0.36295(11) 0.68227(12)
O5A_2 O 2.01024(17) -0.36295(11) 1.31773(12)
O7A O 1.00937(18) -0.18915(11) 1.30077(12)
O9A O 1.18361(17) -0.08518(11) 1.06593(11)
O10A O 1.29648(19) 0.02672(11) 1.13089(13)
O11A O 1.13310(19) 0.03140(13) 0.84303(12)
H9A H 1.222(2) 0.010(2) 0.819(2)
H10A H 1.101(3) 0.0801(18) 0.7920(17)
O12A O 1.08812(18) 0.14506(12) 1.01609(12)
H11A H 1.138(3) 0.1891(17) 0.9598(15)
H12A H 1.157(3) 0.1189(19) 1.0556(17)
N1A N -0.2479(2) 1.47815(13) 0.36745(14)
N1A_2 N 1.7521(2) -0.52185(13) 1.36745(14)
N2A N -0.1113(2) 1.07907(13) 0.44947(15)
N3A N 0.7351(2) 0.64515(13) -0.48707(13)
N3A_2 N 1.7351(2) -0.35485(13) 1.51293(13)
N4A N 0.6127(2) 0.56867(14) -0.08842(13)
C1A C -0.1879(3) 1.45880(16) 0.27579(17)
H13A H -0.1659 1.5180 0.2122
C2A C -0.1566(3) 1.35685(17) 0.26979(17)
H14A H -0.1160 1.3467 0.2029
C3A C -0.1845(2) 1.26882(16) 0.36162(17)
C4A C -0.2471(3) 1.28871(16) 0.45652(18)
H15A H -0.2688 1.2309 0.5213
C5A C -0.2775(2) 1.39275(16) 0.45629(17)
H16A H -0.3215 1.4048 0.5219
C6A C -0.1505(3) 1.15783(17) 0.35274(18)
H17A H -0.0581 1.1632 0.2935
H18A H -0.2475 1.1312 0.3342
C7A C -0.0895(3) 0.97395(16) 0.43086(18)
H19A H -0.1924 0.9512 0.4157
H20A H -0.0029 0.9805 0.3681
C8A C 0.0433(3) 1.10945(16) 0.47279(18)
H21A H 0.1311 1.1170 0.4104
H22A H 0.0318 1.1798 0.4859
C9A C 0.6421(2) 0.72301(16) -0.46334(16)
H23A H 0.5940 0.7724 -0.5177
C10A C 0.6141(2) 0.73367(17) -0.36268(17)
H24A H 0.5477 0.7896 -0.3486
C11A C 0.6832(2) 0.66249(17) -0.28208(16)
C12A C 0.7809(3) 0.58258(17) -0.30733(17)
H25A H 0.8311 0.5325 -0.2545
C13A C 0.8041(2) 0.57699(16) -0.40928(16)
H26A H 0.8718 0.5226 -0.4257
C14A C 0.6520(3) 0.67261(18) -0.17161(17)
H27A H 0.5603 0.7217 -0.1658
H28A H 0.7502 0.7048 -0.1599
C15A C 0.4686(3) 0.51757(19) -0.10402(17)
H29A H 0.3753 0.5666 -0.1049
H30A H 0.4918 0.5038 -0.1736
C16A C 0.5757(3) 0.58687(19) 0.01597(17)
H31A H 0.6721 0.6205 0.0282
H32A H 0.4837 0.6367 0.0166
C17A C 1.6253(2) -0.24917(15) 1.21104(17)
C18A C 1.5208(2) -0.17049(16) 1.14258(16)
H33A H 1.5752 -0.0987 1.1168
H34A H 1.5146 -0.1928 1.0794
C19A C 1.3468(2) -0.16096(16) 1.19916(16)
H35A H 1.3528 -0.1462 1.2671
C20A C 1.2513(2) -0.26566(16) 1.22559(17)
H36A H 1.3122 -0.3243 1.2685
H37A H 1.2475 -0.2805 1.1581
C21A C 1.0784(2) -0.26953(16) 1.28536(15)
C22A C 1.2679(2) -0.06530(16) 1.12708(16)
O2 O 0.5590(2) 1.03674(15) -0.42716(14)
H1 H 0.659(2) 1.046(2) -0.446(2)
H2 H 0.522(3) 1.012(2) -0.465(2)
O4 O 0.4344(2) 0.93470(14) -0.20965(14)
H3 H 0.509(3) 0.940(2) -0.1773(19)
H4 H 0.471(3) 0.961(2) -0.2751(14)
O6 O 0.0948(2) 0.55362(15) 0.04715(16)
H5 H 0.183(3) 0.523(2) 0.062(2)
H6 H 0.037(3) 0.516(2) 0.031(3)
O8 O 0.2039(3) 0.75996(15) -0.08590(17)
H7 H 0.2715 0.8110 -0.1217
H8 H 0.118(3) 0.788(3) -0.061(3)
loop_
_geom_bond_atom_site_label_1
_geom_bond_atom_site_label_2
_geom_bond_site_symmetry_1
_geom_bond_site_symmetry_2
Zn1 O3 1_555 1_555
Zn2 O9 1_555 1_555
O1 C17 1_555 1_555
O2 H1 1_555 1_555
H2 O2 1_555 1_555
O3 C17 1_555 1_555
O4 H3 1_555 1_555
H4 O4 1_555 1_555
O5 C21 1_555 1_555
O6 H5 1_555 1_555
H6 O6 1_555 1_555
O7 C21 1_555 1_555
O8 H7 1_555 1_555
H8 O8 1_555 1_555
O9 C22 1_555 1_555
O10 C22 1_555 1_555
O11 Zn2 1_555 1_555
H9 O11 1_555 1_555
H10 O11 1_555 1_555
O12 Zn2 1_555 1_555
H11 O12 1_555 1_555
H12 O12 1_555 1_555
N1 Zn1 1_555 1_555
N2 C6 1_555 1_555
N3 Zn1 1_555 1_555
N4 C14 1_555 1_555
C1 N1 1_555 1_555
H13 C1 1_555 1_555
C2 C1 1_555 1_555
H14 C2 1_555 1_555
C3 C2 1_555 1_555
C4 C3 1_555 1_555
H15 C4 1_555 1_555
C5 N1 1_555 1_555
H16 C5 1_555 1_555
C6 C3 1_555 1_555
H17 C6 1_555 1_555
H18 C6 1_555 1_555
C7 N2 1_555 1_555
H19 C7 1_555 1_555
H20 C7 1_555 1_555
C8 N2 1_555 1_555
H21 C8 1_555 1_555
H22 C8 1_555 1_555
C9 N3 1_555 1_555
H23 C9 1_555 1_555
C10 C9 1_555 1_555
H24 C10 1_555 1_555
C11 C10 1_555 1_555
C12 C11 1_555 1_555
H25 C12 1_555 1_555
C13 N3 1_555 1_555
H26 C13 1_555 1_555
C14 C11 1_555 1_555
H27 C14 1_555 1_555
H28 C14 1_555 1_555
C15 N4 1_555 1_555
H29 C15 1_555 1_555
H30 C15 1_555 1_555
C16 N4 1_555 1_555
H31 C16 1_555 1_555
H32 C16 1_555 1_555
C17 C18 1_555 1_555
C18 H33 1_555 1_555
H34 C18 1_555 1_555
C19 C18 1_555 1_555
H35 C19 1_555 1_555
C20 C19 1_555 1_555
H36 C20 1_555 1_555
H37 C20 1_555 1_555
C21 C20 1_555 1_555
C22 C19 1_555 1_555
Zn1A O3A 1_555 1_555
Zn1_2 O5 1_555 1_555
Zn1A_2 N1A 1_555 1_555
Zn1A_3 N3A 1_555 1_555
Zn1A_4 O5A 1_555 1_555
O1A C17A 1_555 1_555
O3A C17A 1_555 1_555
O5A C21A 1_555 1_555
O5_2 Zn1 1_555 1_555
O5A_2 Zn1A 1_555 1_555
O7A C21A 1_555 1_555
O9A Zn2 1_555 1_555
O10A C22A 1_555 1_555
O11A Zn2 1_555 1_555
H9A O11A 1_555 1_555
H10A O11A 1_555 1_555
O12A Zn2 1_555 1_555
H11A O12A 1_555 1_555
H12A O12A 1_555 1_555
N1A C1A 1_555 1_555
N1A_2 Zn1A 1_555 1_555
N2A C6A 1_555 1_555
N3A C9A 1_555 1_555
N3A_2 Zn1A 1_555 1_555
N4A C14A 1_555 1_555
C1A H13A 1_555 1_555
C2A C1A 1_555 1_555
H14A C2A 1_555 1_555
C3A C2A 1_555 1_555
C4A C3A 1_555 1_555
H15A C4A 1_555 1_555
C5A N1A 1_555 1_555
H16A C5A 1_555 1_555
C6A C3A 1_555 1_555
H17A C6A 1_555 1_555
H18A C6A 1_555 1_555
C7A C8 1_555 1_555
H19A C7A 1_555 1_555
H20A C7A 1_555 1_555
C8A C7 1_555 1_555
H21A C8A 1_555 1_555
H22A C8A 1_555 1_555
C9A H23A 1_555 1_555
C10A C9A 1_555 1_555
H24A C10A 1_555 1_555
C11A C10A 1_555 1_555
C12A C11A 1_555 1_555
H25A C12A 1_555 1_555
C13A N3A 1_555 1_555
H26A C13A 1_555 1_555
C14A C11A 1_555 1_555
H27A C14A 1_555 1_555
H28A C14A 1_555 1_555
C15A C16 1_555 1_555
H29A C15A 1_555 1_555
H30A C15A 1_555 1_555
C16A C15 1_555 1_555
H31A C16A 1_555 1_555
H32A C16A 1_555 1_555
C17A C18A 1_555 1_555
C18A H33A 1_555 1_555
H34A C18A 1_555 1_555
C19A C18A 1_555 1_555
H35A C19A 1_555 1_555
C20A C19A 1_555 1_555
H36A C20A 1_555 1_555
H37A C20A 1_555 1_555
C21A C20A 1_555 1_555
C22A O9A 1_555 1_555
C4 C5 1_555 1_555
C12 C13 1_555 1_555
N2A C7A 1_555 1_555
N2A C8A 1_555 1_555
N4A C15A 1_555 1_555
N4A C16A 1_555 1_555
C4A C5A 1_555 1_555
C12A C13A 1_555 1_555
C19A C22A 1_555 1_555

#END
