
#######################################################################
#
#                 Cambridge Crystallographic Data Centre
#                                CCDC 
#
#######################################################################
#
# If this CIF has been generated from an entry in the Cambridge 
# Structural Database, then it will include bibliographic, chemical, 
# crystal, experimental, refinement or atomic coordinate data resulting 
# from the CCDC's data processing and validation procedures.
#
#######################################################################

data_DABFIX
_symmetry_cell_setting           cubic
_symmetry_space_group_name_H-M   'P 21 3'
_symmetry_Int_Tables_number      198
_space_group_name_Hall           'P 2ac 2ab 3'
loop_
_symmetry_equiv_pos_site_id
_symmetry_equiv_pos_as_xyz
1 x,y,z
2 1/2-x,-y,1/2+z
3 -x,1/2+y,1/2-z
4 1/2+x,1/2-y,-z
5 z,x,y
6 1/2+z,1/2-x,-y
7 1/2-z,-x,1/2+y
8 -z,1/2+x,1/2-y
9 y,z,x
10 -y,1/2+z,1/2-x
11 1/2+y,1/2-z,-x
12 1/2-y,-z,1/2+x
_cell_length_a                   23.0538(10)
_cell_length_b                   23.0538(10)
_cell_length_c                   23.0538(10)
_cell_angle_alpha                90
_cell_angle_beta                 90
_cell_angle_gamma                90
_cell_volume                     12252.6
loop_
_atom_site_label
_atom_site_type_symbol
_atom_site_fract_x
_atom_site_fract_y
_atom_site_fract_z
Ag1 Ag 1.00679(8) 0.49321(8) 1.50679(8)
Co1 Co 1.12978(7) 0.87022(7) 1.37022(7)
N1 N 1.2230(4) 0.8835(4) 1.3658(2)
C1 C 1.2515(4) 0.8892(3) 1.4186(3)
C2 C 1.3104(4) 0.9020(3) 1.4198(3)
H1 H 1.3299 0.9059 1.4559
C3 C 1.3408(4) 0.9092(4) 1.3683(2)
H2 H 1.3810 0.9179 1.3691
C4 C 1.3123(4) 0.9035(3) 1.3154(3)
H3 H 1.3330 0.9084 1.2802
C5 C 1.2534(4) 0.8906(3) 1.3142(3)
H4 H 1.2339 0.8867 1.2781
N2 N 1.1346(5) 0.8766(5) 1.5145(5)
N3 N 1.1562(5) 0.8791(5) 1.4598(5)
C6 C 1.2144(6) 0.8864(7) 1.4690(6)
C7 C 1.2271(7) 0.8896(6) 1.5285(6)
H5 H 1.2639 0.8936 1.5466
C8 C 1.1741(7) 0.8858(6) 1.5539(6)
H6 H 1.1669 0.8892 1.5944
C9 C 1.0741(7) 0.8634(6) 1.5249(6)
H7 H 1.0512 0.8771 1.4912
H8 H 1.0611 0.8857 1.5592
C10 C 1.0606(3) 0.8011(2) 1.5347(4)
C11 C 1.1063(2) 0.7620(3) 1.5378(4)
H9 H 1.1452 0.7755 1.5359
C12 C 1.0952(3) 0.7030(3) 1.5438(4)
H10 H 1.1265 0.6763 1.5459
C13 C 1.0383(3) 0.6832(2) 1.5466(4)
C14 C 0.9926(2) 0.7223(3) 1.5435(4)
C15 C 1.0037(3) 0.7813(3) 1.5375(4)
C16 C 0.9360(3) 0.7016(3) 1.5462(6)
H11 H 0.9291 0.6615 1.5523
C17 C 0.8896(3) 0.7396(4) 1.5399(6)
H12 H 0.8510 0.7254 1.5377
C18 C 0.9007(3) 0.7988(4) 1.5369(6)
H13 H 0.8693 0.8252 1.5332
C19 C 0.9576(3) 0.8201(2) 1.5392(6)
H14 H 0.9645 0.8606 1.5419
C20 C 1.0326(7) 0.6202(7) 1.5529(7)
N4 N 1.0283(6) 0.5709(5) 1.5578(5)
Co1B Co 0.87022(7) 0.37022(7) 1.12978(7)
Co1C Co 0.62978(7) 0.62978(7) 1.62978(7)
N1E N 0.8658(2) 0.2770(4) 1.1165(4)
N1K N 0.6165(4) 0.6342(2) 1.7230(4)
N1F N 1.1342(2) 0.7770(4) 1.3835(4)
N1I N 1.1165(4) 0.8658(2) 1.2770(4)
C1E C 0.9186(3) 0.2485(4) 1.1108(3)
C1K C 0.6108(3) 0.5814(3) 1.7515(4)
C2E C 0.9198(3) 0.1896(4) 1.0980(3)
C2K C 0.5980(3) 0.5802(3) 1.8104(4)
H1E H 0.9559 0.1701 1.0941
H1K H 0.5941 0.5441 1.8299
C3E C 0.8683(2) 0.1592(4) 1.0908(4)
C3K C 0.5908(4) 0.6317(2) 1.8408(4)
H2E H 0.8691 0.1190 1.0821
H2K H 0.5821 0.6309 1.8810
C4E C 0.8154(3) 0.1877(4) 1.0965(3)
C4K C 0.5965(3) 0.6846(3) 1.8123(4)
H3E H 0.7802 0.1670 1.0916
H3K H 0.5916 0.7198 1.8330
C5E C 0.8142(3) 0.2466(4) 1.1094(3)
C5K C 0.6094(3) 0.6858(3) 1.7534(4)
H4E H 0.7781 0.2661 1.1133
H4K H 0.6133 0.7219 1.7339
N2E N 1.0145(5) 0.3654(5) 1.1234(5)
N2K N 0.6234(5) 0.4855(5) 1.6346(5)
N3E N 0.9598(5) 0.3438(5) 1.1209(5)
N3K N 0.6209(5) 0.5402(5) 1.6562(5)
N3F N 1.0402(5) 0.8438(5) 1.3791(5)
N3I N 1.1209(5) 0.9598(5) 1.3438(5)
C6E C 0.9690(6) 0.2856(6) 1.1136(7)
C6K C 0.6136(7) 0.5310(6) 1.7144(6)
C7E C 1.0285(6) 0.2729(7) 1.1104(6)
C7K C 0.6104(6) 0.4715(6) 1.7271(7)
H5E H 1.0466 0.2361 1.1064
H5K H 0.6064 0.4534 1.7639
C8E C 1.0539(6) 0.3259(7) 1.1142(6)
C8K C 0.6142(6) 0.4461(6) 1.6741(7)
H6E H 1.0944 0.3331 1.1108
H6K H 0.6108 0.4056 1.6669
C9E C 1.0249(6) 0.4259(7) 1.1366(6)
C9K C 0.6366(6) 0.4751(6) 1.5741(7)
H7E H 0.9912 0.4488 1.1229
H7K H 0.6229 0.5088 1.5512
H8E H 1.0592 0.4389 1.1143
H8K H 0.6143 0.4408 1.5611
C10E C 1.0347(4) 0.4394(3) 1.1989(2)
C10K C 0.6989(2) 0.4653(4) 1.5606(3)
C11E C 1.0378(4) 0.3937(2) 1.2380(3)
C11K C 0.7380(3) 0.4622(4) 1.6063(2)
H9E H 1.0359 0.3548 1.2245
H9K H 0.7245 0.4641 1.6452
C12E C 1.0438(4) 0.4048(3) 1.2970(3)
C12K C 0.7970(3) 0.4562(4) 1.5952(3)
H10E H 1.0459 0.3735 1.3237
H10K H 0.8237 0.4541 1.6265
C13E C 1.0466(4) 0.4617(3) 1.3168(2)
C13K C 0.8168(2) 0.4534(4) 1.5383(3)
C14E C 1.0435(4) 0.5074(2) 1.2777(3)
C14K C 0.7777(3) 0.4565(4) 1.4926(2)
C15E C 1.0375(4) 0.4963(3) 1.2187(3)
C15K C 0.7187(3) 0.4625(4) 1.5037(3)
C16E C 1.0462(6) 0.5640(3) 1.2984(3)
C16K C 0.7984(3) 0.4538(6) 1.4360(3)
H11E H 1.0523 0.5709 1.3385
H11K H 0.8385 0.4477 1.4291
C17E C 1.0399(6) 0.6104(3) 1.2604(4)
C17K C 0.7604(4) 0.4601(6) 1.3896(3)
H12E H 1.0377 0.6490 1.2746
H12K H 0.7746 0.4623 1.3510
C18E C 1.0369(6) 0.5993(3) 1.2012(4)
C18K C 0.7012(4) 0.4631(6) 1.4007(3)
H13E H 1.0332 0.6307 1.1748
H13K H 0.6748 0.4668 1.3693
C19E C 1.0392(6) 0.5424(3) 1.1799(2)
C19K C 0.6799(2) 0.4608(6) 1.4576(3)
H14E H 1.0419 0.5355 1.1394
H14K H 0.6394 0.4581 1.4645
C20E C 1.0529(7) 0.4674(7) 1.3798(7)
C20K C 0.8798(7) 0.4471(7) 1.5326(7)
N4E N 1.0578(5) 0.4717(6) 1.4291(5)
N4K N 0.9291(5) 0.4422(5) 1.5283(6)
Ag2 Ag 1.24084(5) 0.25916(5) 0.74084(5)
Co2 Co 0.86161(7) 0.13839(7) 0.63839(7)
N5 N 0.8526(2) 0.0465(3) 0.6368(4)
C21 C 0.8505(3) 0.0193(3) 0.6906(4)
C22 C 0.8439(3) -0.0405(3) 0.6940(4)
H15 H 0.8425 -0.0590 0.7307
C23 C 0.8393(2) -0.0732(4) 0.6435(4)
H16 H 0.8347 -0.1141 0.6458
C24 C 0.8414(3) -0.0460(3) 0.5897(4)
H17 H 0.8383 -0.0683 0.5552
C25 C 0.8480(3) 0.0138(3) 0.5864(4)
H18 H 0.8495 0.0324 0.5496
N6 N 0.8527(5) 0.1401(6) 0.7833(5)
N7 N 0.8548(5) 0.1150(6) 0.7288(5)
C26 C 0.8476(6) 0.0586(6) 0.7391(6)
C27 C 0.8429(7) 0.0466(6) 0.7978(6)
H19 H 0.8395 0.0094 0.8152
C28 C 0.8440(6) 0.0966(7) 0.8244(6)
H20 H 0.8396 0.1023 0.8650
C29 C 0.8677(6) 0.2023(7) 0.7897(6)
H21 H 0.8466 0.2184 0.8234
H22 H 0.8546 0.2234 0.7547
C30 C 0.9341(3) 0.2128(3) 0.7982(4)
C31 C 0.9719(3) 0.1659(3) 0.7959(4)
H23 H 0.9570 0.1277 0.7921
C32 C 1.0314(3) 0.1750(3) 0.7992(4)
H24 H 1.0572 0.1429 0.7976
C33 C 1.0531(2) 0.2310(4) 0.8047(4)
C34 C 1.0153(3) 0.2779(3) 0.8070(4)
C35 C 0.9558(3) 0.2688(3) 0.8038(4)
C36 C 1.0381(3) 0.3334(3) 0.8125(6)
H25 H 1.0789 0.3388 0.8154
C37 C 1.0013(4) 0.3812(3) 0.8139(6)
H26 H 1.0164 0.4195 0.8129
C38 C 0.9419(4) 0.3715(3) 0.8168(6)
H27 H 0.9165 0.4029 0.8251
C39 C 0.9188(2) 0.3163(3) 0.8078(6)
H28 H 0.8781 0.3112 0.8044
C40 C 1.1138(6) 0.2377(7) 0.8007(6)
N8 N 1.1661(5) 0.2426(6) 0.7999(5)
Co2B Co 1.13839(7) 0.63839(7) 0.86161(7)
Co2C Co 1.36161(7) 0.36161(7) 0.36161(7)
N5E N 1.1368(4) 0.6474(2) 0.9535(3)
N5K N 1.4535(3) 0.3632(4) 0.3526(2)
N5F N 0.8632(4) 0.1474(2) 0.5465(3)
N5I N 0.9535(3) 0.1368(4) 0.6474(2)
C21E C 1.1906(4) 0.6495(3) 0.9807(3)
C21K C 1.4807(3) 0.3094(4) 0.3505(3)
C22E C 1.1940(4) 0.6561(3) 1.0405(3)
C22K C 1.5405(3) 0.3060(4) 0.3439(3)
H15E H 1.2307 0.6575 1.0590
H15K H 1.5590 0.2693 0.3425
C23E C 1.1435(4) 0.6607(2) 1.0732(4)
C23K C 1.5732(4) 0.3565(4) 0.3393(2)
H16E H 1.1458 0.6653 1.1141
H16K H 1.6141 0.3542 0.3347
C24E C 1.0897(4) 0.6586(3) 1.0460(3)
C24K C 1.5460(3) 0.4103(4) 0.3414(3)
H17E H 1.0552 0.6617 1.0683
H17K H 1.5683 0.4448 0.3383
C25E C 1.0864(4) 0.6520(3) 0.9862(3)
C25K C 1.4862(3) 0.4136(4) 0.3480(3)
H18E H 1.0496 0.6505 0.9676
H18K H 1.4676 0.4504 0.3495
N6E N 1.2833(5) 0.6473(5) 0.8599(6)
N6K N 1.3599(6) 0.2167(5) 0.3527(5)
N7E N 1.2288(5) 0.6452(5) 0.8850(6)
N7K N 1.3850(6) 0.2712(5) 0.3548(5)
N7F N 0.7712(5) 0.1452(5) 0.6150(6)
N7I N 0.8850(6) 0.2288(5) 0.6452(5)
C26E C 1.2391(6) 0.6524(6) 0.9414(6)
C26K C 1.4414(6) 0.2609(6) 0.3476(6)
C27E C 1.2978(6) 0.6571(7) 0.9534(6)
C27K C 1.4534(6) 0.2022(6) 0.3429(7)
H19E H 1.3152 0.6605 0.9906
H19K H 1.4906 0.1848 0.3395
C28E C 1.3244(6) 0.6560(6) 0.9034(7)
C28K C 1.4034(7) 0.1756(6) 0.3440(6)
H20E H 1.3650 0.6604 0.8977
H20K H 1.3977 0.1350 0.3396
C29E C 1.2897(6) 0.6323(6) 0.7977(7)
C29K C 1.2977(7) 0.2103(6) 0.3677(6)
H21E H 1.3234 0.6534 0.7816
H21K H 1.2816 0.1766 0.3466
H22E H 1.2547 0.6454 0.7766
H22K H 1.2766 0.2453 0.3546
C30E C 1.2982(4) 0.5659(3) 0.7872(3)
C30K C 1.2872(3) 0.2018(4) 0.4341(3)
C31E C 1.2959(4) 0.5281(3) 0.8341(3)
C31K C 1.3341(3) 0.2041(4) 0.4719(3)
H23E H 1.2921 0.5430 0.8723
H23K H 1.3723 0.2079 0.4570
C32E C 1.2992(4) 0.4686(3) 0.8250(3)
C32K C 1.3250(3) 0.2008(4) 0.5314(3)
H24E H 1.2976 0.4428 0.8571
H24K H 1.3571 0.2024 0.5572
C33E C 1.3047(4) 0.4469(2) 0.7690(4)
C33K C 1.2690(4) 0.1953(4) 0.5531(2)
C34E C 1.3070(4) 0.4847(3) 0.7221(3)
C34K C 1.2221(3) 0.1930(4) 0.5153(3)
C35E C 1.3038(4) 0.5442(3) 0.7312(3)
C35K C 1.2312(3) 0.1962(4) 0.4558(3)
C36E C 1.3125(6) 0.4619(3) 0.6666(3)
C36K C 1.1666(3) 0.1875(6) 0.5381(3)
H25E H 1.3154 0.4211 0.6612
H25K H 1.1612 0.1846 0.5789
C37E C 1.3139(6) 0.4987(4) 0.6188(3)
C37K C 1.1188(3) 0.1861(6) 0.5013(4)
H26E H 1.3129 0.4836 0.5805
H26K H 1.0805 0.1871 0.5164
C38E C 1.3168(6) 0.5581(4) 0.6285(3)
C38K C 1.1285(3) 0.1832(6) 0.4419(4)
H27E H 1.3251 0.5835 0.5971
H27K H 1.0971 0.1749 0.4165
C39E C 1.3078(6) 0.5812(2) 0.6837(3)
C39K C 1.1837(3) 0.1922(6) 0.4188(2)
H28E H 1.3044 0.6219 0.6888
H28K H 1.1888 0.1956 0.3781
C40E C 1.3007(6) 0.3862(6) 0.7623(7)
C40K C 1.2623(7) 0.1993(6) 0.6138(6)
N8E N 1.2999(5) 0.3339(5) 0.7574(6)
N8K N 1.2574(6) 0.2001(5) 0.6661(5)
B1 B 0.8090(4) 0.4490(6) 0.7646(5)
F1 F 0.8551(7) 0.4865(7) 0.7721(6)
F2 F 0.8197(8) 0.4099(6) 0.7206(7)
F3 F 0.7992(6) 0.4166(7) 0.8140(6)
F4 F 0.7621(6) 0.4840(6) 0.7521(6)
B2 B -0.0090(2) 1.0090(2) 0.5090(2)
F5 F -0.0149(4) 0.9842(3) 0.5632(3)
F6 F 0.0255(2) 0.9745(2) 0.4745(2)
F5F F -0.0632(3) 1.0149(4) 0.4842(3)
F5I F 0.0158(3) 1.0632(3) 0.5149(4)
B3 B 0.9165(4) 0.5835(4) 1.4165(4)
F7 F 0.9295(8) 0.5326(5) 1.3879(5)
F8 F 0.8819(4) 0.6181(4) 1.3819(4)
F7E F 0.8879(5) 0.5705(8) 1.4674(5)
F7K F 0.9674(5) 0.6121(5) 1.4295(8)
loop_
_geom_bond_atom_site_label_1
_geom_bond_atom_site_label_2
_geom_bond_site_symmetry_1
_geom_bond_site_symmetry_2
Ag1 N4 1_555 1_555
Co1 N1 1_555 1_555
N1 C1 1_555 1_555
C1 C2 1_555 1_555
C2 H1 1_555 1_555
C3 C2 1_555 1_555
H2 C3 1_555 1_555
C4 C3 1_555 1_555
H3 C4 1_555 1_555
C5 N1 1_555 1_555
H4 C5 1_555 1_555
N2 N3 1_555 1_555
N3 Co1 1_555 1_555
C6 C1 1_555 1_555
C7 C6 1_555 1_555
H5 C7 1_555 1_555
C8 N2 1_555 1_555
H6 C8 1_555 1_555
C9 N2 1_555 1_555
H7 C9 1_555 1_555
H8 C9 1_555 1_555
C10 C9 1_555 1_555
C11 C10 1_555 1_555
H9 C11 1_555 1_555
C12 C11 1_555 1_555
H10 C12 1_555 1_555
C13 C12 1_555 1_555
C14 C13 1_555 1_555
C15 C10 1_555 1_555
C16 C14 1_555 1_555
H11 C16 1_555 1_555
C17 C16 1_555 1_555
H12 C17 1_555 1_555
C18 C17 1_555 1_555
H13 C18 1_555 1_555
C19 C15 1_555 1_555
H14 C19 1_555 1_555
C20 C13 1_555 1_555
N4 C20 1_555 1_555
Ag2 N8 1_555 1_555
Co2 N5 1_555 1_555
N5 C21 1_555 1_555
C21 C22 1_555 1_555
C22 H15 1_555 1_555
C23 C22 1_555 1_555
H16 C23 1_555 1_555
C24 C23 1_555 1_555
H17 C24 1_555 1_555
C25 N5 1_555 1_555
H18 C25 1_555 1_555
N6 N7 1_555 1_555
N7 Co2 1_555 1_555
C26 C21 1_555 1_555
C27 C26 1_555 1_555
H19 C27 1_555 1_555
C28 N6 1_555 1_555
H20 C28 1_555 1_555
C29 N6 1_555 1_555
H21 C29 1_555 1_555
H22 C29 1_555 1_555
C30 C29 1_555 1_555
C31 C30 1_555 1_555
H23 C31 1_555 1_555
C32 C31 1_555 1_555
H24 C32 1_555 1_555
C33 C32 1_555 1_555
C34 C33 1_555 1_555
C35 C30 1_555 1_555
C36 C34 1_555 1_555
H25 C36 1_555 1_555
C37 C36 1_555 1_555
H26 C37 1_555 1_555
C38 C37 1_555 1_555
H27 C38 1_555 1_555
C39 C35 1_555 1_555
H28 C39 1_555 1_555
C40 C33 1_555 1_555
N8 C40 1_555 1_555
B1 F1 1_555 1_555
F2 B1 1_555 1_555
F3 B1 1_555 1_555
F4 B1 1_555 1_555
B2 F5 1_555 1_555
F6 B2 1_555 1_555
B3 F7 1_555 1_555
F8 B3 1_555 1_555
Co1B N1E 1_555 1_555
Co1C N1K 1_555 1_555
N1E C1E 1_555 1_555
N1K C1K 1_555 1_555
N1F Co1 1_555 1_555
N1I Co1 1_555 1_555
C1E C2E 1_555 1_555
C1K C2K 1_555 1_555
C2E H1E 1_555 1_555
C2K H1K 1_555 1_555
C3E C2E 1_555 1_555
C3K C2K 1_555 1_555
H2E C3E 1_555 1_555
H2K C3K 1_555 1_555
C4E C3E 1_555 1_555
C4K C3K 1_555 1_555
H3E C4E 1_555 1_555
H3K C4K 1_555 1_555
C5E N1E 1_555 1_555
C5K N1K 1_555 1_555
H4E C5E 1_555 1_555
H4K C5K 1_555 1_555
N2E N3E 1_555 1_555
N2K N3K 1_555 1_555
N3E Co1B 1_555 1_555
N3K Co1C 1_555 1_555
N3F Co1 1_555 1_555
N3I Co1 1_555 1_555
C6E C1E 1_555 1_555
C6K C1K 1_555 1_555
C7E C6E 1_555 1_555
C7K C6K 1_555 1_555
H5E C7E 1_555 1_555
H5K C7K 1_555 1_555
C8E N2E 1_555 1_555
C8K N2K 1_555 1_555
H6E C8E 1_555 1_555
H6K C8K 1_555 1_555
C9E N2E 1_555 1_555
C9K N2K 1_555 1_555
H7E C9E 1_555 1_555
H7K C9K 1_555 1_555
H8E C9E 1_555 1_555
H8K C9K 1_555 1_555
C10E C9E 1_555 1_555
C10K C9K 1_555 1_555
C11E C10E 1_555 1_555
C11K C10K 1_555 1_555
H9E C11E 1_555 1_555
H9K C11K 1_555 1_555
C12E C11E 1_555 1_555
C12K C11K 1_555 1_555
H10E C12E 1_555 1_555
H10K C12K 1_555 1_555
C13E C12E 1_555 1_555
C13K C12K 1_555 1_555
C14E C13E 1_555 1_555
C14K C13K 1_555 1_555
C15E C10E 1_555 1_555
C15K C10K 1_555 1_555
C16E C14E 1_555 1_555
C16K C14K 1_555 1_555
H11E C16E 1_555 1_555
H11K C16K 1_555 1_555
C17E C16E 1_555 1_555
C17K C16K 1_555 1_555
H12E C17E 1_555 1_555
H12K C17K 1_555 1_555
C18E C17E 1_555 1_555
C18K C17K 1_555 1_555
H13E C18E 1_555 1_555
H13K C18K 1_555 1_555
C19E C15E 1_555 1_555
C19K C15K 1_555 1_555
H14E C19E 1_555 1_555
H14K C19K 1_555 1_555
C20E C13E 1_555 1_555
C20K C13K 1_555 1_555
N4E Ag1 1_555 1_555
N4K Ag1 1_555 1_555
Co2B N5E 1_555 1_555
Co2C N5K 1_555 1_555
N5E C21E 1_555 1_555
N5K C21K 1_555 1_555
N5F Co2 1_555 1_555
N5I Co2 1_555 1_555
C21E C22E 1_555 1_555
C21K C22K 1_555 1_555
C22E H15E 1_555 1_555
C22K H15K 1_555 1_555
C23E C22E 1_555 1_555
C23K C22K 1_555 1_555
H16E C23E 1_555 1_555
H16K C23K 1_555 1_555
C24E C23E 1_555 1_555
C24K C23K 1_555 1_555
H17E C24E 1_555 1_555
H17K C24K 1_555 1_555
C25E N5E 1_555 1_555
C25K N5K 1_555 1_555
H18E C25E 1_555 1_555
H18K C25K 1_555 1_555
N6E N7E 1_555 1_555
N6K N7K 1_555 1_555
N7E Co2B 1_555 1_555
N7K Co2C 1_555 1_555
N7F Co2 1_555 1_555
N7I Co2 1_555 1_555
C26E C21E 1_555 1_555
C26K C21K 1_555 1_555
C27E C26E 1_555 1_555
C27K C26K 1_555 1_555
H19E C27E 1_555 1_555
H19K C27K 1_555 1_555
C28E N6E 1_555 1_555
C28K N6K 1_555 1_555
H20E C28E 1_555 1_555
H20K C28K 1_555 1_555
C29E N6E 1_555 1_555
C29K N6K 1_555 1_555
H21E C29E 1_555 1_555
H21K C29K 1_555 1_555
H22E C29E 1_555 1_555
H22K C29K 1_555 1_555
C30E C29E 1_555 1_555
C30K C29K 1_555 1_555
C31E C30E 1_555 1_555
C31K C30K 1_555 1_555
H23E C31E 1_555 1_555
H23K C31K 1_555 1_555
C32E C31E 1_555 1_555
C32K C31K 1_555 1_555
H24E C32E 1_555 1_555
H24K C32K 1_555 1_555
C33E C32E 1_555 1_555
C33K C32K 1_555 1_555
C34E C33E 1_555 1_555
C34K C33K 1_555 1_555
C35E C30E 1_555 1_555
C35K C30K 1_555 1_555
C36E C34E 1_555 1_555
C36K C34K 1_555 1_555
H25E C36E 1_555 1_555
H25K C36K 1_555 1_555
C37E C36E 1_555 1_555
C37K C36K 1_555 1_555
H26E C37E 1_555 1_555
H26K C37K 1_555 1_555
C38E C37E 1_555 1_555
C38K C37K 1_555 1_555
H27E C38E 1_555 1_555
H27K C38K 1_555 1_555
C39E C35E 1_555 1_555
C39K C35K 1_555 1_555
H28E C39E 1_555 1_555
H28K C39K 1_555 1_555
C40E C33E 1_555 1_555
C40K C33K 1_555 1_555
N8E Ag2 1_555 1_555
N8K Ag2 1_555 1_555
F5F B2 1_555 1_555
F5I B2 1_555 1_555
F7E B3 1_555 1_555
F7K B3 1_555 1_555
C4 C5 1_555 1_555
N3 C6 1_555 1_555
C7 C8 1_555 1_555
C14 C15 1_555 1_555
C18 C19 1_555 1_555
C24 C25 1_555 1_555
N7 C26 1_555 1_555
C27 C28 1_555 1_555
C34 C35 1_555 1_555
C38 C39 1_555 1_555
C4E C5E 1_555 1_555
C4K C5K 1_555 1_555
N3E C6E 1_555 1_555
N3K C6K 1_555 1_555
C7E C8E 1_555 1_555
C7K C8K 1_555 1_555
C14E C15E 1_555 1_555
C14K C15K 1_555 1_555
C18E C19E 1_555 1_555
C18K C19K 1_555 1_555
C20E N4E 1_555 1_555
C20K N4K 1_555 1_555
C24E C25E 1_555 1_555
C24K C25K 1_555 1_555
N7E C26E 1_555 1_555
N7K C26K 1_555 1_555
C27E C28E 1_555 1_555
C27K C28K 1_555 1_555
C34E C35E 1_555 1_555
C34K C35K 1_555 1_555
C38E C39E 1_555 1_555
C38K C39K 1_555 1_555
C40E N8E 1_555 1_555
C40K N8K 1_555 1_555

#END
