
#######################################################################
#
#                 Cambridge Crystallographic Data Centre
#                                CCDC 
#
#######################################################################
#
# If this CIF has been generated from an entry in the Cambridge 
# Structural Database, then it will include bibliographic, chemical, 
# crystal, experimental, refinement or atomic coordinate data resulting 
# from the CCDC's data processing and validation procedures.
#
#######################################################################

data_DABWUA
_symmetry_cell_setting           monoclinic
_symmetry_space_group_name_H-M   'P 21/c'
_symmetry_Int_Tables_number      14
_space_group_name_Hall           '-P 2ybc'
loop_
_symmetry_equiv_pos_site_id
_symmetry_equiv_pos_as_xyz
1 x,y,z
2 -x,1/2+y,1/2-z
3 -x,-y,-z
4 x,1/2-y,1/2+z
_cell_length_a                   14.0087(12)
_cell_length_b                   13.3191(8)
_cell_length_c                   14.8297(14)
_cell_angle_alpha                90
_cell_angle_beta                 93.116(7)
_cell_angle_gamma                90
_cell_volume                     2762.88
loop_
_atom_site_label
_atom_site_type_symbol
_atom_site_fract_x
_atom_site_fract_y
_atom_site_fract_z
C1 C 0.3668(3) 0.4920(3) 0.1381(3)
C2 C 0.28932(19) 0.4371(2) 0.18284(18)
C3 C 0.26454(17) 0.34075(19) 0.15442(17)
H1 H 0.2982 0.3088 0.1104
C4 C 0.18900(16) 0.29324(17) 0.19268(15)
C5 C 0.13907(17) 0.33807(18) 0.26027(16)
H2 H 0.0887 0.3047 0.2856
C6 C 0.16520(19) 0.4321(2) 0.28901(17)
C7 C 0.2405(2) 0.4810(2) 0.25134(19)
H3 H 0.2586 0.5443 0.2724
C8 C 0.1145(2) 0.4786(2) 0.3666(2)
C9 C 0.0401(2) 0.2557(2) 0.0378(2)
H4 H 0.0837 0.2937 0.0036
H5 H 0.0084 0.2998 0.0779
H6 H -0.0066 0.2241 -0.0026
C10 C 0.09515(17) 0.17546(19) 0.09295(16)
C11 C 0.19275(17) 0.10168(19) 0.19075(16)
C12 C 0.26625(18) 0.0819(2) 0.26370(18)
C13 C 0.2853(3) 0.1455(3) 0.3362(2)
H7 H 0.2524 0.2058 0.3404
C14 C 0.3527(3) 0.1188(3) 0.4016(2)
H8 H 0.3649 0.1622 0.4500
C15 C 0.3846(3) -0.0257(3) 0.3303(3)
H9 H 0.4192 -0.0851 0.3278
C16 C 0.3189(3) -0.0061(3) 0.2612(3)
H10 H 0.3096 -0.0509 0.2135
Cu1 Cu 0.5000 0.0000 0.5000
Cu2 Cu 0.0000 0.0000 0.0000
N1 N 0.16114(14) 0.19427(14) 0.16125(13)
N2 N 0.08777(15) 0.07854(16) 0.08265(14)
N3 N 0.14880(16) 0.03127(18) 0.14430(15)
N4 N 0.40205(17) 0.0329(2) 0.39933(16)
O1 O 0.41333(15) 0.44318(19) 0.08511(14)
O2 O 0.3805(3) 0.5803(3) 0.1561(4)
O3 O 0.04775(14) 0.42824(14) 0.39708(12)
O4 O 0.1392(2) 0.56187(19) 0.3975(2)
C1B C -0.3668(3) -0.4920(3) -0.1381(3)
C2B C -0.28932(19) -0.4371(2) -0.18284(18)
C3B C -0.26454(17) -0.34075(19) -0.15442(17)
H1B H -0.2982 -0.3088 -0.1104
C4B C -0.18900(16) -0.29324(17) -0.19268(15)
C5B C -0.13907(17) -0.33807(18) -0.26027(16)
H2B H -0.0887 -0.3047 -0.2856
C6B C -0.16520(19) -0.4321(2) -0.28901(17)
C7B C -0.2405(2) -0.4810(2) -0.25134(19)
H3B H -0.2586 -0.5443 -0.2724
C8B C -0.1145(2) -0.4786(2) -0.3666(2)
C9B C -0.0401(2) -0.2557(2) -0.0378(2)
H4B H -0.0837 -0.2937 -0.0036
H5B H -0.0084 -0.2998 -0.0779
H6B H 0.0066 -0.2241 0.0026
C10B C -0.09515(17) -0.17546(19) -0.09295(16)
C11B C -0.19275(17) -0.10168(19) -0.19075(16)
C12B C -0.26625(18) -0.0819(2) -0.26370(18)
C13B C -0.2853(3) -0.1455(3) -0.3362(2)
H7B H -0.2524 -0.2058 -0.3404
C14B C -0.3527(3) -0.1188(3) -0.4016(2)
H8B H -0.3649 -0.1622 -0.4500
C15B C -0.3846(3) 0.0257(3) -0.3303(3)
H9B H -0.4192 0.0851 -0.3278
C16B C -0.3189(3) 0.0061(3) -0.2612(3)
H10B H -0.3096 0.0509 -0.2135
Cu1A Cu 0.5000 0.5000 0.0000
Cu1_2 Cu -0.5000 0.0000 -0.5000
Cu1A_2 Cu -0.5000 -0.5000 0.0000
Cu2A Cu 0.0000 0.5000 0.5000
Cu2A_2 Cu 0.0000 -0.5000 -0.5000
N1B N -0.16114(14) -0.19427(14) -0.16125(13)
N2B N -0.08777(15) -0.07854(16) -0.08265(14)
N3B N -0.14880(16) -0.03127(18) -0.14430(15)
N4B N 0.59795(17) -0.0329(2) 0.60067(16)
N4B_2 N -0.40205(17) -0.0329(2) -0.39933(16)
O1A O 0.58667(15) -0.05682(19) 0.41489(14)
O1C O 0.41333(15) 0.05682(19) 0.58511(14)
O1B O -0.41333(15) -0.44318(19) -0.08511(14)
O2B O -0.3805(3) -0.5803(3) -0.1561(4)
O3A O -0.04775(14) -0.07176(14) 0.10292(12)
O3C O 0.04775(14) 0.07176(14) -0.10292(12)
O3B O -0.04775(14) -0.42824(14) -0.39708(12)
O4B O -0.1392(2) -0.56187(19) -0.3975(2)
loop_
_geom_bond_atom_site_label_1
_geom_bond_atom_site_label_2
_geom_bond_site_symmetry_1
_geom_bond_site_symmetry_2
C1 C2 1_555 1_555
C2 C3 1_555 1_555
C3 H1 1_555 1_555
C4 C3 1_555 1_555
C5 C4 1_555 1_555
H2 C5 1_555 1_555
C6 C5 1_555 1_555
C7 C2 1_555 1_555
H3 C7 1_555 1_555
C8 C6 1_555 1_555
C9 H4 1_555 1_555
H5 C9 1_555 1_555
H6 C9 1_555 1_555
C10 C9 1_555 1_555
C11 C12 1_555 1_555
C12 C13 1_555 1_555
C13 H7 1_555 1_555
C14 C13 1_555 1_555
H8 C14 1_555 1_555
C15 H9 1_555 1_555
C16 C12 1_555 1_555
H10 C16 1_555 1_555
Cu1 N4 1_555 1_555
Cu2 N2 1_555 1_555
N1 C4 1_555 1_555
N2 C10 1_555 1_555
N3 C11 1_555 1_555
N4 C14 1_555 1_555
O1 C1 1_555 1_555
O2 C1 1_555 1_555
O3 C8 1_555 1_555
O4 C8 1_555 1_555
C1B C2B 1_555 1_555
C2B C3B 1_555 1_555
C3B H1B 1_555 1_555
C4B C3B 1_555 1_555
C5B C4B 1_555 1_555
H2B C5B 1_555 1_555
C6B C5B 1_555 1_555
C7B C2B 1_555 1_555
H3B C7B 1_555 1_555
C8B C6B 1_555 1_555
C9B H4B 1_555 1_555
H5B C9B 1_555 1_555
H6B C9B 1_555 1_555
C10B C9B 1_555 1_555
C11B C12B 1_555 1_555
C12B C13B 1_555 1_555
C13B H7B 1_555 1_555
C14B C13B 1_555 1_555
H8B C14B 1_555 1_555
C15B H9B 1_555 1_555
C16B C12B 1_555 1_555
H10B C16B 1_555 1_555
Cu1A O1 1_555 1_555
Cu1_2 N4B_2 1_555 1_555
Cu1A_2 O1B 1_555 1_555
Cu2A O3 1_555 1_555
Cu2A_2 O3B 1_555 1_555
N1B C4B 1_555 1_555
N2B Cu2 1_555 1_555
N3B C11B 1_555 1_555
N4B Cu1 1_555 1_555
N4B_2 C14B 1_555 1_555
O1A Cu1 1_555 1_555
O1C Cu1 1_555 1_555
O1B C1B 1_555 1_555
O2B C1B 1_555 1_555
O3A Cu2 1_555 1_555
O3C Cu2 1_555 1_555
O3B C8B 1_555 1_555
O4B C8B 1_555 1_555
C6 C7 1_555 1_555
C10 N1 1_555 1_555
C11 N1 1_555 1_555
C15 C16 1_555 1_555
C15 N4 1_555 1_555
N2 N3 1_555 1_555
C6B C7B 1_555 1_555
C10B N1B 1_555 1_555
C10B N2B 1_555 1_555
C11B N1B 1_555 1_555
C15B C16B 1_555 1_555
C15B N4B_2 1_555 1_555
N2B N3B 1_555 1_555

#END
