
#######################################################################
#
#                 Cambridge Crystallographic Data Centre
#                                CCDC 
#
#######################################################################
#
# If this CIF has been generated from an entry in the Cambridge 
# Structural Database, then it will include bibliographic, chemical, 
# crystal, experimental, refinement or atomic coordinate data resulting 
# from the CCDC's data processing and validation procedures.
#
#######################################################################

data_DACXOV
_symmetry_cell_setting           triclinic
_symmetry_space_group_name_H-M   'P -1'
_symmetry_Int_Tables_number      2
_space_group_name_Hall           '-P 1'
loop_
_symmetry_equiv_pos_site_id
_symmetry_equiv_pos_as_xyz
1 x,y,z
2 -x,-y,-z
_cell_length_a                   10.7822(2)
_cell_length_b                   12.1806(3)
_cell_length_c                   12.3369(3)
_cell_angle_alpha                94.2028(9)
_cell_angle_beta                 106.3049(9)
_cell_angle_gamma                100.9193(12)
_cell_volume                     1513.12
loop_
_atom_site_label
_atom_site_type_symbol
_atom_site_fract_x
_atom_site_fract_y
_atom_site_fract_z
Tb1 Tb 0.087166(16) -0.190312(14) -0.001218(14)
O1 O 0.1953(3) -0.2492(2) -0.1391(2)
O2 O -0.0031(3) -0.3442(3) -0.1513(3)
O3 O -0.0370(2) -0.3161(2) 0.0897(2)
O4 O -0.1558(3) -0.2295(2) -0.0370(2)
O5 O 0.0714(3) -0.0632(2) 0.1347(2)
O6 O -0.0492(3) 0.0663(2) 0.1292(2)
N1 N 0.3217(3) -0.0743(3) 0.0830(3)
N2 N 0.2470(3) -0.2914(3) 0.1208(3)
C1 C 0.3577(4) 0.0325(3) 0.0681(4)
H2 H 0.2934 0.0674 0.0269
C2 C 0.4879(4) 0.0949(4) 0.1114(4)
H3 H 0.5087 0.1697 0.0991
C3 C 0.5841(4) 0.0463(4) 0.1715(4)
H4 H 0.6714 0.0868 0.1993
C4 C 0.5499(4) -0.0671(4) 0.1913(4)
C5 C 0.6448(4) -0.1238(4) 0.2558(4)
H5 H 0.7329 -0.0858 0.2865
C6 C 0.6076(4) -0.2321(4) 0.2727(4)
H6 H 0.6710 -0.2680 0.3135
C7 C 0.4732(4) -0.2921(4) 0.2289(4)
C8 C 0.4293(4) -0.4028(4) 0.2489(4)
H7 H 0.4894 -0.4407 0.2913
C9 C 0.2998(4) -0.4542(4) 0.2067(4)
H8 H 0.2702 -0.5273 0.2199
C10 C 0.2106(4) -0.3962(3) 0.1430(4)
H9 H 0.1217 -0.4325 0.1148
C11 C 0.3776(4) -0.2397(3) 0.1640(3)
C12 C 0.4176(4) -0.1236(3) 0.1446(3)
C13 C 0.0919(4) -0.3207(3) -0.1932(3)
C14 C 0.0778(4) -0.3778(3) -0.3091(3)
C15 C 0.1807(4) -0.3545(4) -0.3588(4)
H10 H 0.2581 -0.3020 -0.3197
C16 C 0.1685(5) -0.4072(4) -0.4624(4)
H11 H 0.2376 -0.3904 -0.4939
C17 C -0.0357(4) -0.4552(4) -0.3669(4)
H12 H -0.1038 -0.4708 -0.3340
C18 C 0.0516(4) -0.4880(4) -0.5244(3)
C19 C -0.1475(4) -0.3039(3) 0.0304(3)
C20 C -0.2711(4) -0.3812(3) 0.0364(3)
C21 C -0.2589(4) -0.4592(4) 0.1158(4)
H13 H -0.1770 -0.4574 0.1679
C22 C -0.3683(4) -0.5375(4) 0.1160(4)
H14 H -0.3598 -0.5898 0.1674
C23 C -0.3908(4) -0.3795(3) -0.0374(3)
H15 H -0.3975 -0.3255 -0.0871
C24 C -0.4940(4) -0.5397(3) 0.0389(3)
C25 C 0.0102(4) -0.0043(3) 0.1781(3)
C26 C 0.0069(4) -0.0203(3) 0.2974(3)
C27 C 0.0205(4) -0.1247(3) 0.3365(3)
H16 H 0.0306 -0.1828 0.2886
C28 C 0.0191(4) -0.1403(3) 0.4449(3)
H17 H 0.0268 -0.2097 0.4697
C29 C -0.0066(4) 0.0656(3) 0.3671(3)
H18 H -0.0163 0.1337 0.3399
C30 C 0.0061(4) -0.0530(3) 0.5190(3)
C17A C 0.0357(4) -0.5448(4) -0.6331(4)
C14A C -0.0778(4) -0.6222(3) -0.6909(3)
C13A C -0.0919(4) -0.6793(3) -0.8068(3)
O1A O -0.1953(3) -0.7508(2) -0.8609(2)
O2A O 0.0031(3) -0.6558(3) -0.8487(3)
C15A C -0.1807(4) -0.6455(4) -0.6412(4)
H10A H -0.2581 -0.6980 -0.6803
C16A C -0.1685(5) -0.5928(4) -0.5376(4)
H11A H -0.2376 -0.6096 -0.5061
C18A C -0.0516(4) -0.5120(4) -0.4756(3)
H12A H 0.1038 -0.5292 -0.6660
C23A C -0.6092(4) -0.6205(3) 0.0374(3)
C20A C -0.7289(4) -0.6188(3) -0.0364(3)
C19A C -0.8525(4) -0.6961(3) -0.0304(3)
O3A O -0.9630(2) -0.6839(2) -0.0897(2)
O4A O -0.8442(3) -0.7705(2) 0.0370(2)
C21A C -0.7411(4) -0.5408(4) -0.1158(4)
H13A H -0.8230 -0.5426 -0.1679
C22A C -0.6317(4) -0.4625(4) -0.1160(4)
H14A H -0.6402 -0.4102 -0.1674
C24A C -0.5060(4) -0.4603(3) -0.0389(3)
H15A H -0.6025 -0.6745 0.0871
C29A C 0.0066(4) -0.0656(3) 0.6329(3)
C26A C -0.0069(4) 0.0203(3) 0.7026(3)
C25A C -0.0102(4) 0.0043(3) 0.8219(3)
O5A O -0.0714(3) 0.0632(2) 0.8653(2)
O6A O 0.0492(3) -0.0663(2) 0.8708(2)
C27A C -0.0205(4) 0.1247(3) 0.6635(3)
H16A H -0.0306 0.1828 0.7114
C28A C -0.0191(4) 0.1403(3) 0.5551(3)
H17A H -0.0268 0.2097 0.5303
C30A C -0.0061(4) 0.0530(3) 0.4810(3)
H18A H 0.0163 -0.1337 0.6601
Tb1A Tb -0.087166(16) -0.809688(14) -0.998782(14)
N1A N -0.3217(3) -0.9257(3) -1.0830(3)
N2A N -0.2470(3) -0.7086(3) -1.1208(3)
C1A C -0.3577(4) -1.0325(3) -1.0681(4)
H2A H -0.2934 -1.0674 -1.0269
C2A C -0.4879(4) -1.0949(4) -1.1114(4)
H3A H -0.5087 -1.1697 -1.0991
C3A C -0.5841(4) -1.0463(4) -1.1715(4)
H4A H -0.6714 -1.0868 -1.1993
C4A C -0.5499(4) -0.9329(4) -1.1913(4)
C5A C -0.6448(4) -0.8762(4) -1.2558(4)
H5A H -0.7329 -0.9142 -1.2865
C6A C -0.6076(4) -0.7679(4) -1.2727(4)
H6A H -0.6710 -0.7320 -1.3135
C7A C -0.4732(4) -0.7079(4) -1.2289(4)
C8A C -0.4293(4) -0.5972(4) -1.2489(4)
H7A H -0.4894 -0.5593 -1.2913
C9A C -0.2998(4) -0.5458(4) -1.2067(4)
H8A H -0.2702 -0.4727 -1.2199
C10A C -0.2106(4) -0.6038(3) -1.1430(4)
H9A H -0.1217 -0.5675 -1.1148
C11A C -0.3776(4) -0.7603(3) -1.1640(3)
C12A C -0.4176(4) -0.8764(3) -1.1446(3)
O6A_2 O 0.0492(3) -0.0663(2) -0.1292(2)
Tb1A_2 Tb -0.087166(16) 0.190312(14) 0.001218(14)
Tb1A_3 Tb -1.087166(16) -0.809688(14) 0.001218(14)
Tb1A_4 Tb -0.087166(16) 0.190312(14) 1.001218(14)
Tb1_2 Tb 0.087166(16) -0.190312(14) 0.998782(14)
O3A_2 O 0.0370(2) -0.6839(2) -1.0897(2)
O4A_2 O 0.1558(3) -0.7705(2) -0.9630(2)
O5A_2 O -0.0714(3) -0.9368(2) -1.1347(2)
O6_2 O -0.0492(3) -0.9337(2) -0.8708(2)
O7 O 0.2525(3) 0.1792(3) 0.2439(3)
H1 H 0.2358 0.2130 0.1883
O8 O 0.4195(4) 0.3272(3) 0.3138(3)
C31 C 0.3678(5) 0.2322(4) 0.3170(4)
C32 C 0.4274(4) 0.1589(4) 0.3976(4)
C33 C 0.5428(4) 0.2080(4) 0.4874(4)
H19 H 0.5751 0.2857 0.4978
C34 C 0.6082(4) 0.1436(4) 0.5592(4)
H20 H 0.6848 0.1774 0.6176
C35 C 0.3766(4) 0.0448(3) 0.3827(3)
H21 H 0.2991 0.0132 0.3243
C36 C 0.5593(4) 0.0249(3) 0.5449(3)
C35A C 0.6234(4) -0.0448(3) 0.6173(3)
C32A C 0.5726(4) -0.1589(4) 0.6024(4)
C31A C 0.6322(5) -0.2322(4) 0.6830(4)
O7A O 0.7475(3) -0.1792(3) 0.7561(3)
H1A H 0.7642 -0.2130 0.8117
O8A O 0.5805(4) -0.3272(3) 0.6862(3)
C33A C 0.4572(4) -0.2080(4) 0.5126(4)
H19A H 0.4249 -0.2857 0.5022
C34A C 0.3918(4) -0.1436(4) 0.4408(4)
H20A H 0.3152 -0.1774 0.3824
C36A C 0.4407(4) -0.0249(3) 0.4551(3)
H21A H 0.7009 -0.0132 0.6757
loop_
_geom_bond_atom_site_label_1
_geom_bond_atom_site_label_2
_geom_bond_site_symmetry_1
_geom_bond_site_symmetry_2
Tb1 O1 1_555 1_555
O1 C13 1_555 1_555
O2 Tb1 1_555 1_555
O3 Tb1 1_555 1_555
O4 Tb1 1_555 1_555
O5 Tb1 1_555 1_555
O6 C25 1_555 1_555
O7 H1 1_555 1_555
O8 C31 1_555 1_555
N1 Tb1 1_555 1_555
N2 Tb1 1_555 1_555
C1 N1 1_555 1_555
H2 C1 1_555 1_555
C2 C1 1_555 1_555
H3 C2 1_555 1_555
C3 C2 1_555 1_555
H4 C3 1_555 1_555
C4 C3 1_555 1_555
C5 C4 1_555 1_555
H5 C5 1_555 1_555
C6 C5 1_555 1_555
H6 C6 1_555 1_555
C7 C6 1_555 1_555
C8 C7 1_555 1_555
H7 C8 1_555 1_555
C9 C8 1_555 1_555
H8 C9 1_555 1_555
C10 N2 1_555 1_555
H9 C10 1_555 1_555
C11 N2 1_555 1_555
C12 N1 1_555 1_555
C13 O2 1_555 1_555
C14 C13 1_555 1_555
C15 C14 1_555 1_555
H10 C15 1_555 1_555
C16 C15 1_555 1_555
H11 C16 1_555 1_555
C17 C14 1_555 1_555
H12 C17 1_555 1_555
C18 C16 1_555 1_555
C19 O3 1_555 1_555
C20 C19 1_555 1_555
C21 C20 1_555 1_555
H13 C21 1_555 1_555
C22 C21 1_555 1_555
H14 C22 1_555 1_555
C23 C20 1_555 1_555
H15 C23 1_555 1_555
C24 C22 1_555 1_555
C25 O5 1_555 1_555
C26 C25 1_555 1_555
C27 C26 1_555 1_555
H16 C27 1_555 1_555
C28 C27 1_555 1_555
H17 C28 1_555 1_555
C29 C26 1_555 1_555
H18 C29 1_555 1_555
C30 C28 1_555 1_555
C31 O7 1_555 1_555
C32 C31 1_555 1_555
C33 C32 1_555 1_555
H19 C33 1_555 1_555
C34 C33 1_555 1_555
H20 C34 1_555 1_555
C35 C32 1_555 1_555
H21 C35 1_555 1_555
C36 C34 1_555 1_555
C17A C18 1_555 1_555
C14A C17A 1_555 1_555
C13A C14A 1_555 1_555
O1A C13A 1_555 1_555
O2A C13A 1_555 1_555
C15A C14A 1_555 1_555
H10A C15A 1_555 1_555
C16A C15A 1_555 1_555
H11A C16A 1_555 1_555
C18A C17 1_555 1_555
H12A C17A 1_555 1_555
C23A C24 1_555 1_555
C20A C23A 1_555 1_555
C19A C20A 1_555 1_555
O3A C19A 1_555 1_555
O4A C19A 1_555 1_555
C21A C20A 1_555 1_555
H13A C21A 1_555 1_555
C22A C21A 1_555 1_555
H14A C22A 1_555 1_555
C24A C23 1_555 1_555
H15A C23A 1_555 1_555
C29A C30 1_555 1_555
C26A C29A 1_555 1_555
C25A C26A 1_555 1_555
O5A C25A 1_555 1_555
O6A C25A 1_555 1_555
C27A C26A 1_555 1_555
H16A C27A 1_555 1_555
C28A C27A 1_555 1_555
H17A C28A 1_555 1_555
C30A C29 1_555 1_555
H18A C29A 1_555 1_555
C35A C36 1_555 1_555
C32A C35A 1_555 1_555
C31A C32A 1_555 1_555
O7A C31A 1_555 1_555
H1A O7A 1_555 1_555
O8A C31A 1_555 1_555
C33A C32A 1_555 1_555
H19A C33A 1_555 1_555
C34A C33A 1_555 1_555
H20A C34A 1_555 1_555
C36A C35 1_555 1_555
H21A C35A 1_555 1_555
Tb1A O1A 1_555 1_555
N1A Tb1A 1_555 1_555
N2A Tb1A 1_555 1_555
C1A N1A 1_555 1_555
H2A C1A 1_555 1_555
C2A C1A 1_555 1_555
H3A C2A 1_555 1_555
C3A C2A 1_555 1_555
H4A C3A 1_555 1_555
C4A C3A 1_555 1_555
C5A C4A 1_555 1_555
H5A C5A 1_555 1_555
C6A C5A 1_555 1_555
H6A C6A 1_555 1_555
C7A C6A 1_555 1_555
C8A C7A 1_555 1_555
H7A C8A 1_555 1_555
C9A C8A 1_555 1_555
H8A C9A 1_555 1_555
C10A N2A 1_555 1_555
H9A C10A 1_555 1_555
C11A N2A 1_555 1_555
C12A N1A 1_555 1_555
O6A_2 Tb1 1_555 1_555
Tb1A_2 O6 1_555 1_555
Tb1A_3 O3A 1_555 1_555
Tb1A_4 O5A 1_555 1_555
Tb1_2 O6A 1_555 1_555
O3A_2 Tb1A 1_555 1_555
O4A_2 Tb1A 1_555 1_555
O5A_2 Tb1A 1_555 1_555
O6_2 Tb1A 1_555 1_555
O4 C19 1_555 1_555
C4 C12 1_555 1_555
C7 C11 1_555 1_555
C9 C10 1_555 1_555
C11 C12 1_555 1_555
C18 C18A 1_555 1_555
C24 C24A 1_555 1_555
C30 C30A 1_555 1_555
C36 C36A 1_555 1_555
O2A Tb1A 1_555 1_555
C16A C18A 1_555 1_555
O4A Tb1A_3 1_555 1_555
C22A C24A 1_555 1_555
C28A C30A 1_555 1_555
C34A C36A 1_555 1_555
C4A C12A 1_555 1_555
C7A C11A 1_555 1_555
C9A C10A 1_555 1_555
C11A C12A 1_555 1_555

#END
