
#######################################################################
#
#                 Cambridge Crystallographic Data Centre
#                                CCDC 
#
#######################################################################
#
# If this CIF has been generated from an entry in the Cambridge 
# Structural Database, then it will include bibliographic, chemical, 
# crystal, experimental, refinement or atomic coordinate data resulting 
# from the CCDC's data processing and validation procedures.
#
#######################################################################

data_DACYAI
_symmetry_cell_setting           triclinic
_symmetry_space_group_name_H-M   'P -1'
_symmetry_Int_Tables_number      2
_space_group_name_Hall           '-P 1'
loop_
_symmetry_equiv_pos_site_id
_symmetry_equiv_pos_as_xyz
1 x,y,z
2 -x,-y,-z
_cell_length_a                   10.8762(2)
_cell_length_b                   12.2294(3)
_cell_length_c                   12.3328(3)
_cell_angle_alpha                93.9317(11)
_cell_angle_beta                 106.6736(11)
_cell_angle_gamma                101.2612(13)
_cell_volume                     1527.54
loop_
_atom_site_label
_atom_site_type_symbol
_atom_site_fract_x
_atom_site_fract_y
_atom_site_fract_z
Yb1 Yb 0.08402(2) -0.190278(18) -0.001878(17)
O1 O 0.1917(3) -0.2486(3) -0.1398(3)
O2 O -0.0085(4) -0.3390(4) -0.1557(3)
O3 O -0.0391(3) -0.3187(3) 0.0867(3)
O4 O -0.1573(3) -0.2309(3) -0.0379(3)
O5 O 0.0693(3) -0.0654(3) 0.1352(3)
O6 O -0.0467(3) 0.0653(3) 0.1287(3)
N1 N 0.3176(4) -0.0731(3) 0.0822(3)
N2 N 0.2453(4) -0.2899(3) 0.1220(3)
C1 C 0.3534(6) 0.0324(4) 0.0669(5)
H2 H 0.2889 0.0667 0.0257
C2 C 0.4836(6) 0.0962(5) 0.1092(6)
H3 H 0.5044 0.1705 0.0958
C3 C 0.5777(6) 0.0478(5) 0.1696(6)
H4 H 0.6644 0.0889 0.1978
C4 C 0.5461(5) -0.0649(5) 0.1906(5)
C5 C 0.6392(6) -0.1221(6) 0.2548(6)
H5 H 0.7266 -0.0837 0.2862
C6 C 0.6052(6) -0.2276(7) 0.2710(7)
H6 H 0.6698 -0.2626 0.3106
C7 C 0.4705(5) -0.2900(5) 0.2288(5)
C8 C 0.4273(6) -0.3983(6) 0.2485(6)
H7 H 0.4879 -0.4357 0.2904
C9 C 0.2981(6) -0.4515(5) 0.2079(6)
H8 H 0.2692 -0.5243 0.2221
C10 C 0.2104(5) -0.3937(4) 0.1445(5)
H9 H 0.1219 -0.4301 0.1163
C11 C 0.3748(5) -0.2370(4) 0.1634(4)
C12 C 0.4129(5) -0.1219(4) 0.1438(4)
C13 C 0.0884(5) -0.3184(4) -0.1942(4)
C14 C 0.0752(5) -0.3769(4) -0.3108(4)
C15 C 0.1794(5) -0.3542(5) -0.3575(5)
H10 H 0.2559 -0.3012 -0.3179
C16 C 0.1693(6) -0.4086(5) -0.4593(5)
H11 H 0.2396 -0.3938 -0.4887
C17 C -0.0364(6) -0.4528(5) -0.3689(5)
H12 H -0.1049 -0.4674 -0.3371
C18 C 0.0518(5) -0.4890(5) -0.5228(5)
C19 C -0.1487(5) -0.3064(4) 0.0288(4)
C20 C -0.2716(5) -0.3833(4) 0.0344(5)
C21 C -0.2600(5) -0.4602(5) 0.1138(5)
H13 H -0.1782 -0.4589 0.1653
C22 C -0.3691(5) -0.5374(5) 0.1159(6)
H14 H -0.3604 -0.5886 0.1686
C23 C -0.3903(5) -0.3817(5) -0.0380(5)
H15 H -0.3965 -0.3281 -0.0881
C24 C -0.4940(5) -0.5401(4) 0.0395(5)
C25 C 0.0090(4) -0.0059(4) 0.1774(4)
C26 C 0.0056(5) -0.0220(4) 0.2972(4)
C27 C 0.0162(5) -0.1263(4) 0.3364(4)
H16 H 0.0242 -0.1851 0.2888
C28 C 0.0145(6) -0.1406(4) 0.4454(4)
H17 H 0.0197 -0.2099 0.4706
C29 C -0.0054(5) 0.0649(4) 0.3669(4)
H18 H -0.0134 0.1330 0.3394
C30 C 0.0049(5) -0.0529(4) 0.5194(4)
C17A C 0.0364(6) -0.5472(5) -0.6311(5)
C14A C -0.0752(5) -0.6231(4) -0.6892(4)
C13A C -0.0884(5) -0.6816(4) -0.8058(4)
O1A O -0.1917(3) -0.7514(3) -0.8602(3)
O2A O 0.0085(4) -0.6610(4) -0.8443(3)
C15A C -0.1794(5) -0.6458(5) -0.6425(5)
H10A H -0.2559 -0.6988 -0.6821
C16A C -0.1693(6) -0.5914(5) -0.5407(5)
H11A H -0.2396 -0.6062 -0.5113
C18A C -0.0518(5) -0.5110(5) -0.4772(5)
H12A H 0.1049 -0.5326 -0.6629
C23A C -0.6097(5) -0.6183(5) 0.0380(5)
C20A C -0.7284(5) -0.6167(4) -0.0344(5)
C19A C -0.8513(5) -0.6936(4) -0.0288(4)
O3A O -0.9609(3) -0.6813(3) -0.0867(3)
O4A O -0.8427(3) -0.7691(3) 0.0379(3)
C21A C -0.7400(5) -0.5398(5) -0.1138(5)
H13A H -0.8218 -0.5411 -0.1653
C22A C -0.6309(5) -0.4626(5) -0.1159(6)
H14A H -0.6396 -0.4114 -0.1686
C24A C -0.5060(5) -0.4599(4) -0.0395(5)
H15A H -0.6035 -0.6719 0.0881
C29A C 0.0054(5) -0.0649(4) 0.6331(4)
C26A C -0.0056(5) 0.0220(4) 0.7028(4)
C25A C -0.0090(4) 0.0059(4) 0.8226(4)
O5A O -0.0693(3) 0.0654(3) 0.8648(3)
O6A O 0.0467(3) -0.0653(3) 0.8713(3)
C27A C -0.0162(5) 0.1263(4) 0.6636(4)
H16A H -0.0242 0.1851 0.7112
C28A C -0.0145(6) 0.1406(4) 0.5546(4)
H17A H -0.0197 0.2099 0.5294
C30A C -0.0049(5) 0.0529(4) 0.4806(4)
H18A H 0.0134 -0.1330 0.6606
Yb1A Yb -0.08402(2) -0.809722(18) -0.998122(17)
N1A N -0.3176(4) -0.9269(3) -1.0822(3)
N2A N -0.2453(4) -0.7101(3) -1.1220(3)
C1A C -0.3534(6) -1.0324(4) -1.0669(5)
H2A H -0.2889 -1.0667 -1.0257
C2A C -0.4836(6) -1.0962(5) -1.1092(6)
H3A H -0.5044 -1.1705 -1.0958
C3A C -0.5777(6) -1.0478(5) -1.1696(6)
H4A H -0.6644 -1.0889 -1.1978
C4A C -0.5461(5) -0.9351(5) -1.1906(5)
C5A C -0.6392(6) -0.8779(6) -1.2548(6)
H5A H -0.7266 -0.9163 -1.2862
C6A C -0.6052(6) -0.7724(7) -1.2710(7)
H6A H -0.6698 -0.7374 -1.3106
C7A C -0.4705(5) -0.7100(5) -1.2288(5)
C8A C -0.4273(6) -0.6017(6) -1.2485(6)
H7A H -0.4879 -0.5643 -1.2904
C9A C -0.2981(6) -0.5485(5) -1.2079(6)
H8A H -0.2692 -0.4757 -1.2221
C10A C -0.2104(5) -0.6063(4) -1.1445(5)
H9A H -0.1219 -0.5699 -1.1163
C11A C -0.3748(5) -0.7630(4) -1.1634(4)
C12A C -0.4129(5) -0.8781(4) -1.1438(4)
O6A_2 O 0.0467(3) -0.0653(3) -0.1287(3)
Yb1A_2 Yb -0.08402(2) 0.190278(18) 0.001878(17)
Yb1A_3 Yb -1.08402(2) -0.809722(18) 0.001878(17)
Yb1A_4 Yb -0.08402(2) 0.190278(18) 1.001878(17)
Yb1_2 Yb 0.08402(2) -0.190278(18) 0.998122(17)
O3A_2 O 0.0391(3) -0.6813(3) -1.0867(3)
O4A_2 O 0.1573(3) -0.7691(3) -0.9621(3)
O5A_2 O -0.0693(3) -0.9346(3) -1.1352(3)
O6_2 O -0.0467(3) -0.9347(3) -0.8713(3)
O7 O 0.2530(5) 0.1823(4) 0.2483(4)
H1 H 0.1946 0.2079 0.2632
O8 O 0.4189(6) 0.3287(4) 0.3176(5)
C31 C 0.3677(7) 0.2335(5) 0.3213(6)
C32 C 0.4269(5) 0.1585(5) 0.3993(5)
C33 C 0.5476(6) 0.2082(5) 0.4884(5)
H19 H 0.5811 0.2855 0.4988
C34 C 0.6124(6) 0.1425(5) 0.5570(5)
H20 H 0.6915 0.1747 0.6134
C35 C 0.3750(5) 0.0463(5) 0.3855(5)
H21 H 0.2959 0.0156 0.3287
C36 C 0.5604(5) 0.0246(4) 0.5435(4)
C35A C 0.6250(5) -0.0463(5) 0.6145(5)
C32A C 0.5731(5) -0.1585(5) 0.6007(5)
C31A C 0.6323(7) -0.2335(5) 0.6787(6)
O7A O 0.7470(5) -0.1823(4) 0.7517(4)
H1A H 0.8054 -0.2079 0.7368
O8A O 0.5811(6) -0.3287(4) 0.6824(5)
C33A C 0.4524(6) -0.2082(5) 0.5116(5)
H19A H 0.4189 -0.2855 0.5012
C34A C 0.3876(6) -0.1425(5) 0.4430(5)
H20A H 0.3085 -0.1747 0.3866
C36A C 0.4396(5) -0.0246(4) 0.4565(4)
H21A H 0.7041 -0.0156 0.6713
loop_
_geom_bond_atom_site_label_1
_geom_bond_atom_site_label_2
_geom_bond_site_symmetry_1
_geom_bond_site_symmetry_2
Yb1 O1 1_555 1_555
O1 C13 1_555 1_555
O2 Yb1 1_555 1_555
O3 Yb1 1_555 1_555
O4 Yb1 1_555 1_555
O5 Yb1 1_555 1_555
O6 C25 1_555 1_555
O7 H1 1_555 1_555
O8 C31 1_555 1_555
N1 Yb1 1_555 1_555
N2 Yb1 1_555 1_555
C1 N1 1_555 1_555
H2 C1 1_555 1_555
C2 C1 1_555 1_555
H3 C2 1_555 1_555
C3 C2 1_555 1_555
H4 C3 1_555 1_555
C4 C3 1_555 1_555
C5 C4 1_555 1_555
H5 C5 1_555 1_555
C6 C5 1_555 1_555
H6 C6 1_555 1_555
C7 C6 1_555 1_555
C8 C7 1_555 1_555
H7 C8 1_555 1_555
C9 C8 1_555 1_555
H8 C9 1_555 1_555
C10 N2 1_555 1_555
H9 C10 1_555 1_555
C11 N2 1_555 1_555
C12 N1 1_555 1_555
C13 O2 1_555 1_555
C14 C13 1_555 1_555
C15 C14 1_555 1_555
H10 C15 1_555 1_555
C16 C15 1_555 1_555
H11 C16 1_555 1_555
C17 C14 1_555 1_555
H12 C17 1_555 1_555
C18 C16 1_555 1_555
C19 O3 1_555 1_555
C20 C19 1_555 1_555
C21 C20 1_555 1_555
H13 C21 1_555 1_555
C22 C21 1_555 1_555
H14 C22 1_555 1_555
C23 C20 1_555 1_555
H15 C23 1_555 1_555
C24 C22 1_555 1_555
C25 O5 1_555 1_555
C26 C25 1_555 1_555
C27 C26 1_555 1_555
H16 C27 1_555 1_555
C28 C27 1_555 1_555
H17 C28 1_555 1_555
C29 C26 1_555 1_555
H18 C29 1_555 1_555
C30 C28 1_555 1_555
C31 O7 1_555 1_555
C32 C31 1_555 1_555
C33 C32 1_555 1_555
H19 C33 1_555 1_555
C34 C33 1_555 1_555
H20 C34 1_555 1_555
C35 C32 1_555 1_555
H21 C35 1_555 1_555
C36 C34 1_555 1_555
C17A C18 1_555 1_555
C14A C17A 1_555 1_555
C13A C14A 1_555 1_555
O1A C13A 1_555 1_555
O2A C13A 1_555 1_555
C15A C14A 1_555 1_555
H10A C15A 1_555 1_555
C16A C15A 1_555 1_555
H11A C16A 1_555 1_555
C18A C17 1_555 1_555
H12A C17A 1_555 1_555
C23A C24 1_555 1_555
C20A C23A 1_555 1_555
C19A C20A 1_555 1_555
O3A C19A 1_555 1_555
O4A C19A 1_555 1_555
C21A C20A 1_555 1_555
H13A C21A 1_555 1_555
C22A C21A 1_555 1_555
H14A C22A 1_555 1_555
C24A C23 1_555 1_555
H15A C23A 1_555 1_555
C29A C30 1_555 1_555
C26A C29A 1_555 1_555
C25A C26A 1_555 1_555
O5A C25A 1_555 1_555
O6A C25A 1_555 1_555
C27A C26A 1_555 1_555
H16A C27A 1_555 1_555
C28A C27A 1_555 1_555
H17A C28A 1_555 1_555
C30A C29 1_555 1_555
H18A C29A 1_555 1_555
C35A C36 1_555 1_555
C32A C35A 1_555 1_555
C31A C32A 1_555 1_555
O7A C31A 1_555 1_555
H1A O7A 1_555 1_555
O8A C31A 1_555 1_555
C33A C32A 1_555 1_555
H19A C33A 1_555 1_555
C34A C33A 1_555 1_555
H20A C34A 1_555 1_555
C36A C35 1_555 1_555
H21A C35A 1_555 1_555
Yb1A O1A 1_555 1_555
N1A Yb1A 1_555 1_555
N2A Yb1A 1_555 1_555
C1A N1A 1_555 1_555
H2A C1A 1_555 1_555
C2A C1A 1_555 1_555
H3A C2A 1_555 1_555
C3A C2A 1_555 1_555
H4A C3A 1_555 1_555
C4A C3A 1_555 1_555
C5A C4A 1_555 1_555
H5A C5A 1_555 1_555
C6A C5A 1_555 1_555
H6A C6A 1_555 1_555
C7A C6A 1_555 1_555
C8A C7A 1_555 1_555
H7A C8A 1_555 1_555
C9A C8A 1_555 1_555
H8A C9A 1_555 1_555
C10A N2A 1_555 1_555
H9A C10A 1_555 1_555
C11A N2A 1_555 1_555
C12A N1A 1_555 1_555
O6A_2 Yb1 1_555 1_555
Yb1A_2 O6 1_555 1_555
Yb1A_3 O3A 1_555 1_555
Yb1A_4 O5A 1_555 1_555
Yb1_2 O6A 1_555 1_555
O3A_2 Yb1A 1_555 1_555
O4A_2 Yb1A 1_555 1_555
O5A_2 Yb1A 1_555 1_555
O6_2 Yb1A 1_555 1_555
O4 C19 1_555 1_555
C4 C12 1_555 1_555
C7 C11 1_555 1_555
C9 C10 1_555 1_555
C11 C12 1_555 1_555
C18 C18A 1_555 1_555
C24 C24A 1_555 1_555
C30 C30A 1_555 1_555
C36 C36A 1_555 1_555
O2A Yb1A 1_555 1_555
C16A C18A 1_555 1_555
O4A Yb1A_3 1_555 1_555
C22A C24A 1_555 1_555
C28A C30A 1_555 1_555
C34A C36A 1_555 1_555
C4A C12A 1_555 1_555
C7A C11A 1_555 1_555
C9A C10A 1_555 1_555
C11A C12A 1_555 1_555

#END
