
#######################################################################
#
#                 Cambridge Crystallographic Data Centre
#                                CCDC 
#
#######################################################################
#
# If this CIF has been generated from an entry in the Cambridge 
# Structural Database, then it will include bibliographic, chemical, 
# crystal, experimental, refinement or atomic coordinate data resulting 
# from the CCDC's data processing and validation procedures.
#
#######################################################################

data_DAHNUW
_symmetry_cell_setting           monoclinic
_symmetry_space_group_name_H-M   'P 21/n'
_symmetry_Int_Tables_number      14
_space_group_name_Hall           '-P 2yn'
loop_
_symmetry_equiv_pos_site_id
_symmetry_equiv_pos_as_xyz
1 x,y,z
2 1/2+x,1/2-y,1/2+z
3 -x,-y,-z
4 1/2-x,1/2+y,1/2-z
_cell_length_a                   10.0350(5)
_cell_length_b                   21.2040(18)
_cell_length_c                   11.1150(10)
_cell_angle_alpha                90
_cell_angle_beta                 92.453(7)
_cell_angle_gamma                90
_cell_volume                     2362.91
loop_
_atom_site_label
_atom_site_type_symbol
_atom_site_fract_x
_atom_site_fract_y
_atom_site_fract_z
Nd1 Nd 0.56769(2) 0.095456(10) -0.05977(2)
Nd2 Nd 0.07836(2) 0.105155(10) 0.30640(2)
O1 O 0.4039(3) 0.15374(14) 0.0505(3)
O2 O 0.2543(3) 0.15910(14) 0.1926(3)
O3 O 0.3983(3) 0.02598(13) 0.0639(3)
O4 O 0.2279(3) 0.03429(13) 0.1881(3)
O5 O 0.8148(3) 0.08851(14) -0.0332(3)
O6 O 0.9926(3) 0.09633(14) 0.0931(3)
O7 O 0.6544(3) 0.08652(14) 0.1518(3)
O8 O 0.8323(3) 0.09244(15) 0.2804(3)
O9 O 0.6636(3) 0.20315(13) -0.0173(3)
O10 O 0.6491(3) 0.30740(13) -0.0511(3)
O11 O 0.4943(3) 0.18258(13) -0.2054(3)
O12 O 0.4816(3) 0.28672(14) -0.2401(3)
O13 O 0.0357(3) -0.00889(13) 0.3484(3)
O14 O 0.0041(3) -0.08249(14) 0.4886(3)
O15 O 0.3666(3) 0.06223(15) -0.1879(3)
H1 H 0.2926 0.0523 -0.1429
H2 H 0.3430 0.0917 -0.2512
O16 O 0.6618(4) 0.07688(16) -0.2563(3)
H3 H 0.6648 0.1011 -0.3202
H4 H 0.7360 0.0517 -0.2518
O17 O 0.2797(3) 0.06873(17) 0.4328(3)
H5 H 0.3595 0.0622 0.4060
H6 H 0.3058 0.0907 0.4993
C1 C 0.3261(4) 0.1295(2) 0.1227(4)
C2 C 0.3151(4) 0.05661(19) 0.1250(4)
C3 C 0.8691(4) 0.09162(18) 0.0692(4)
C4 C 0.7772(5) 0.09027(19) 0.1768(4)
C5 C 0.6199(4) 0.25057(19) -0.0740(4)
C6 C 0.5235(4) 0.23937(19) -0.1836(4)
C7 C 0.0113(4) -0.02662(19) 0.4524(4)
C7B C -0.0113(4) 0.02662(19) 0.5476(4)
O13B O -0.0357(3) 0.00889(13) 0.6516(3)
O14B O -0.0041(3) 0.08249(14) 0.5114(3)
O1B O 0.5961(3) -0.15374(14) -0.0505(3)
O2B O 0.7457(3) -0.15910(14) -0.1926(3)
O3B O 0.6017(3) -0.02598(13) -0.0639(3)
O4B O 0.7721(3) -0.03429(13) -0.1881(3)
C1B C 0.6739(4) -0.1295(2) -0.1227(4)
C2B C 0.6849(4) -0.05661(19) -0.1250(4)
Nd1B Nd 0.43231(2) -0.095456(10) 0.05977(2)
Nd2B Nd 0.92164(2) -0.105155(10) -0.30640(2)
O5_2 O -0.1852(3) 0.08851(14) -0.0332(3)
O6_2 O -0.0074(3) 0.09633(14) 0.0931(3)
O7_2 O -0.3456(3) 0.08652(14) 0.1518(3)
O8_2 O -0.1677(3) 0.09244(15) 0.2804(3)
C3_2 C -0.1309(4) 0.09162(18) 0.0692(4)
C4_2 C -0.2228(5) 0.09027(19) 0.1768(4)
O9A O 0.1636(3) 0.29685(13) 0.4827(3)
O10A O 0.1491(3) 0.19260(13) 0.4489(3)
O11A O -0.0057(3) 0.31742(13) 0.2946(3)
O12A O -0.0184(3) 0.21328(14) 0.2599(3)
C5A C 0.1199(4) 0.24943(19) 0.4260(4)
C6A C 0.0235(4) 0.26063(19) 0.3164(4)
O15B O 0.6334(3) -0.06223(15) 0.1879(3)
H1B H 0.7074 -0.0523 0.1429
H2B H 0.6570 -0.0917 0.2512
O16B O 0.3382(4) -0.07688(16) 0.2563(3)
H3B H 0.3352 -0.1011 0.3202
H4B H 0.2640 -0.0517 0.2518
O17B O 0.7203(3) -0.06873(17) -0.4328(3)
H5B H 0.6405 -0.0622 -0.4060
H6B H 0.6942 -0.0907 -0.4993
Nd2_2 Nd 1.07836(2) 0.105155(10) 0.30640(2)
Nd2A Nd 0.57836(2) 0.394845(10) -0.19360(2)
Nd2B_2 Nd -0.07836(2) -0.105155(10) 0.69360(2)
O5B O 0.1852(3) -0.08851(14) 0.0332(3)
O7B O 0.3456(3) -0.08652(14) -0.1518(3)
O9B O 0.3364(3) -0.20315(13) 0.0173(3)
O11B O 0.5057(3) -0.18258(13) 0.2054(3)
O6B O 1.0074(3) -0.09633(14) -0.0931(3)
O8B O 1.1677(3) -0.09244(15) -0.2804(3)
O10C O 0.8509(3) -0.19260(13) -0.4489(3)
O12C O 1.0184(3) -0.21328(14) -0.2599(3)
O13B_2 O 0.9643(3) 0.00889(13) -0.3484(3)
O14_2 O 1.0041(3) -0.08249(14) -0.5114(3)
Nd1_2 Nd -0.43231(2) 0.095456(10) -0.05977(2)
Nd1A Nd 0.06769(2) 0.404544(10) 0.44023(2)
O18 O 0.1109(4) 0.04294(17) 0.8764(3)
H7 H 0.0748 0.0612 0.9480
H8 H 0.0494 0.0364 0.8153
O19 O 0.3091(4) 0.14661(19) 0.6289(3)
H9 H 0.2576 0.1752 0.5950
H10 H 0.3732 0.1674 0.6717
O20 O 0.5305(4) 0.0419(2) 0.3544(4)
H11 H 0.5808 0.0650 0.3001
H12 H 0.5900 0.0414 0.4187
O21 O 0.2097(5) 0.3789(2) 0.0225(4)
H13 H 0.1620 0.4111 0.0421
H14 H 0.2950 0.3813 0.0012
N1 N 0.5490(4) 0.26371(19) 0.3442(4)
C8 C 0.4672(7) 0.2327(4) 0.4303(6)
H15 H 0.4266 0.2638 0.4798
H16 H 0.5217 0.2051 0.4802
H17 H 0.3990 0.2086 0.3883
C9 C 0.4661(7) 0.3068(3) 0.2679(6)
H18 H 0.5209 0.3274 0.2111
H19 H 0.4260 0.3379 0.3177
H20 H 0.3974 0.2832 0.2254
C10 C 0.6551(7) 0.2989(3) 0.4134(6)
H21 H 0.7108 0.3204 0.3586
H22 H 0.7082 0.2698 0.4613
H23 H 0.6149 0.3290 0.4651
C11 C 0.6144(7) 0.2180(3) 0.2669(6)
H24 H 0.6673 0.2401 0.2105
H25 H 0.5479 0.1933 0.2238
H26 H 0.6708 0.1908 0.3157
loop_
_geom_bond_atom_site_label_1
_geom_bond_atom_site_label_2
_geom_bond_site_symmetry_1
_geom_bond_site_symmetry_2
Nd1 O1 1_555 1_555
Nd2 O2 1_555 1_555
O1 C1 1_555 1_555
O2 C1 1_555 1_555
O3 Nd1 1_555 1_555
O4 Nd2 1_555 1_555
O5 Nd1 1_555 1_555
O6 C3 1_555 1_555
O7 Nd1 1_555 1_555
O8 C4 1_555 1_555
O9 Nd1 1_555 1_555
O10 C5 1_555 1_555
O11 Nd1 1_555 1_555
O12 C6 1_555 1_555
O13 Nd2 1_555 1_555
O14 C7 1_555 1_555
O15 Nd1 1_555 1_555
H1 O15 1_555 1_555
H2 O15 1_555 1_555
O16 Nd1 1_555 1_555
H3 O16 1_555 1_555
H4 O16 1_555 1_555
O17 Nd2 1_555 1_555
H5 O17 1_555 1_555
H6 O17 1_555 1_555
O18 H7 1_555 1_555
H8 O18 1_555 1_555
O19 H9 1_555 1_555
H10 O19 1_555 1_555
O20 H11 1_555 1_555
H12 O20 1_555 1_555
O21 H13 1_555 1_555
H14 O21 1_555 1_555
N1 C8 1_555 1_555
C1 C2 1_555 1_555
C2 O3 1_555 1_555
C3 O5 1_555 1_555
C4 O7 1_555 1_555
C5 O9 1_555 1_555
C6 O11 1_555 1_555
C7 O13 1_555 1_555
C8 H15 1_555 1_555
H16 C8 1_555 1_555
H17 C8 1_555 1_555
C9 N1 1_555 1_555
H18 C9 1_555 1_555
H19 C9 1_555 1_555
H20 C9 1_555 1_555
C10 N1 1_555 1_555
H21 C10 1_555 1_555
H22 C10 1_555 1_555
H23 C10 1_555 1_555
C11 N1 1_555 1_555
H24 C11 1_555 1_555
H25 C11 1_555 1_555
H26 C11 1_555 1_555
C7B C7 1_555 1_555
O13B C7B 1_555 1_555
O14B Nd2 1_555 1_555
O1B C1B 1_555 1_555
O2B C1B 1_555 1_555
O3B Nd1 1_555 1_555
O4B C2B 1_555 1_555
C1B C2B 1_555 1_555
C2B O3B 1_555 1_555
Nd1B O3 1_555 1_555
Nd2B O2B 1_555 1_555
O5_2 C3_2 1_555 1_555
O6_2 Nd2 1_555 1_555
O7_2 C4_2 1_555 1_555
O8_2 Nd2 1_555 1_555
C3_2 O6_2 1_555 1_555
C4_2 O8_2 1_555 1_555
O9A C5A 1_555 1_555
O10A Nd2 1_555 1_555
O11A C6A 1_555 1_555
O12A Nd2 1_555 1_555
C5A O10A 1_555 1_555
C6A O12A 1_555 1_555
O15B Nd1B 1_555 1_555
H1B O15B 1_555 1_555
H2B O15B 1_555 1_555
O16B Nd1B 1_555 1_555
H3B O16B 1_555 1_555
H4B O16B 1_555 1_555
O17B Nd2B 1_555 1_555
H5B O17B 1_555 1_555
H6B O17B 1_555 1_555
Nd2_2 O6 1_555 1_555
Nd2A O10 1_555 1_555
Nd2B_2 O14 1_555 1_555
O5B Nd1B 1_555 1_555
O7B Nd1B 1_555 1_555
O9B Nd1B 1_555 1_555
O11B Nd1B 1_555 1_555
O6B Nd2B 1_555 1_555
O8B Nd2B 1_555 1_555
O10C Nd2B 1_555 1_555
O12C Nd2B 1_555 1_555
O13B_2 Nd2B 1_555 1_555
O14_2 Nd2B 1_555 1_555
Nd1_2 O5_2 1_555 1_555
Nd1A O9A 1_555 1_555
O4 C2 1_555 1_555
O8 Nd2_2 1_555 1_555
O12 Nd2A 1_555 1_555
C3 C4 1_555 1_555
C5 C6 1_555 1_555
C7B O14B 1_555 1_555
O13B Nd2B_2 1_555 1_555
O1B Nd1B 1_555 1_555
O3B Nd1B 1_555 1_555
O4B Nd2B 1_555 1_555
O7_2 Nd1_2 1_555 1_555
C3_2 C4_2 1_555 1_555
O11A Nd1A 1_555 1_555
C5A C6A 1_555 1_555

#END
