
#######################################################################
#
#                 Cambridge Crystallographic Data Centre
#                                CCDC 
#
#######################################################################
#
# If this CIF has been generated from an entry in the Cambridge 
# Structural Database, then it will include bibliographic, chemical, 
# crystal, experimental, refinement or atomic coordinate data resulting 
# from the CCDC's data processing and validation procedures.
#
#######################################################################

data_DAPWAT
_symmetry_cell_setting           monoclinic
_symmetry_space_group_name_H-M   'C 2/c'
_symmetry_Int_Tables_number      15
_space_group_name_Hall           '-C 2yn'
loop_
_symmetry_equiv_pos_site_id
_symmetry_equiv_pos_as_xyz
1 x,y,z
2 1/2+x,1/2+y,z
3 -x,y,1/2-z
4 1/2-x,1/2+y,1/2-z
5 -x,-y,-z
6 1/2-x,1/2-y,-z
7 x,-y,1/2+z
8 1/2+x,1/2-y,1/2+z
_cell_length_a                   27.881(9)
_cell_length_b                   14.252(4)
_cell_length_c                   24.059(8)
_cell_angle_alpha                90
_cell_angle_beta                 111.799(5)
_cell_angle_gamma                90
_cell_volume                     8876.46
loop_
_atom_site_label
_atom_site_type_symbol
_atom_site_fract_x
_atom_site_fract_y
_atom_site_fract_z
C41 C 0.5321(5) 0.9869(12) 0.1925(7)
O1 O 0.5000 0.9727(8) 0.2500
C41B C 0.4679(5) 0.9869(12) 0.3075(7)
Sb1 Sb 0.483776(14) 0.72154(3) 0.587578(19)
F1 F 0.4937(2) 0.7301(5) 0.5165(2)
F2 F 0.4721(3) 0.7145(4) 0.6580(3)
F3 F 0.55148(17) 0.7453(5) 0.6267(2)
F4 F 0.41424(17) 0.7053(4) 0.5425(3)
F5 F 0.4934(3) 0.5964(4) 0.5864(3)
F6 F 0.4668(3) 0.8479(3) 0.5864(3)
Ag1 Ag 0.253845(14) 0.71701(2) 0.220626(14)
P1 P 0.24917(5) 0.55883(7) 0.17985(5)
P2 P 0.24557(5) 0.36946(7) 0.32564(5)
N1 N 0.33826(17) 0.7084(3) 0.29636(19)
N2 N 0.41923(16) 0.6659(3) 0.3400(2)
N3 N 0.16750(15) 0.6989(3) 0.34376(17)
N4 N 0.19953(15) 0.7282(2) 0.27488(16)
C1 C 0.26287(18) 0.4644(3) 0.23554(18)
H1 H 0.2606 0.4046 0.2154
H2 H 0.2980 0.4713 0.2640
C2 C 0.22672(19) 0.4629(3) 0.26936(18)
H3 H 0.1916 0.4524 0.2416
H4 H 0.2279 0.5229 0.2888
C3 C 0.29870(18) 0.5422(3) 0.14815(18)
C4 C 0.3348(2) 0.4709(4) 0.1648(2)
H5 H 0.3328 0.4244 0.1910
C5 C 0.3737(2) 0.4688(5) 0.1423(3)
H6 H 0.3987 0.4220 0.1548
C6 C 0.3762(3) 0.5345(5) 0.1021(3)
H7 H 0.4016 0.5306 0.0858
C7 C 0.3413(3) 0.6051(6) 0.0862(3)
H8 H 0.3434 0.6507 0.0595
C8 C 0.3026(2) 0.6104(4) 0.1091(2)
H9 H 0.2793 0.6599 0.0982
C9 C 0.18966(18) 0.5226(3) 0.12047(18)
C10 C 0.1454(2) 0.5695(4) 0.1135(2)
H10 H 0.1464 0.6194 0.1388
C11 C 0.0988(3) 0.5444(5) 0.0694(3)
H11 H 0.0689 0.5779 0.0645
C12 C 0.0974(3) 0.4693(5) 0.0329(3)
H12 H 0.0661 0.4511 0.0038
C13 C 0.1409(2) 0.4218(4) 0.0389(2)
H13 H 0.1397 0.3714 0.0139
C14 C 0.1871(2) 0.4485(3) 0.0824(2)
H14 H 0.2171 0.4161 0.0862
C15 C 0.20030(19) 0.3803(3) 0.3636(2)
C16 C 0.1486(2) 0.3727(6) 0.3307(3)
H15 H 0.1376 0.3660 0.2893
C17 C 0.1124(3) 0.3746(8) 0.3567(4)
H16 H 0.0774 0.3687 0.3335
C18 C 0.1285(3) 0.3852(6) 0.4170(3)
H17 H 0.1043 0.3880 0.4351
C19 C 0.1807(3) 0.3918(5) 0.4516(3)
H18 H 0.1914 0.3976 0.4930
C20 C 0.2164(2) 0.3900(4) 0.4252(2)
H19 H 0.2513 0.3951 0.4485
C21 C 0.3057(2) 0.4087(3) 0.3800(2)
C22 C 0.3421(2) 0.3426(5) 0.4097(3)
H20 H 0.3346 0.2794 0.4013
C23 C 0.3899(3) 0.3679(8) 0.4518(3)
H21 H 0.4142 0.3224 0.4714
C24 C 0.4007(3) 0.4626(9) 0.4642(4)
H22 H 0.4324 0.4802 0.4926
C25 C 0.3664(4) 0.5281(6) 0.4363(3)
H23 H 0.3742 0.5912 0.4449
C26 C 0.3189(3) 0.5018(5) 0.3939(3)
H24 H 0.2953 0.5483 0.3743
C27 C 0.3757(2) 0.6545(4) 0.2938(2)
H25 H 0.3719 0.6129 0.2626
C28 C 0.3599(3) 0.7565(5) 0.3474(3)
H26 H 0.3429 0.8009 0.3616
C29 C 0.4096(3) 0.7321(5) 0.3752(3)
H27 H 0.4327 0.7557 0.4113
C30 C 0.4675(3) 0.6159(6) 0.3524(3)
H28 H 0.4636 0.5518 0.3636
H29 H 0.4944 0.6453 0.3859
C31 C 0.4838(2) 0.6149(5) 0.2982(3)
C32 C 0.4929(3) 0.6983(5) 0.2737(4)
H30 H 0.4891 0.7551 0.2906
C33 C 0.4925(2) 0.5348(5) 0.2738(3)
H31 H 0.4882 0.4777 0.2900
C34 C 0.2070(2) 0.8016(4) 0.4697(2)
H32 H 0.1781 0.8380 0.4494
C35 C 0.2518(2) 0.6591(4) 0.4831(2)
H33 H 0.2538 0.5972 0.4719
C36 C 0.2085(2) 0.7109(4) 0.4532(2)
C37 C 0.1652(2) 0.6689(5) 0.4019(2)
H34 H 0.1672 0.6010 0.4047
H35 H 0.1325 0.6882 0.4038
C38 C 0.21045(18) 0.7071(3) 0.3316(2)
H36 H 0.2437 0.6989 0.3596
C39 C 0.12675(19) 0.7177(4) 0.2920(2)
H37 H 0.0919 0.7180 0.2866
C40 C 0.1467(2) 0.7356(4) 0.2509(2)
H38 H 0.1275 0.7510 0.2113
Ag1C Ag 0.246155(14) 1.21701(2) 0.279374(14)
Ag1C_2 Ag 0.246155(14) 0.21701(2) 0.279374(14)
Ag1B Ag 0.746155(14) 0.71701(2) 0.279374(14)
Ag1E Ag 0.246155(14) 0.78299(2) 0.779374(14)
P1C P 0.25083(5) 1.05883(7) 0.32015(5)
P2C P 0.25443(5) 0.86946(7) 0.17436(5)
P2_2 P 0.24557(5) 1.36946(7) 0.32564(5)
N1B N 0.66174(17) 0.7084(3) 0.20364(19)
N1C N 0.16174(17) 1.2084(3) 0.20364(19)
N2B N 0.58077(16) 0.6659(3) 0.1600(2)
N3E N 0.33250(15) 0.8011(3) 0.65624(17)
N4E N 0.30047(15) 0.7718(2) 0.72512(16)
N4C N 0.30047(15) 1.2282(2) 0.22512(16)
C1C C 0.23713(18) 0.9644(3) 0.26446(18)
H1C H 0.2394 0.9046 0.2846
H2C H 0.2020 0.9713 0.2360
C2C C 0.27328(19) 0.9629(3) 0.23064(18)
H3C H 0.3084 0.9524 0.2584
H4C H 0.2721 1.0229 0.2112
C3C C 0.20130(18) 1.0422(3) 0.35185(18)
C4C C 0.1652(2) 0.9709(4) 0.3352(2)
H5C H 0.1672 0.9244 0.3090
C5C C 0.1263(2) 0.9688(5) 0.3577(3)
H6C H 0.1013 0.9220 0.3452
C6C C 0.1238(3) 1.0345(5) 0.3979(3)
H7C H 0.0984 1.0306 0.4142
C7C C 0.1587(3) 1.1051(6) 0.4138(3)
H8C H 0.1566 1.1507 0.4405
C8C C 0.1974(2) 1.1104(4) 0.3909(2)
H9C H 0.2207 1.1599 0.4018
C9C C 0.31034(18) 1.0226(3) 0.37953(18)
C10C C 0.3546(2) 1.0695(4) 0.3865(2)
H10C H 0.3536 1.1194 0.3612
C11C C 0.4012(3) 1.0444(5) 0.4306(3)
H11C H 0.4311 1.0779 0.4355
C12C C 0.4026(3) 0.9693(5) 0.4671(3)
H12C H 0.4339 0.9511 0.4962
C13C C 0.3591(2) 0.9218(4) 0.4611(2)
H13C H 0.3603 0.8714 0.4861
C14C C 0.3129(2) 0.9485(3) 0.4176(2)
H14C H 0.2829 0.9161 0.4138
C15C C 0.29970(19) 0.8803(3) 0.1364(2)
C16C C 0.3514(2) 0.8727(6) 0.1693(3)
H15C H 0.3624 0.8660 0.2107
C17C C 0.3876(3) 0.8746(8) 0.1433(4)
H16C H 0.4226 0.8687 0.1665
C18C C 0.3715(3) 0.8852(6) 0.0830(3)
H17C H 0.3957 0.8880 0.0649
C19C C 0.3193(3) 0.8918(5) 0.0484(3)
H18C H 0.3086 0.8976 0.0070
C20C C 0.2836(2) 0.8900(4) 0.0748(2)
H19C H 0.2487 0.8951 0.0515
C21C C 0.1943(2) 0.9087(3) 0.1200(2)
C22C C 0.1579(2) 0.8426(5) 0.0903(3)
H20C H 0.1654 0.7794 0.0987
C23C C 0.1101(3) 0.8679(8) 0.0482(3)
H21C H 0.0858 0.8224 0.0286
C24C C 0.0993(3) 0.9626(9) 0.0358(4)
H22C H 0.0676 0.9802 0.0074
C25C C 0.1336(4) 1.0281(6) 0.0637(3)
H23C H 0.1258 1.0912 0.0551
C26C C 0.1811(3) 1.0018(5) 0.1061(3)
H24C H 0.2047 1.0483 0.1257
C27B C 0.6243(2) 0.6545(4) 0.2062(2)
H25B H 0.6281 0.6129 0.2374
C28B C 0.6401(3) 0.7565(5) 0.1526(3)
H26B H 0.6571 0.8009 0.1384
C29B C 0.5904(3) 0.7321(5) 0.1248(3)
H27B H 0.5673 0.7557 0.0887
C30B C 0.5325(3) 0.6159(6) 0.1476(3)
H28B H 0.5364 0.5518 0.1364
H29B H 0.5056 0.6453 0.1141
C31B C 0.5162(2) 0.6149(5) 0.2018(3)
C32B C 0.5071(3) 0.6983(5) 0.2263(4)
H30B H 0.5109 0.7551 0.2094
C33B C 0.5075(2) 0.5348(5) 0.2262(3)
H31B H 0.5118 0.4777 0.2100
C34E C 0.2930(2) 0.6984(4) 0.5303(2)
H32E H 0.3219 0.6620 0.5506
C35E C 0.2482(2) 0.8409(4) 0.5169(2)
H33E H 0.2462 0.9028 0.5281
C36E C 0.2915(2) 0.7891(4) 0.5468(2)
C37E C 0.3348(2) 0.8311(5) 0.5981(2)
H34E H 0.3328 0.8990 0.5953
H35E H 0.3675 0.8118 0.5962
C38E C 0.28955(18) 0.7929(3) 0.6684(2)
H36E H 0.2563 0.8011 0.6404
C39E C 0.37325(19) 0.7823(4) 0.7080(2)
H37E H 0.4081 0.7820 0.7134
C40E C 0.3533(2) 0.7644(4) 0.7491(2)
H38E H 0.3725 0.7490 0.7887
loop_
_geom_bond_atom_site_label_1
_geom_bond_atom_site_label_2
_geom_bond_site_symmetry_1
_geom_bond_site_symmetry_2
Ag1 P1 1_555 1_555
P1 C1 1_555 1_555
P2 C2 1_555 1_555
N1 Ag1 1_555 1_555
N2 C27 1_555 1_555
N3 C37 1_555 1_555
N4 Ag1 1_555 1_555
C1 H1 1_555 1_555
H2 C1 1_555 1_555
C2 C1 1_555 1_555
H3 C2 1_555 1_555
H4 C2 1_555 1_555
C3 P1 1_555 1_555
C4 C3 1_555 1_555
H5 C4 1_555 1_555
C5 C4 1_555 1_555
H6 C5 1_555 1_555
C6 C5 1_555 1_555
H7 C6 1_555 1_555
C7 C6 1_555 1_555
H8 C7 1_555 1_555
C8 C3 1_555 1_555
H9 C8 1_555 1_555
C9 P1 1_555 1_555
C10 C9 1_555 1_555
H10 C10 1_555 1_555
C11 C10 1_555 1_555
H11 C11 1_555 1_555
C12 C11 1_555 1_555
H12 C12 1_555 1_555
C13 C12 1_555 1_555
H13 C13 1_555 1_555
C14 C9 1_555 1_555
H14 C14 1_555 1_555
C15 P2 1_555 1_555
C16 C15 1_555 1_555
H15 C16 1_555 1_555
C17 C16 1_555 1_555
H16 C17 1_555 1_555
C18 C17 1_555 1_555
H17 C18 1_555 1_555
C19 C18 1_555 1_555
H18 C19 1_555 1_555
C20 C15 1_555 1_555
H19 C20 1_555 1_555
C21 P2 1_555 1_555
C22 C21 1_555 1_555
H20 C22 1_555 1_555
C23 C22 1_555 1_555
H21 C23 1_555 1_555
C24 C23 1_555 1_555
H22 C24 1_555 1_555
C25 C24 1_555 1_555
H23 C25 1_555 1_555
C26 C21 1_555 1_555
H24 C26 1_555 1_555
C27 N1 1_555 1_555
H25 C27 1_555 1_555
C28 N1 1_555 1_555
H26 C28 1_555 1_555
C29 N2 1_555 1_555
H27 C29 1_555 1_555
C30 N2 1_555 1_555
H28 C30 1_555 1_555
H29 C30 1_555 1_555
C31 C30 1_555 1_555
C32 C31 1_555 1_555
H30 C32 1_555 1_555
C33 C31 1_555 1_555
H31 C33 1_555 1_555
C34 H32 1_555 1_555
C35 H33 1_555 1_555
C36 C34 1_555 1_555
C37 C36 1_555 1_555
H34 C37 1_555 1_555
H35 C37 1_555 1_555
C38 N3 1_555 1_555
H36 C38 1_555 1_555
C39 N3 1_555 1_555
H37 C39 1_555 1_555
C40 N4 1_555 1_555
H38 C40 1_555 1_555
C41 O1 1_555 1_555
Sb1 F1 1_555 1_555
F2 Sb1 1_555 1_555
F3 Sb1 1_555 1_555
F4 Sb1 1_555 1_555
F5 Sb1 1_555 1_555
F6 Sb1 1_555 1_555
O1 C41B 1_555 1_555
Ag1C P1C 1_555 1_555
Ag1C_2 P2 1_555 1_555
Ag1B N1B 1_555 1_555
Ag1E N4E 1_555 1_555
P1C C1C 1_555 1_555
P2C Ag1 1_555 1_555
P2_2 Ag1C 1_555 1_555
N1B C27B 1_555 1_555
N1C Ag1C 1_555 1_555
N2B C27B 1_555 1_555
N3E C37E 1_555 1_555
N4E C38E 1_555 1_555
N4C Ag1C 1_555 1_555
C1C H1C 1_555 1_555
H2C C1C 1_555 1_555
C2C P2C 1_555 1_555
H3C C2C 1_555 1_555
H4C C2C 1_555 1_555
C3C P1C 1_555 1_555
C4C C3C 1_555 1_555
H5C C4C 1_555 1_555
C5C C4C 1_555 1_555
H6C C5C 1_555 1_555
C6C C5C 1_555 1_555
H7C C6C 1_555 1_555
C7C C6C 1_555 1_555
H8C C7C 1_555 1_555
C8C C3C 1_555 1_555
H9C C8C 1_555 1_555
C9C P1C 1_555 1_555
C10C C9C 1_555 1_555
H10C C10C 1_555 1_555
C11C C10C 1_555 1_555
H11C C11C 1_555 1_555
C12C C11C 1_555 1_555
H12C C12C 1_555 1_555
C13C C12C 1_555 1_555
H13C C13C 1_555 1_555
C14C C9C 1_555 1_555
H14C C14C 1_555 1_555
C15C P2C 1_555 1_555
C16C C15C 1_555 1_555
H15C C16C 1_555 1_555
C17C C16C 1_555 1_555
H16C C17C 1_555 1_555
C18C C17C 1_555 1_555
H17C C18C 1_555 1_555
C19C C18C 1_555 1_555
H18C C19C 1_555 1_555
C20C C15C 1_555 1_555
H19C C20C 1_555 1_555
C21C P2C 1_555 1_555
C22C C21C 1_555 1_555
H20C C22C 1_555 1_555
C23C C22C 1_555 1_555
H21C C23C 1_555 1_555
C24C C23C 1_555 1_555
H22C C24C 1_555 1_555
C25C C24C 1_555 1_555
H23C C25C 1_555 1_555
C26C C21C 1_555 1_555
H24C C26C 1_555 1_555
C27B H25B 1_555 1_555
C28B N1B 1_555 1_555
H26B C28B 1_555 1_555
C29B N2B 1_555 1_555
H27B C29B 1_555 1_555
C30B N2B 1_555 1_555
H28B C30B 1_555 1_555
H29B C30B 1_555 1_555
C31B C30B 1_555 1_555
C32B C32 1_555 1_555
H30B C32B 1_555 1_555
C33B C33 1_555 1_555
H31B C33B 1_555 1_555
C34E C35 1_555 1_555
H32E C34E 1_555 1_555
C35E C34 1_555 1_555
H33E C35E 1_555 1_555
C36E C34E 1_555 1_555
C37E C36E 1_555 1_555
H34E C37E 1_555 1_555
H35E C37E 1_555 1_555
C38E N3E 1_555 1_555
H36E C38E 1_555 1_555
C39E N3E 1_555 1_555
H37E C39E 1_555 1_555
C40E N4E 1_555 1_555
H38E C40E 1_555 1_555
N4 C38 1_555 1_555
C7 C8 1_555 1_555
C13 C14 1_555 1_555
C19 C20 1_555 1_555
C25 C26 1_555 1_555
C28 C29 1_555 1_555
C35 C36 1_555 1_555
C39 C40 1_555 1_555
C1C C2C 1_555 1_555
C7C C8C 1_555 1_555
C13C C14C 1_555 1_555
C19C C20C 1_555 1_555
C25C C26C 1_555 1_555
C28B C29B 1_555 1_555
C31B C32B 1_555 1_555
C31B C33B 1_555 1_555
C35E C36E 1_555 1_555
C39E C40E 1_555 1_555

#END
