
#######################################################################
#
#                 Cambridge Crystallographic Data Centre
#                                CCDC 
#
#######################################################################
#
# If this CIF has been generated from an entry in the Cambridge 
# Structural Database, then it will include bibliographic, chemical, 
# crystal, experimental, refinement or atomic coordinate data resulting 
# from the CCDC's data processing and validation procedures.
#
#######################################################################

data_DATHAJ
_symmetry_cell_setting           orthorhombic
_symmetry_space_group_name_H-M   'P n m a'
_symmetry_Int_Tables_number      62
_space_group_name_Hall           '-P 2ac 2n'
loop_
_symmetry_equiv_pos_site_id
_symmetry_equiv_pos_as_xyz
1 x,y,z
2 1/2-x,-y,1/2+z
3 -x,1/2+y,-z
4 1/2+x,1/2-y,1/2-z
5 -x,-y,-z
6 1/2+x,y,1/2-z
7 x,1/2-y,z
8 1/2-x,1/2+y,1/2+z
_cell_length_a                   13.0079(10)
_cell_length_b                   22.5014(18)
_cell_length_c                   12.6096(10)
_cell_angle_alpha                90
_cell_angle_beta                 90
_cell_angle_gamma                90
_cell_volume                     3690.78
loop_
_atom_site_label
_atom_site_type_symbol
_atom_site_fract_x
_atom_site_fract_y
_atom_site_fract_z
Nd1 Nd 0.160974(13) 0.492680(8) -0.011422(14)
Nd2 Nd 0.291844(19) 0.7500 0.16345(2)
O1 O 0.21747(18) 0.54476(11) -0.17495(19)
O2 O 0.28856(18) 0.53963(11) -0.33507(18)
O3 O 0.49128(17) 0.50116(10) -0.38998(19)
O4 O 0.59650(18) 0.43549(11) -0.31909(19)
O5 O 0.15345(18) 0.68688(11) 0.0791(2)
O6 O 0.10752(18) 0.59771(11) 0.01605(19)
O7 O 0.29853(18) 0.55784(11) 0.0519(2)
O8 O 0.34537(18) 0.64769(10) 0.1087(2)
O9 O 0.4807(3) 0.7500 0.1586(3)
O10 O 0.6427(3) 0.7500 0.2128(3)
O11 O 0.1024(2) 0.38572(12) 0.0236(2)
H1 H 0.0405 0.3930 0.0065
H2 H 0.1069 0.3742 0.0877
O12 O 0.3318(3) 0.68357(14) 0.3167(2)
H3 H 0.3490 0.6471 0.3146
H4 H 0.3278 0.6961 0.3801
O13 O 0.3353(3) 0.7500 -0.0328(3)
H5 H 0.3161 0.7203 -0.0694
N1 N 0.3203(2) 0.44895(13) -0.1025(2)
N2 N 0.4678(2) 0.41131(13) -0.1536(2)
H14 H 0.5226 0.3900 -0.1537
C1 C 0.3464(2) 0.47401(15) -0.1990(3)
C2 C 0.4396(3) 0.45105(15) -0.2318(3)
C3 C 0.3958(2) 0.41137(16) -0.0776(3)
C4 C 0.2793(2) 0.52258(15) -0.2413(3)
C5 C 0.5127(2) 0.46286(15) -0.3183(3)
C6 C 0.4078(3) 0.37744(18) 0.0234(3)
H15 H 0.4410 0.3397 0.0090
H16 H 0.3406 0.3694 0.0535
C7 C 0.4724(4) 0.4129(2) 0.1032(3)
H17 H 0.5356 0.4257 0.0693
H18 H 0.4347 0.4482 0.1244
C8 C 0.4983(4) 0.3767(3) 0.2009(4)
H19 H 0.4371 0.3703 0.2418
H20 H 0.5478 0.3977 0.2430
H21 H 0.5264 0.3391 0.1797
C9 C 0.1707(3) 0.63435(15) 0.0548(3)
C10 C 0.2812(3) 0.61070(15) 0.0738(3)
C11 C 0.5477(4) 0.7500 0.2274(5)
H22 H 0.5253 0.7500 0.2975
Nd1F Nd 0.160974(13) 1.007320(8) -0.011422(14)
Nd1A Nd 0.339026(13) 0.507320(8) -0.511422(14)
Nd1E Nd 0.660974(13) 0.492680(8) -0.488578(14)
Nd1A_2 Nd 0.339026(13) 0.507320(8) 0.488578(14)
Nd1D Nd -0.160974(13) 0.507320(8) 0.011422(14)
Nd2C Nd 0.791844(19) 0.7500 0.33655(2)
O1A O 0.28253(18) 0.45524(11) 0.32505(19)
O1F O 0.21747(18) 0.95524(11) -0.17495(19)
O2A O 0.21144(18) 0.46037(11) 0.16493(18)
O2G O 0.21144(18) 1.03963(11) 0.16493(18)
O3A O 0.00872(17) 0.49884(10) 0.11002(19)
O3E O -0.00872(17) 0.50116(10) -0.11002(19)
O3G O 0.00872(17) 1.00116(10) 0.11002(19)
O3C O -0.00872(17) 0.99884(10) -0.11002(19)
O4A O -0.09650(18) 0.56451(11) 0.18091(19)
O4E O 0.09650(18) 0.43549(11) -0.18091(19)
O4C O 0.09650(18) 1.06451(11) -0.18091(19)
O5F O 0.15345(18) 0.81312(11) 0.0791(2)
O6F O 0.10752(18) 0.90229(11) 0.01605(19)
O7F O 0.29853(18) 0.94216(11) 0.0519(2)
O8F O 0.34537(18) 0.85231(10) 0.1087(2)
O10C O 0.1427(3) 0.7500 0.2872(3)
O11F O 0.1024(2) 1.11428(12) 0.0236(2)
H1F H 0.0405 1.1070 0.0065
H2F H 0.1069 1.1258 0.0877
O12F O 0.3318(3) 0.81643(14) 0.3167(2)
H3F H 0.3490 0.8529 0.3146
H4F H 0.3278 0.8039 0.3801
H5F H 0.3161 0.7797 -0.0694
N1A N 0.1797(2) 0.55105(13) 0.3975(2)
N1F N 0.3203(2) 1.05105(13) -0.1025(2)
N2A N 0.0322(2) 0.58869(13) 0.3464(2)
H14A H -0.0226 0.6100 0.3463
C1A C 0.1536(2) 0.52599(15) 0.3010(3)
C2A C 0.0604(3) 0.54895(15) 0.2682(3)
C3A C 0.1042(2) 0.58863(16) 0.4224(3)
C4A C 0.2207(2) 0.47742(15) 0.2587(3)
C5A C -0.0127(2) 0.53714(15) 0.1817(3)
C6A C 0.0922(3) 0.62256(18) 0.5234(3)
H15A H 0.0590 0.6603 0.5090
H16A H 0.1594 0.6306 0.5535
C7A C 0.0276(4) 0.5871(2) 0.6032(3)
H17A H -0.0356 0.5743 0.5693
H18A H 0.0653 0.5518 0.6244
C8A C 0.0017(4) 0.6233(3) 0.7009(4)
H19A H 0.0629 0.6297 0.7418
H20A H -0.0478 0.6023 0.7430
H21A H -0.0264 0.6609 0.6797
C9F C 0.1707(3) 0.86565(15) 0.0548(3)
C10F C 0.2812(3) 0.88930(15) 0.0738(3)
O14 O 0.2364(3) 0.67079(15) 0.8250(3)
H6 H 0.2861 0.6741 0.7817
H7 H 0.2063 0.6375 0.8178
O15 O 0.0616(5) 0.7500 0.8839(4)
H8 H 0.1237 0.7500 0.8628
H9 H 0.0783 0.7500 0.9490
O16 O 0.3427(7) 0.7500 0.6746(7)
H10 H 0.4058 0.7500 0.6569
H11 H 0.3144 0.7500 0.6138
O17 O 0.2466(6) 0.7500 0.4820(4)
H12 H 0.1961 0.7500 0.5248
H13 H 0.2151 0.7500 0.4229
loop_
_geom_bond_atom_site_label_1
_geom_bond_atom_site_label_2
_geom_bond_site_symmetry_1
_geom_bond_site_symmetry_2
Nd1 O1 1_555 1_555
Nd2 O5 1_555 1_555
O1 C4 1_555 1_555
O2 C4 1_555 1_555
O3 C5 1_555 1_555
O4 C5 1_555 1_555
O5 C9 1_555 1_555
O6 Nd1 1_555 1_555
O7 Nd1 1_555 1_555
O8 Nd2 1_555 1_555
O9 Nd2 1_555 1_555
O10 C11 1_555 1_555
O11 Nd1 1_555 1_555
H1 O11 1_555 1_555
H2 O11 1_555 1_555
O12 Nd2 1_555 1_555
H3 O12 1_555 1_555
H4 O12 1_555 1_555
O13 Nd2 1_555 1_555
H5 O13 1_555 1_555
O14 H6 1_555 1_555
H7 O14 1_555 1_555
O15 H8 1_555 1_555
H9 O15 1_555 1_555
O16 H10 1_555 1_555
H11 O16 1_555 1_555
O17 H12 1_555 1_555
H13 O17 1_555 1_555
N1 Nd1 1_555 1_555
N2 H14 1_555 1_555
C1 N1 1_555 1_555
C2 N2 1_555 1_555
C3 N1 1_555 1_555
C4 C1 1_555 1_555
C5 C2 1_555 1_555
C6 C3 1_555 1_555
H15 C6 1_555 1_555
H16 C6 1_555 1_555
C7 C6 1_555 1_555
H17 C7 1_555 1_555
H18 C7 1_555 1_555
C8 C7 1_555 1_555
H19 C8 1_555 1_555
H20 C8 1_555 1_555
H21 C8 1_555 1_555
C9 O6 1_555 1_555
C10 O7 1_555 1_555
C11 O9 1_555 1_555
H22 C11 1_555 1_555
Nd1F O1F 1_555 1_555
Nd1A O2 1_555 1_555
Nd1E O3 1_555 1_555
Nd1A_2 O1A 1_555 1_555
Nd1D O3A 1_555 1_555
Nd2C O10 1_555 1_555
O1A C4A 1_555 1_555
O2A Nd1 1_555 1_555
O2G Nd1F 1_555 1_555
O3A Nd1 1_555 1_555
O3E Nd1 1_555 1_555
O3G Nd1F 1_555 1_555
O3C Nd1F 1_555 1_555
O4A Nd1D 1_555 1_555
O4E Nd1 1_555 1_555
O4C Nd1F 1_555 1_555
O5F Nd2 1_555 1_555
O6F Nd1F 1_555 1_555
O7F Nd1F 1_555 1_555
O8F Nd2 1_555 1_555
O10C Nd2 1_555 1_555
O11F Nd1F 1_555 1_555
H1F O11F 1_555 1_555
H2F O11F 1_555 1_555
O12F Nd2 1_555 1_555
H3F O12F 1_555 1_555
H4F O12F 1_555 1_555
H5F O13 1_555 1_555
N1A Nd1A_2 1_555 1_555
N1F Nd1F 1_555 1_555
N2A H14A 1_555 1_555
C1A N1A 1_555 1_555
C2A N2A 1_555 1_555
C3A N1A 1_555 1_555
C4A O2A 1_555 1_555
C5A O3A 1_555 1_555
C6A C3A 1_555 1_555
H15A C6A 1_555 1_555
H16A C6A 1_555 1_555
C7A C6A 1_555 1_555
H17A C7A 1_555 1_555
H18A C7A 1_555 1_555
C8A C7A 1_555 1_555
H19A C8A 1_555 1_555
H20A C8A 1_555 1_555
H21A C8A 1_555 1_555
C9F O5F 1_555 1_555
C10F O7F 1_555 1_555
O3 Nd1A 1_555 1_555
O4 Nd1E 1_555 1_555
O8 C10 1_555 1_555
N2 C3 1_555 1_555
C1 C2 1_555 1_555
C9 C10 1_555 1_555
Nd1D O3E 1_555 1_555
O4A C5A 1_555 1_555
O6F C9F 1_555 1_555
O8F C10F 1_555 1_555
N2A C3A 1_555 1_555
C1A C2A 1_555 1_555
C1A C4A 1_555 1_555
C2A C5A 1_555 1_555
C9F C10F 1_555 1_555

#END
