
#######################################################################
#
#                 Cambridge Crystallographic Data Centre
#                                CCDC 
#
#######################################################################
#
# If this CIF has been generated from an entry in the Cambridge 
# Structural Database, then it will include bibliographic, chemical, 
# crystal, experimental, refinement or atomic coordinate data resulting 
# from the CCDC's data processing and validation procedures.
#
#######################################################################

data_DATYOM03
_symmetry_cell_setting           tetragonal
_symmetry_space_group_name_H-M   'P -4 21 c'
_symmetry_Int_Tables_number      114
_space_group_name_Hall           'P -4 2n'
loop_
_symmetry_equiv_pos_site_id
_symmetry_equiv_pos_as_xyz
1 x,y,z
2 -x,-y,z
3 y,-x,-z
4 -y,x,-z
5 1/2-x,1/2+y,1/2-z
6 1/2+x,1/2-y,1/2-z
7 1/2-y,1/2-x,1/2+z
8 1/2+y,1/2+x,1/2+z
_cell_length_a                   8.0932(18)
_cell_length_b                   8.0932(18)
_cell_length_c                   9.602(3)
_cell_angle_alpha                90
_cell_angle_beta                 90
_cell_angle_gamma                90
_cell_volume                     628.93
loop_
_atom_site_label
_atom_site_type_symbol
_atom_site_fract_x
_atom_site_fract_y
_atom_site_fract_z
Mn1 Mn 0.0000 0.0000 0.5000
O1 O 0.1544(3) 0.2185(3) 0.4747(2)
N1 N 0.0000 0.5000 0.5660(3)
H1 H 0.0000 0.5000 0.4764
C1 C 0.2284(4) 0.2919(4) 0.5704(3)
O2 O 0.3710(3) 0.2630(3) 0.6113(2)
C2 C 0.1315(4) 0.4228(4) 0.6511(3)
H2 H 0.0821 0.3720 0.7326
H3 H 0.2071 0.5078 0.6829
O3 O 0.0000 0.0000 0.2763(3)
C2A C -0.1315(4) 0.5772(4) 0.6511(3)
C1A C -0.2284(4) 0.7081(4) 0.5704(3)
O1A O -0.1544(3) 0.7815(3) 0.4747(2)
O2A O -0.3710(3) 0.7370(3) 0.6113(2)
H2A H -0.0821 0.6280 0.7326
H3A H -0.2071 0.4922 0.6829
O1A_2 O -0.1544(3) -0.2185(3) 0.4747(2)
N1A N 0.0000 -0.5000 0.5660(3)
H1A H 0.0000 -0.5000 0.4764
C1A_2 C -0.2284(4) -0.2919(4) 0.5704(3)
O2A_2 O -0.3710(3) -0.2630(3) 0.6113(2)
C2A_2 C -0.1315(4) -0.4228(4) 0.6511(3)
H2A_2 H -0.0821 -0.3720 0.7326
H3A_2 H -0.2071 -0.5078 0.6829
C2_2 C 0.1315(4) -0.5772(4) 0.6511(3)
C1_2 C 0.2284(4) -0.7081(4) 0.5704(3)
O1_2 O 0.1544(3) -0.7815(3) 0.4747(2)
O2_2 O 0.3710(3) -0.7370(3) 0.6113(2)
H2_2 H 0.0821 -0.6280 0.7326
H3_2 H 0.2071 -0.4922 0.6829
O3B O 0.0000 0.0000 0.7237(3)
O1B O 0.2185(3) -0.1544(3) 0.5253(2)
O1C O -0.2185(3) 0.1544(3) 0.5253(2)
Mn1_2 Mn 0.0000 1.0000 0.5000
Mn1_3 Mn 0.0000 -1.0000 0.5000
loop_
_geom_bond_atom_site_label_1
_geom_bond_atom_site_label_2
_geom_bond_site_symmetry_1
_geom_bond_site_symmetry_2
Mn1 O1 1_555 1_555
O1 C1 1_555 1_555
N1 H1 1_555 1_555
C1 O2 1_555 1_555
C2 N1 1_555 1_555
H2 C2 1_555 1_555
H3 C2 1_555 1_555
O3 Mn1 1_555 1_555
C2A N1 1_555 1_555
C1A C2A 1_555 1_555
O1A C1A 1_555 1_555
O2A C1A 1_555 1_555
H2A C2A 1_555 1_555
H3A C2A 1_555 1_555
O1A_2 Mn1 1_555 1_555
N1A H1A 1_555 1_555
C1A_2 O1A_2 1_555 1_555
O2A_2 C1A_2 1_555 1_555
C2A_2 N1A 1_555 1_555
H2A_2 C2A_2 1_555 1_555
H3A_2 C2A_2 1_555 1_555
C2_2 N1A 1_555 1_555
C1_2 C2_2 1_555 1_555
O1_2 C1_2 1_555 1_555
O2_2 C1_2 1_555 1_555
H2_2 C2_2 1_555 1_555
H3_2 C2_2 1_555 1_555
O3B Mn1 1_555 1_555
O1B Mn1 1_555 1_555
O1C Mn1 1_555 1_555
Mn1_2 O1A 1_555 1_555
Mn1_3 O1_2 1_555 1_555
C1 C2 1_555 1_555
C1A_2 C2A_2 1_555 1_555

#END
