
#######################################################################
#
#                 Cambridge Crystallographic Data Centre
#                                CCDC 
#
#######################################################################
#
# If this CIF has been generated from an entry in the Cambridge 
# Structural Database, then it will include bibliographic, chemical, 
# crystal, experimental, refinement or atomic coordinate data resulting 
# from the CCDC's data processing and validation procedures.
#
#######################################################################

data_DAWBIO
_symmetry_cell_setting           orthorhombic
_symmetry_space_group_name_H-M   'P 21 21 2'
_symmetry_Int_Tables_number      18
_space_group_name_Hall           'P 2 2ab'
loop_
_symmetry_equiv_pos_site_id
_symmetry_equiv_pos_as_xyz
1 x,y,z
2 -x,-y,z
3 1/2+x,1/2-y,-z
4 1/2-x,1/2+y,-z
_cell_length_a                   26.282(5)
_cell_length_b                   6.620(5)
_cell_length_c                   7.667(5)
_cell_angle_alpha                90
_cell_angle_beta                 90
_cell_angle_gamma                90
_cell_volume                     1333.96
loop_
_atom_site_label
_atom_site_type_symbol
_atom_site_fract_x
_atom_site_fract_y
_atom_site_fract_z
C1 C -0.2084(3) -0.1499(11) -0.4836(9)
C2 C -0.1782(3) -0.0278(11) -0.3523(9)
H1 H -0.1483 0.0276 -0.4117
C3 C -0.1597(3) -0.1596(12) -0.2022(9)
H2 H -0.1351 -0.0829 -0.1352
H3 H -0.1421 -0.2752 -0.2510
C4 C -0.2006(3) -0.2370(12) -0.0774(10)
C5 C -0.3940(3) -0.0977(13) -0.3394(12)
H4 H -0.3949 0.0334 -0.3829
C6 C -0.4377(3) -0.2143(13) -0.3501(13)
H5 H -0.4672 -0.1626 -0.4000
C7 C -0.4365(3) -0.4083(12) -0.2851(11)
C8 C -0.3916(3) -0.4853(12) -0.2206(8)
H6 H -0.3890 -0.6186 -0.1834
C9 C -0.3503(3) -0.3542(11) -0.2138(8)
H7 H -0.3202 -0.4039 -0.1662
N1 N -0.3500(2) -0.1655(9) -0.2690(8)
N2 N -0.4792(2) -0.5421(10) -0.2871(9)
O1 O -0.25641(18) -0.1260(8) -0.4798(6)
O2 O -0.20657(18) 0.1382(7) -0.2793(6)
O3 O -0.24696(19) -0.2038(8) -0.1010(7)
O4 O -0.18336(18) -0.3410(8) 0.0463(6)
O5 O -0.18460(19) -0.2673(8) -0.5795(6)
Co1 Co -0.28336(3) 0.01416(12) -0.25071(11)
C1A C -0.7916(3) -0.8501(11) -0.4836(9)
C2A C -0.8218(3) -0.9722(11) -0.3523(9)
H1A H -0.8517 -1.0276 -0.4117
C3A C -0.8403(3) -0.8404(12) -0.2022(9)
H2A H -0.8649 -0.9171 -0.1352
H3A H -0.8579 -0.7248 -0.2510
C4A C -0.7994(3) -0.7630(12) -0.0774(10)
C5A C -0.6060(3) -0.9023(13) -0.3394(12)
H4A H -0.6051 -1.0334 -0.3829
C6A C -0.5623(3) -0.7857(13) -0.3501(13)
H5A H -0.5328 -0.8374 -0.4000
C7A C -0.5635(3) -0.5917(12) -0.2851(11)
C8A C -0.6084(3) -0.5147(12) -0.2206(8)
H6A H -0.6110 -0.3814 -0.1834
C9A C -0.6497(3) -0.6458(11) -0.2138(8)
H7A H -0.6798 -0.5961 -0.1662
N1A N -0.6500(2) -0.8345(9) -0.2690(8)
N2A N -0.5208(2) -0.4579(10) -0.2871(9)
O1A O -0.74359(18) -0.8740(8) -0.4798(6)
O2A O -0.79343(18) -1.1382(7) -0.2793(6)
O3A O -0.75304(19) -0.7962(8) -0.1010(7)
O4B O -0.68336(18) -1.1590(8) -0.0463(6)
O4C O -0.31664(18) 0.1590(8) -0.0463(6)
O4A O -0.81664(18) -0.6590(8) 0.0463(6)
O5C O -0.31540(19) 0.2327(8) -0.4205(6)
O5B O -0.68460(19) -1.2327(8) -0.4205(6)
O5A O -0.81540(19) -0.7327(8) -0.5795(6)
Co1A Co -0.71664(3) -1.01416(12) -0.25071(11)
Co1C Co -0.21664(3) -0.48584(12) -0.74929(11)
Co1C_2 Co -0.21664(3) -0.48584(12) 0.25071(11)
Co1B Co -0.78336(3) -0.51416(12) -0.74929(11)
Co1B_2 Co -0.78336(3) -0.51416(12) 0.25071(11)
O6 O -0.5197(12) -0.111(5) -0.869(4)
O7 O -0.0552(17) -0.709(7) -0.159(6)
loop_
_geom_bond_atom_site_label_1
_geom_bond_atom_site_label_2
_geom_bond_site_symmetry_1
_geom_bond_site_symmetry_2
C1 C2 1_555 1_555
C2 H1 1_555 1_555
C3 C2 1_555 1_555
H2 C3 1_555 1_555
H3 C3 1_555 1_555
C4 C3 1_555 1_555
C5 H4 1_555 1_555
C6 C5 1_555 1_555
H5 C6 1_555 1_555
C7 C6 1_555 1_555
C8 C7 1_555 1_555
H6 C8 1_555 1_555
C9 C8 1_555 1_555
H7 C9 1_555 1_555
N1 C5 1_555 1_555
N2 C7 1_555 1_555
O1 C1 1_555 1_555
O2 C2 1_555 1_555
O3 C4 1_555 1_555
O4 C4 1_555 1_555
O5 C1 1_555 1_555
Co1 N1 1_555 1_555
C1A C2A 1_555 1_555
C2A H1A 1_555 1_555
C3A C2A 1_555 1_555
H2A C3A 1_555 1_555
H3A C3A 1_555 1_555
C4A C3A 1_555 1_555
C5A H4A 1_555 1_555
C6A C5A 1_555 1_555
H5A C6A 1_555 1_555
C7A C6A 1_555 1_555
C8A C7A 1_555 1_555
H6A C8A 1_555 1_555
C9A C8A 1_555 1_555
H7A C9A 1_555 1_555
N1A C5A 1_555 1_555
N2A N2 1_555 1_555
O1A C1A 1_555 1_555
O2A C2A 1_555 1_555
O3A C4A 1_555 1_555
O4B Co1A 1_555 1_555
O4C Co1 1_555 1_555
O4A C4A 1_555 1_555
O5C Co1 1_555 1_555
O5B Co1A 1_555 1_555
O5A C1A 1_555 1_555
Co1A N1A 1_555 1_555
Co1C O5 1_555 1_555
Co1C_2 O4 1_555 1_555
Co1B O5A 1_555 1_555
Co1B_2 O4A 1_555 1_555
C9 N1 1_555 1_555
O1 Co1 1_555 1_555
O2 Co1 1_555 1_555
O3 Co1 1_555 1_555
C7A N2A 1_555 1_555
C9A N1A 1_555 1_555
O1A Co1A 1_555 1_555
O2A Co1A 1_555 1_555
O3A Co1A 1_555 1_555

#END
