
#######################################################################
#
#                 Cambridge Crystallographic Data Centre
#                                CCDC 
#
#######################################################################
#
# If this CIF has been generated from an entry in the Cambridge 
# Structural Database, then it will include bibliographic, chemical, 
# crystal, experimental, refinement or atomic coordinate data resulting 
# from the CCDC's data processing and validation procedures.
#
#######################################################################

data_DAWCAH
_symmetry_cell_setting           orthorhombic
_symmetry_space_group_name_H-M   'P 21 21 2'
_symmetry_Int_Tables_number      18
_space_group_name_Hall           'P 2 2ab'
loop_
_symmetry_equiv_pos_site_id
_symmetry_equiv_pos_as_xyz
1 x,y,z
2 -x,-y,z
3 1/2+x,1/2-y,-z
4 1/2-x,1/2+y,-z
_cell_length_a                   26.9967(9)
_cell_length_b                   6.6856(2)
_cell_length_c                   7.6377(3)
_cell_angle_alpha                90
_cell_angle_beta                 90
_cell_angle_gamma                90
_cell_volume                     1378.52
loop_
_atom_site_label
_atom_site_type_symbol
_atom_site_fract_x
_atom_site_fract_y
_atom_site_fract_z
Ni1 Ni 0.71758(3) 0.50035(17) 0.25396(13)
O1 O 0.7906(2) 0.3824(8) 0.2807(8)
O2 O 0.7513(2) 0.7089(10) 0.0957(8)
O3 O 0.8120(2) 0.7842(10) 0.5800(8)
O4 O 0.7424(2) 0.6506(10) 0.4741(8)
O5 O 0.8128(2) 0.8492(11) -0.0517(8)
N1 N 0.6536(2) 0.6705(11) 0.2669(10)
C1 C 0.5678(4) 0.9043(16) 0.2852(16)
C2 C 0.5677(4) 0.7049(18) 0.340(2)
H1 H 0.5387 0.6461 0.3810
C3 C 0.8191(3) 0.5453(12) 0.3459(12)
H2 H 0.8486 0.4924 0.4049
C4 C 0.6115(3) 0.9778(14) 0.2288(13)
H3 H 0.6135 1.1116 0.1963
C5 C 0.6102(4) 0.5983(17) 0.3321(19)
H4 H 0.6098 0.4677 0.3739
C6 C 0.6531(4) 0.8608(14) 0.2181(11)
H5 H 0.6821 0.9173 0.1748
C7 C 0.7961(3) 0.7474(14) 0.0733(12)
C8 C 0.5233(4) 1.0319(16) 0.2869(17)
H6 H 0.5283 1.1695 0.2881
C9 C 0.8351(3) 0.6717(15) 0.1968(11)
H7 H 0.8589 0.5958 0.1289
H8 H 0.8524 0.7868 0.2442
C10 C 0.7888(3) 0.6732(12) 0.4792(10)
Ni1A Ni 0.28242(3) 1.49965(17) 0.25396(13)
Ni1B Ni 0.21758(3) 0.99965(17) -0.25396(13)
Ni1B_2 Ni 0.21758(3) 0.99965(17) 0.74604(13)
Ni1C Ni 0.78242(3) 1.00035(17) -0.25396(13)
Ni1C_2 Ni 0.78242(3) 1.00035(17) 0.74604(13)
O1A O 0.2094(2) 1.6176(8) 0.2807(8)
O2A O 0.2487(2) 1.2911(10) 0.0957(8)
O3A O 0.1880(2) 1.2158(10) 0.5800(8)
O3B O 0.3120(2) 1.7158(10) 0.4200(8)
O3C O 0.6880(2) 0.2842(10) 0.4200(8)
O4A O 0.2576(2) 1.3494(10) 0.4741(8)
O5A O 0.1872(2) 1.1508(11) -0.0517(8)
O5B O 0.3128(2) 1.6508(11) 0.0517(8)
O5C O 0.6872(2) 0.3492(11) 0.0517(8)
N1A N 0.3464(2) 1.3295(11) 0.2669(10)
C1A C 0.4322(4) 1.0957(16) 0.2852(16)
C2A C 0.4323(4) 1.2951(18) 0.340(2)
H1A H 0.4613 1.3539 0.3810
C3A C 0.1809(3) 1.4547(12) 0.3459(12)
H2A H 0.1514 1.5076 0.4049
C4A C 0.3885(3) 1.0222(14) 0.2288(13)
H3A H 0.3865 0.8884 0.1963
C5A C 0.3898(4) 1.4017(17) 0.3321(19)
H4A H 0.3902 1.5323 0.3739
C6A C 0.3469(4) 1.1392(14) 0.2181(11)
H5A H 0.3179 1.0827 0.1748
C7A C 0.2039(3) 1.2526(14) 0.0733(12)
C8A C 0.4767(4) 0.9681(16) 0.2869(17)
H6A H 0.4717 0.8305 0.2881
C9A C 0.1649(3) 1.3283(15) 0.1968(11)
H7A H 0.1411 1.4042 0.1289
H8A H 0.1476 1.2132 0.2442
C10A C 0.2112(3) 1.3268(12) 0.4792(10)
O6 O 0.6340(10) 0.633(5) 0.870(4)
loop_
_geom_bond_atom_site_label_1
_geom_bond_atom_site_label_2
_geom_bond_site_symmetry_1
_geom_bond_site_symmetry_2
Ni1 O1 1_555 1_555
O1 C3 1_555 1_555
O2 Ni1 1_555 1_555
O3 C10 1_555 1_555
O4 Ni1 1_555 1_555
O5 C7 1_555 1_555
N1 Ni1 1_555 1_555
C1 C2 1_555 1_555
C2 H1 1_555 1_555
C3 H2 1_555 1_555
C4 C1 1_555 1_555
H3 C4 1_555 1_555
C5 N1 1_555 1_555
H4 C5 1_555 1_555
C6 N1 1_555 1_555
H5 C6 1_555 1_555
C7 O2 1_555 1_555
C8 C1 1_555 1_555
H6 C8 1_555 1_555
C9 C3 1_555 1_555
H7 C9 1_555 1_555
H8 C9 1_555 1_555
C10 O4 1_555 1_555
Ni1A O1A 1_555 1_555
Ni1B O5A 1_555 1_555
Ni1B_2 O3A 1_555 1_555
Ni1C O5 1_555 1_555
Ni1C_2 O3 1_555 1_555
O1A C3A 1_555 1_555
O2A Ni1A 1_555 1_555
O3A C10A 1_555 1_555
O3B Ni1A 1_555 1_555
O3C Ni1 1_555 1_555
O4A Ni1A 1_555 1_555
O5A C7A 1_555 1_555
O5B Ni1A 1_555 1_555
O5C Ni1 1_555 1_555
N1A Ni1A 1_555 1_555
C1A C2A 1_555 1_555
C2A H1A 1_555 1_555
C3A H2A 1_555 1_555
C4A C1A 1_555 1_555
H3A C4A 1_555 1_555
C5A N1A 1_555 1_555
H4A C5A 1_555 1_555
C6A N1A 1_555 1_555
H5A C6A 1_555 1_555
C7A O2A 1_555 1_555
C8A C8 1_555 1_555
H6A C8A 1_555 1_555
C9A C3A 1_555 1_555
H7A C9A 1_555 1_555
H8A C9A 1_555 1_555
C10A O4A 1_555 1_555
C2 C5 1_555 1_555
C3 C10 1_555 1_555
C4 C6 1_555 1_555
C7 C9 1_555 1_555
C1A C8A 1_555 1_555
C2A C5A 1_555 1_555
C3A C10A 1_555 1_555
C4A C6A 1_555 1_555
C7A C9A 1_555 1_555

#END
