
#######################################################################
#
#                 Cambridge Crystallographic Data Centre
#                                CCDC 
#
#######################################################################
#
# If this CIF has been generated from an entry in the Cambridge 
# Structural Database, then it will include bibliographic, chemical, 
# crystal, experimental, refinement or atomic coordinate data resulting 
# from the CCDC's data processing and validation procedures.
#
#######################################################################

data_DAWCOV
_symmetry_cell_setting           monoclinic
_symmetry_space_group_name_H-M   'C 2/c'
_symmetry_Int_Tables_number      15
_space_group_name_Hall           '-C 2yn'
loop_
_symmetry_equiv_pos_site_id
_symmetry_equiv_pos_as_xyz
1 x,y,z
2 -x,y,1/2-z
3 1/2+x,1/2+y,z
4 1/2-x,1/2+y,1/2-z
5 -x,-y,-z
6 x,-y,1/2+z
7 1/2-x,1/2-y,-z
8 1/2+x,1/2-y,1/2+z
_cell_length_a                   29.722(6)
_cell_length_b                   13.552(2)
_cell_length_c                   18.680(4)
_cell_angle_alpha                90
_cell_angle_beta                 124.540(6)
_cell_angle_gamma                90
_cell_volume                     6197.88
loop_
_atom_site_label
_atom_site_type_symbol
_atom_site_fract_x
_atom_site_fract_y
_atom_site_fract_z
C1 C 0.41429(11) 0.8130(2) 0.2567(2)
C2 C 0.38281(11) 0.7229(2) 0.21083(19)
C3 C 0.34231(12) 0.6900(2) 0.2174(2)
H1 H 0.3333 0.7252 0.2504
C4 C 0.31436(11) 0.6050(2) 0.1756(2)
H2 H 0.2867 0.5837 0.1811
C5 C 0.32599(9) 0.5509(2) 0.12651(17)
C6 C 0.36767(12) 0.5824(3) 0.1218(2)
H3 H 0.3777 0.5458 0.0908
C7 C 0.39535(13) 0.6691(3) 0.1631(2)
H4 H 0.4231 0.6907 0.1579
C8 C 0.29580(9) 0.45686(19) 0.07883(18)
H5 H 0.2949 0.4549 0.0255
C9 C 0.23599(10) 0.46238(19) 0.05015(17)
C10 C 0.20185(10) 0.5267(2) -0.01590(18)
H6 H 0.2154 0.5629 -0.0421
C11 C 0.14848(10) 0.5389(2) -0.04417(17)
H7 H 0.1261 0.5817 -0.0899
C12 C 0.12797(10) 0.4882(2) -0.00523(16)
C13 C 0.16104(10) 0.4234(2) 0.06083(17)
H8 H 0.1474 0.3887 0.0875
C14 C 0.21522(10) 0.4095(2) 0.08812(17)
H9 H 0.2372 0.3645 0.1320
C15 C 0.07023(10) 0.5028(2) -0.03523(18)
C16 C 0.32711(9) 0.3657(2) 0.13122(18)
C17 C 0.33368(12) 0.2901(2) 0.0891(2)
H10 H 0.3166 0.2938 0.0293
C18 C 0.36516(12) 0.2086(2) 0.1337(2)
H11 H 0.3693 0.1589 0.1034
C19 C 0.39066(10) 0.1996(2) 0.22218(17)
C20 C 0.38253(11) 0.2734(2) 0.26355(18)
H12 H 0.3977 0.2682 0.3227
C21 C 0.35185(11) 0.3562(2) 0.21827(19)
H13 H 0.3481 0.4065 0.2484
C22 C 0.42569(10) 0.1112(2) 0.26776(19)
Mn1 Mn 0.5000 0.95586(4) 0.2500
Mn2 Mn 0.464606(14) 0.94695(3) 0.39796(2)
O1 O 0.44940(7) 0.84197(16) 0.24488(14)
O2 O 0.40450(8) 0.85513(16) 0.30509(14)
O3 O 0.05510(7) 0.47614(15) 0.01157(13)
O4 O 0.03729(6) 0.54422(14) -0.10744(11)
O5 O 0.43495(7) 0.08850(14) 0.34069(13)
O6 O 0.44309(7) 0.06467(15) 0.23115(12)
O7 O 0.50547(8) 0.81696(15) 0.48363(13)
H14 H 0.5069 0.8236 0.5301
H15 H 0.5378 0.8113 0.4967
C1A C 0.58571(11) 0.8130(2) 0.2433(2)
C2A C 0.61719(11) 0.7229(2) 0.28917(19)
C3A C 0.65769(12) 0.6900(2) 0.2826(2)
H1A H 0.6667 0.7252 0.2496
C4A C 0.68564(11) 0.6050(2) 0.3244(2)
H2A H 0.7133 0.5837 0.3189
C5A C 0.67401(9) 0.5509(2) 0.37349(17)
C6A C 0.63233(12) 0.5824(3) 0.3782(2)
H3A H 0.6223 0.5458 0.4092
C7A C 0.60465(13) 0.6691(3) 0.3369(2)
H4A H 0.5769 0.6907 0.3421
C8A C 0.70420(9) 0.45686(19) 0.42117(18)
H5A H 0.7051 0.4549 0.4745
C9A C 0.76401(10) 0.46238(19) 0.44985(17)
C10A C 0.79815(10) 0.5267(2) 0.51590(18)
H6A H 0.7846 0.5629 0.5421
C11A C 0.85152(10) 0.5389(2) 0.54417(17)
H7A H 0.8739 0.5817 0.5899
C12A C 0.87203(10) 0.4882(2) 0.50523(16)
C13A C 0.83896(10) 0.4234(2) 0.43917(17)
H8A H 0.8526 0.3887 0.4125
C14A C 0.78478(10) 0.4095(2) 0.41188(17)
H9A H 0.7628 0.3645 0.3680
C15A C 0.92977(10) 0.5028(2) 0.53523(18)
C16A C 0.67289(9) 0.3657(2) 0.36878(18)
C17A C 0.66632(12) 0.2901(2) 0.4109(2)
H10A H 0.6834 0.2938 0.4707
C18A C 0.63484(12) 0.2086(2) 0.3663(2)
H11A H 0.6307 0.1589 0.3966
C19A C 0.60934(10) 0.1996(2) 0.27782(17)
C20A C 0.61747(11) 0.2734(2) 0.23645(18)
H12A H 0.6023 0.2682 0.1773
C21A C 0.64815(11) 0.3562(2) 0.28173(19)
H13A H 0.6519 0.4065 0.2516
C22A C 0.57431(10) 0.1112(2) 0.23224(19)
Mn1F Mn 0.0000 0.54414(4) -0.2500
Mn1_2 Mn 0.5000 -0.04414(4) 0.2500
Mn1F_2 Mn 1.0000 0.54414(4) 0.7500
Mn2A Mn 0.535394(14) 0.94695(3) 0.10204(2)
Mn2C Mn 0.035394(14) 0.44695(3) 0.10204(2)
Mn2G Mn -0.035394(14) 0.55305(3) -0.10204(2)
Mn2_2 Mn 0.464606(14) -0.05305(3) 0.39796(2)
Mn2B Mn 0.964606(14) 0.44695(3) 0.39796(2)
Mn2F Mn 1.035394(14) 0.55305(3) 0.60204(2)
Mn2A_2 Mn 0.535394(14) -0.05305(3) 0.10204(2)
O1A O 0.55060(7) 0.84197(16) 0.25512(14)
O2A O 0.59550(8) 0.85513(16) 0.19491(14)
O3A O 0.94490(7) 0.47614(15) 0.48843(13)
O3C O 0.44490(7) 0.97614(15) 0.48843(13)
O3G O 0.55510(7) 1.02386(15) 0.51157(13)
O3B O 0.55510(7) 0.97614(15) 0.01157(13)
O3F O 0.44490(7) 1.02386(15) -0.01157(13)
O4A O 0.96271(6) 0.54422(14) 0.60744(11)
O4F O 0.46271(6) 0.95578(14) 0.10744(11)
O4G O 0.53729(6) 0.95578(14) 0.39256(11)
O5A O 0.56505(7) 0.08850(14) 0.15931(13)
O5_2 O 0.43495(7) 1.08850(14) 0.34069(13)
O5A_2 O 0.56505(7) 1.08850(14) 0.15931(13)
O6A O 0.55691(7) 0.06467(15) 0.26885(12)
O6_2 O 0.44309(7) 1.06467(15) 0.23115(12)
O6A_2 O 0.55691(7) 1.06467(15) 0.26885(12)
O7A O 0.49453(8) 0.81696(15) 0.01637(13)
H14A H 0.4931 0.8236 -0.0301
H15A H 0.4622 0.8113 0.0033
loop_
_geom_bond_atom_site_label_1
_geom_bond_atom_site_label_2
_geom_bond_site_symmetry_1
_geom_bond_site_symmetry_2
C1 C2 1_555 1_555
C2 C3 1_555 1_555
C3 H1 1_555 1_555
C4 C3 1_555 1_555
H2 C4 1_555 1_555
C5 C4 1_555 1_555
C6 C5 1_555 1_555
H3 C6 1_555 1_555
C7 C2 1_555 1_555
H4 C7 1_555 1_555
C8 C5 1_555 1_555
H5 C8 1_555 1_555
C9 C8 1_555 1_555
C10 C9 1_555 1_555
H6 C10 1_555 1_555
C11 C10 1_555 1_555
H7 C11 1_555 1_555
C12 C11 1_555 1_555
C13 C12 1_555 1_555
H8 C13 1_555 1_555
C14 C9 1_555 1_555
H9 C14 1_555 1_555
C15 C12 1_555 1_555
C16 C8 1_555 1_555
C17 C16 1_555 1_555
H10 C17 1_555 1_555
C18 C17 1_555 1_555
H11 C18 1_555 1_555
C19 C18 1_555 1_555
C20 C19 1_555 1_555
H12 C20 1_555 1_555
C21 C16 1_555 1_555
H13 C21 1_555 1_555
C22 C19 1_555 1_555
Mn1 O1 1_555 1_555
Mn2 O2 1_555 1_555
O1 C1 1_555 1_555
O2 C1 1_555 1_555
O3 C15 1_555 1_555
O4 C15 1_555 1_555
O5 C22 1_555 1_555
O6 C22 1_555 1_555
O7 Mn2 1_555 1_555
H14 O7 1_555 1_555
H15 O7 1_555 1_555
C1A C2A 1_555 1_555
C2A C3A 1_555 1_555
C3A H1A 1_555 1_555
C4A C3A 1_555 1_555
H2A C4A 1_555 1_555
C5A C4A 1_555 1_555
C6A C5A 1_555 1_555
H3A C6A 1_555 1_555
C7A C2A 1_555 1_555
H4A C7A 1_555 1_555
C8A C5A 1_555 1_555
H5A C8A 1_555 1_555
C9A C8A 1_555 1_555
C10A C9A 1_555 1_555
H6A C10A 1_555 1_555
C11A C10A 1_555 1_555
H7A C11A 1_555 1_555
C12A C11A 1_555 1_555
C13A C12A 1_555 1_555
H8A C13A 1_555 1_555
C14A C9A 1_555 1_555
H9A C14A 1_555 1_555
C15A C12A 1_555 1_555
C16A C8A 1_555 1_555
C17A C16A 1_555 1_555
H10A C17A 1_555 1_555
C18A C17A 1_555 1_555
H11A C18A 1_555 1_555
C19A C18A 1_555 1_555
C20A C19A 1_555 1_555
H12A C20A 1_555 1_555
C21A C16A 1_555 1_555
H13A C21A 1_555 1_555
C22A C19A 1_555 1_555
Mn1F O4 1_555 1_555
Mn1_2 O6 1_555 1_555
Mn1F_2 O4A 1_555 1_555
Mn2A O2A 1_555 1_555
Mn2C O3 1_555 1_555
Mn2G O3 1_555 1_555
Mn2_2 O5 1_555 1_555
Mn2B O3A 1_555 1_555
Mn2F O3A 1_555 1_555
Mn2A_2 O5A 1_555 1_555
O1A Mn1 1_555 1_555
O2A C1A 1_555 1_555
O3A C15A 1_555 1_555
O3C Mn2 1_555 1_555
O3G Mn2 1_555 1_555
O3B Mn2A 1_555 1_555
O3F Mn2A 1_555 1_555
O4A C15A 1_555 1_555
O4F Mn1 1_555 1_555
O4G Mn1 1_555 1_555
O5A C22A 1_555 1_555
O5_2 Mn2 1_555 1_555
O5A_2 Mn2A 1_555 1_555
O6A C22A 1_555 1_555
O6_2 Mn1 1_555 1_555
O6A_2 Mn1 1_555 1_555
O7A Mn2A 1_555 1_555
H14A O7A 1_555 1_555
H15A O7A 1_555 1_555
C6 C7 1_555 1_555
C13 C14 1_555 1_555
C20 C21 1_555 1_555
Mn2 O4G 1_555 1_555
O4 Mn2G 1_555 1_555
C1A O1A 1_555 1_555
C6A C7A 1_555 1_555
C13A C14A 1_555 1_555
C20A C21A 1_555 1_555
Mn1_2 O6A 1_555 1_555
Mn2A O4F 1_555 1_555
Mn2F O4A 1_555 1_555

#END
