
#######################################################################
#
#                 Cambridge Crystallographic Data Centre
#                                CCDC 
#
#######################################################################
#
# If this CIF has been generated from an entry in the Cambridge 
# Structural Database, then it will include bibliographic, chemical, 
# crystal, experimental, refinement or atomic coordinate data resulting 
# from the CCDC's data processing and validation procedures.
#
#######################################################################

data_DAWCIP
_symmetry_cell_setting           orthorhombic
_symmetry_space_group_name_H-M   'P b c n'
_symmetry_Int_Tables_number      60
_space_group_name_Hall           '-P 2n 2ab'
loop_
_symmetry_equiv_pos_site_id
_symmetry_equiv_pos_as_xyz
1 x,y,z
2 1/2-x,1/2-y,1/2+z
3 -x,y,1/2-z
4 1/2+x,1/2-y,-z
5 -x,-y,-z
6 1/2+x,1/2+y,1/2-z
7 x,-y,1/2+z
8 1/2-x,1/2+y,z
_cell_length_a                   33.291(7)
_cell_length_b                   24.518(5)
_cell_length_c                   16.748(4)
_cell_angle_alpha                90
_cell_angle_beta                 90
_cell_angle_gamma                90
_cell_volume                     13670.2
loop_
_atom_site_label
_atom_site_type_symbol
_atom_site_fract_x
_atom_site_fract_y
_atom_site_fract_z
C1 C -0.02234(15) -0.20652(18) 0.0405(3)
C2 C 0.01627(7) -0.18427(13) 0.06919(18)
C3 C 0.01739(7) -0.15339(14) 0.13876(18)
H1 H -0.0061 -0.1470 0.1673
C4 C 0.05363(8) -0.13211(14) 0.16572(16)
H2 H 0.0544 -0.1114 0.2123
C5 C 0.08876(6) -0.14170(13) 0.12311(19)
C6 C 0.08764(7) -0.17258(13) 0.05354(18)
H3 H 0.1111 -0.1790 0.0250
C7 C 0.05140(9) -0.19387(13) 0.02658(16)
H4 H 0.0506 -0.2145 -0.0200
C8 C 0.12607(12) -0.11406(17) 0.1589(3)
H5 H 0.1253 -0.1183 0.2171
C9 C 0.12647(10) -0.05344(8) 0.13912(19)
C10 C 0.14659(10) -0.01837(11) 0.19064(16)
H6 H 0.1582 -0.0319 0.2372
C11 C 0.14939(10) 0.03684(10) 0.17263(17)
H7 H 0.1629 0.0603 0.2071
C12 C 0.13208(11) 0.05698(8) 0.10311(19)
C13 C 0.11196(10) 0.02192(11) 0.05159(16)
H8 H 0.1004 0.0354 0.0051
C14 C 0.10916(9) -0.03329(10) 0.06960(17)
H9 H 0.0957 -0.0568 0.0351
C15 C 0.16477(13) -0.14157(17) 0.1271(3)
C16 C 0.18680(15) -0.1231(2) 0.0611(3)
H10 H 0.1771 -0.0939 0.0315
C17 C 0.18079(15) -0.1846(2) 0.1703(4)
H11 H 0.1673 -0.1979 0.2150
C18 C 0.09478(15) 0.27803(18) 0.2133(2)
C19 C 0.08559(9) 0.30101(13) 0.29264(13)
C20 C 0.05075(8) 0.33156(14) 0.30228(14)
H12 H 0.0333 0.3364 0.2595
C21 C 0.04201(8) 0.35494(13) 0.37587(17)
H13 H 0.0187 0.3754 0.3823
C22 C 0.06809(9) 0.34776(12) 0.43981(13)
C23 C 0.10293(8) 0.31721(13) 0.43018(14)
H14 H 0.1204 0.3124 0.4730
C24 C 0.11168(8) 0.29383(13) 0.35659(17)
H15 H 0.1350 0.2734 0.3501
C25 C 0.05713(15) 0.37782(16) 0.5185(3)
H16 H 0.0279 0.3755 0.5247
C26 C 0.07567(14) 0.35176(17) 0.5910(3)
C27 C 0.11309(17) 0.3680(2) 0.6202(3)
H17 H 0.1277 0.3941 0.5924
C28 C 0.05558(17) 0.31053(18) 0.6305(3)
H18 H 0.0308 0.2985 0.6117
C29 C 0.27881(14) -0.20850(19) 0.0630(3)
C30 C 0.23923(14) -0.18767(19) 0.0833(3)
C31 C 0.22085(17) -0.1460(2) 0.0401(3)
H19 H 0.2334 -0.1338 -0.0062
C32 C 0.21744(16) -0.2084(2) 0.1469(3)
H20 H 0.2272 -0.2385 0.1745
C33 C 0.12311(17) 0.2828(2) 0.8075(3)
C34 C 0.10813(15) 0.30491(18) 0.7292(3)
C35 C 0.12896(18) 0.3461(2) 0.6898(3)
H21 H 0.1533 0.3588 0.7099
C36 C 0.07201(17) 0.2875(2) 0.6969(3)
H22 H 0.0585 0.2589 0.7215
C37 C 0.13401(16) 0.11677(19) 0.0820(3)
C38 C 0.09132(16) 0.60957(19) 0.4993(3)
C39 C 0.08422(15) 0.55042(18) 0.5051(3)
C40 C 0.10920(16) 0.51352(18) 0.4669(3)
H23 H 0.1319 0.5256 0.4397
C41 C 0.09991(17) 0.45798(19) 0.4696(3)
H24 H 0.1160 0.4334 0.4418
C42 C 0.06801(14) 0.43892(19) 0.5116(3)
C43 C 0.04304(16) 0.4758(2) 0.5496(3)
H25 H 0.0206 0.4635 0.5774
C44 C 0.05151(16) 0.53111(19) 0.5462(3)
H26 H 0.0347 0.5556 0.5723
O1 O 0.15369(10) 0.14768(12) 0.1274(2)
O2 O -0.05335(10) -0.18359(13) 0.0687(2)
O3 O -0.02207(9) -0.24519(13) -0.0069(2)
O4 O 0.12759(10) 0.62244(13) 0.4812(2)
O5 O 0.06433(9) 0.64137(12) 0.5190(2)
O6 O 0.06864(10) 0.28219(13) 0.15982(19)
O7 O 0.12839(11) 0.25612(13) 0.20189(18)
O8 O 0.29432(9) -0.24561(14) 0.1044(2)
O9 O 0.29477(9) -0.18721(13) 0.0029(2)
O10 O 0.10706(10) 0.23930(14) 0.8311(2)
O11 O 0.15029(11) 0.30831(14) 0.8418(2)
O12 O 0.12079(8) 0.25041(11) 0.01159(16)
O13 O 0.11469(11) 0.13261(14) 0.0262(2)
O14 O -0.18394(11) -0.19020(14) 0.0756(2)
H27 H -0.1945 -0.2174 0.0400
H28 H -0.1921 -0.1983 0.1292
O15 O -0.11978(11) -0.12316(15) 0.1395(2)
H29 H -0.1460 -0.1079 0.1314
H30 H -0.0998 -0.0967 0.1253
Zn1 Zn 0.150730(15) 0.224650(19) 0.10263(3)
Zn2 Zn -0.070380(15) -0.28041(2) -0.04382(3)
Zn3 Zn 0.152290(16) 0.30559(2) -0.04327(3)
Zn4 Zn -0.113700(17) -0.19073(2) 0.06814(3)
O4F O 0.12759(10) 0.37756(13) -0.0188(2)
O5B O -0.06433(9) -0.35863(12) -0.0190(2)
O6D O -0.06864(10) -0.28219(13) -0.15982(19)
O8G O 0.20568(9) 0.25439(14) 0.1044(2)
O9G O 0.20523(9) 0.31279(13) 0.0029(2)
O10D O -0.10706(10) -0.23930(14) 0.1689(2)
O11_2 O 0.15029(11) 0.30831(14) -0.1582(2)
O12D O -0.12079(8) -0.25041(11) -0.01159(16)
O13D O -0.11469(11) -0.13261(14) -0.0262(2)
Zn1G Zn 0.349270(15) -0.275350(19) 0.10263(3)
Zn2B Zn 0.070380(15) 0.71959(2) 0.54382(3)
Zn2D Zn 0.070380(15) 0.28041(2) 0.04382(3)
Zn3F Zn 0.152290(16) 0.69441(2) 0.45673(3)
Zn3_2 Zn 0.152290(16) 0.30559(2) 0.95673(3)
Zn3G Zn 0.347710(16) -0.19441(2) -0.04327(3)
Zn4D Zn 0.113700(17) 0.19073(2) 0.93186(3)
Zn4D_2 Zn 0.113700(17) 0.19073(2) -0.06814(3)
loop_
_geom_bond_atom_site_label_1
_geom_bond_atom_site_label_2
_geom_bond_site_symmetry_1
_geom_bond_site_symmetry_2
C1 C2 1_555 1_555
C2 C3 1_555 1_555
C3 H1 1_555 1_555
C4 C3 1_555 1_555
H2 C4 1_555 1_555
C5 C4 1_555 1_555
C6 C5 1_555 1_555
H3 C6 1_555 1_555
C7 C2 1_555 1_555
H4 C7 1_555 1_555
C8 C5 1_555 1_555
H5 C8 1_555 1_555
C9 C8 1_555 1_555
C10 C9 1_555 1_555
H6 C10 1_555 1_555
C11 C10 1_555 1_555
H7 C11 1_555 1_555
C12 C11 1_555 1_555
C13 C12 1_555 1_555
H8 C13 1_555 1_555
C14 C9 1_555 1_555
H9 C14 1_555 1_555
C15 C8 1_555 1_555
C16 C15 1_555 1_555
H10 C16 1_555 1_555
C17 C15 1_555 1_555
H11 C17 1_555 1_555
C18 C19 1_555 1_555
C19 C20 1_555 1_555
C20 H12 1_555 1_555
C21 C20 1_555 1_555
H13 C21 1_555 1_555
C22 C21 1_555 1_555
C23 C22 1_555 1_555
H14 C23 1_555 1_555
C24 C19 1_555 1_555
H15 C24 1_555 1_555
C25 C22 1_555 1_555
H16 C25 1_555 1_555
C26 C25 1_555 1_555
C27 C26 1_555 1_555
H17 C27 1_555 1_555
C28 C26 1_555 1_555
H18 C28 1_555 1_555
C29 C30 1_555 1_555
C30 C31 1_555 1_555
C31 C16 1_555 1_555
H19 C31 1_555 1_555
C32 C17 1_555 1_555
H20 C32 1_555 1_555
C33 C34 1_555 1_555
C34 C35 1_555 1_555
C35 C27 1_555 1_555
H21 C35 1_555 1_555
C36 C28 1_555 1_555
H22 C36 1_555 1_555
C37 C12 1_555 1_555
C38 C39 1_555 1_555
C39 C40 1_555 1_555
C40 H23 1_555 1_555
C41 C40 1_555 1_555
H24 C41 1_555 1_555
C42 C25 1_555 1_555
C43 C42 1_555 1_555
H25 C43 1_555 1_555
C44 C39 1_555 1_555
H26 C44 1_555 1_555
O1 C37 1_555 1_555
O2 C1 1_555 1_555
O3 C1 1_555 1_555
O4 C38 1_555 1_555
O5 C38 1_555 1_555
O6 C18 1_555 1_555
O7 C18 1_555 1_555
O8 C29 1_555 1_555
O9 C29 1_555 1_555
O10 C33 1_555 1_555
O11 C33 1_555 1_555
O12 Zn1 1_555 1_555
O13 C37 1_555 1_555
O14 H27 1_555 1_555
H28 O14 1_555 1_555
O15 H29 1_555 1_555
H30 O15 1_555 1_555
Zn1 O1 1_555 1_555
Zn2 O3 1_555 1_555
Zn3 O12 1_555 1_555
Zn4 O2 1_555 1_555
O4F Zn3 1_555 1_555
O5B Zn2 1_555 1_555
O6D Zn2 1_555 1_555
O8G Zn1 1_555 1_555
O9G Zn3 1_555 1_555
O10D Zn4 1_555 1_555
O11_2 Zn3 1_555 1_555
O12D Zn2 1_555 1_555
O13D Zn4 1_555 1_555
Zn1G O8 1_555 1_555
Zn2B O5 1_555 1_555
Zn2D O6 1_555 1_555
Zn3F O4 1_555 1_555
Zn3_2 O11 1_555 1_555
Zn3G O9 1_555 1_555
Zn4D O10 1_555 1_555
Zn4D_2 O12 1_555 1_555
C6 C7 1_555 1_555
C13 C14 1_555 1_555
C23 C24 1_555 1_555
C30 C32 1_555 1_555
C34 C36 1_555 1_555
C41 C42 1_555 1_555
C43 C44 1_555 1_555
O7 Zn1 1_555 1_555
O12 Zn2D 1_555 1_555
O13 Zn4D_2 1_555 1_555
O14 Zn4 1_555 1_555
O15 Zn4 1_555 1_555
Zn4 O12D 1_555 1_555

#END
