
#######################################################################
#
#                 Cambridge Crystallographic Data Centre
#                                CCDC 
#
#######################################################################
#
# If this CIF has been generated from an entry in the Cambridge 
# Structural Database, then it will include bibliographic, chemical, 
# crystal, experimental, refinement or atomic coordinate data resulting 
# from the CCDC's data processing and validation procedures.
#
#######################################################################

data_DAWDOW
_symmetry_cell_setting           rhombohedral
_symmetry_space_group_name_H-M   'R -3 c'
_symmetry_Int_Tables_number      167
_space_group_name_Hall           '-R 3 2"c'
loop_
_symmetry_equiv_pos_site_id
_symmetry_equiv_pos_as_xyz
1 x,y,z
2 -y,x-y,z
3 -x+y,-x,z
4 y,x,1/2-z
5 x-y,-y,1/2-z
6 -x,-x+y,1/2-z
7 2/3+x,1/3+y,1/3+z
8 2/3-y,1/3+x-y,1/3+z
9 2/3-x+y,1/3-x,1/3+z
10 2/3+y,1/3+x,5/6-z
11 2/3+x-y,1/3-y,5/6-z
12 2/3-x,1/3-x+y,5/6-z
13 1/3+x,2/3+y,2/3+z
14 1/3-y,2/3+x-y,2/3+z
15 1/3-x+y,2/3-x,2/3+z
16 1/3+y,2/3+x,1/6-z
17 1/3+x-y,2/3-y,1/6-z
18 1/3-x,2/3-x+y,1/6-z
19 -x,-y,-z
20 y,-x+y,-z
21 x-y,x,-z
22 -y,-x,1/2+z
23 -x+y,y,1/2+z
24 x,x-y,1/2+z
25 1/3-x,2/3-y,2/3-z
26 1/3+y,2/3-x+y,2/3-z
27 1/3+x-y,2/3+x,2/3-z
28 1/3-y,2/3-x,1/6+z
29 1/3-x+y,2/3+y,1/6+z
30 1/3+x,2/3+x-y,1/6+z
31 2/3-x,1/3-y,1/3-z
32 2/3+y,1/3-x+y,1/3-z
33 2/3+x-y,1/3+x,1/3-z
34 2/3-y,1/3-x,5/6+z
35 2/3-x+y,1/3+y,5/6+z
36 2/3+x,1/3+x-y,5/6+z
_cell_length_a                   13.5182(16)
_cell_length_b                   13.5182(16)
_cell_length_c                   54.861(9)
_cell_angle_alpha                90
_cell_angle_beta                 90
_cell_angle_gamma                120
_cell_volume                     8682.25
loop_
_atom_site_label
_atom_site_type_symbol
_atom_site_fract_x
_atom_site_fract_y
_atom_site_fract_z
C1 C -0.0330(4) 0.8853(3) -0.03191(6)
H1 H -0.0557 0.8084 -0.0302
C2 C -0.1175(4) 0.9172(3) -0.03306(7)
C3 C -0.2378(4) 0.8380(3) -0.03263(6)
C4 C -0.3959(4) 0.6542(2) -0.01875(7)
H2 H -0.4058 0.5802 -0.0144
H3 H -0.4333 0.6460 -0.0343
C5 C -0.4555(4) 0.6895(3) 0.00074(6)
Cu1 Cu -0.6667 0.6667 0.020920(13)
N1 N -0.2760(3) 0.7346(2) -0.02134(6)
H4 H -0.2451 0.6986 -0.0294
O1 O -0.30833(28) 0.86357(19) -0.03987(5)
O2 O -0.4028(3) 0.7710(2) 0.01393(4)
O3 O -0.5640(3) 0.6277(2) 0.00093(5)
O4 O -0.6985(28) 0.5640(19) 0.0466(5)
H5 H -0.7257 0.4893 0.0397
H6 H -0.7552 0.5616 0.0575
C1B C -0.0817(5) 1.0330(4) -0.03191(6)
C1A C 0.1147(3) 1.0817(5) -0.03191(6)
H1B H -0.1359 1.0557 -0.0302
H1A H 0.1916 1.1359 -0.0302
C2B C 0.0347(5) 1.1175(4) -0.03306(7)
C2A C 0.0828(3) 0.9653(5) -0.03306(7)
C3A C 0.1620(3) 0.9242(5) -0.03263(6)
C3B C 0.0758(5) 1.2378(4) -0.03263(6)
C4A C 0.3458(2) 0.9499(4) -0.01875(7)
C4B C 0.0501(4) 1.3959(4) -0.01875(7)
H2A H 0.4198 1.0140 -0.0144
H2B H -0.0140 1.4058 -0.0144
H3A H 0.3540 0.9207 -0.0343
H3B H 0.0793 1.4333 -0.0343
C5A C 0.3105(3) 0.8550(5) 0.00074(6)
C5B C 0.1450(5) 1.4555(4) 0.00074(6)
Cu1A Cu 0.3333 0.6666 0.020920(13)
Cu1B Cu 0.3334 1.6667 0.020920(13)
N1A N 0.2654(2) 0.9894(4) -0.02134(6)
N1B N 0.0106(4) 1.2760(3) -0.02134(6)
H4A H 0.3014 1.0563 -0.0294
H4B H -0.0563 1.2451 -0.0294
O1A O 0.13643(19) 0.82810(34) -0.03987(5)
O1B O 0.17190(34) 1.30833(28) -0.03987(5)
O2A O 0.2290(2) 0.8262(4) 0.01393(4)
O2B O 0.1738(4) 1.4028(3) 0.01393(4)
O3A O 0.3723(2) 0.8083(4) 0.00093(5)
O3B O 0.1917(4) 1.5640(3) 0.00093(5)
O3A_2 O -0.6277(2) 0.8083(4) 0.00093(5)
O3B_2 O -0.8083(4) 0.5640(3) 0.00093(5)
O4A O -0.5640(19) 0.7375(34) 0.0466(5)
O4B O -0.7375(34) 0.6985(28) 0.0466(5)
H5A H -0.4893 0.7850 0.0397
H5B H -0.7850 0.7257 0.0397
H6A H -0.5616 0.6832 0.0575
H6B H -0.6832 0.7552 0.0575
Cu2 Cu 0.3333 0.6667 0.9167
O5 O 0.232(4) 0.658(6) 0.9441(8)
H7 H 0.1792 0.6662 0.9375
H8 H 0.2703 0.7172 0.9529
O5A O 0.342(6) 0.574(7) 0.9441(8)
O5B O 0.426(7) 0.768(4) 0.9441(8)
O5I O 0.325(6) 0.565(4) 0.8892(8)
O5J O 0.241(7) 0.675(6) 0.8892(8)
O5K O 0.435(4) 0.759(7) 0.8892(8)
H7A H 0.3338 0.5130 0.9375
H7B H 0.4870 0.8208 0.9375
H7I H 0.3329 0.5125 0.8958
H7J H 0.1797 0.6671 0.8958
H7K H 0.4875 0.8203 0.8958
H8A H 0.2828 0.5531 0.9529
H8B H 0.4469 0.7297 0.9529
H8I H 0.3839 0.6036 0.8804
H8J H 0.2198 0.6161 0.8804
H8K H 0.3964 0.7802 0.8804
O6 O 0.3333 0.1245(6) 0.9167
O7 O 0.5821(8) 0.0664(7) 0.92804(15)
H9 H 0.6531 0.1001 0.9249
H10 H 0.5685 0.0279 0.9411
H11? H 0.3558 0.1847 0.9251
H12? H 0.3992 0.1394 0.9118
H13? H 0.2926 0.4818 0.0386
H14? H 0.2632 0.5540 0.0564
H15? H 0.2589 0.7114 0.9540
H16? H 0.1679 0.6604 0.9386
O8? O 0.3198(18) 0.556(2) 0.0455(4)
O9? O 0.220(4) 0.652(4) 0.9452(8)
loop_
_geom_bond_atom_site_label_1
_geom_bond_atom_site_label_2
_geom_bond_site_symmetry_1
_geom_bond_site_symmetry_2
C1 H1 1_555 1_555
C2 C1 1_555 1_555
C3 C2 1_555 1_555
C4 H2 1_555 1_555
H3 C4 1_555 1_555
C5 C4 1_555 1_555
Cu1 O3 1_555 1_555
N1 C3 1_555 1_555
H4 N1 1_555 1_555
O1 C3 1_555 1_555
O2 C5 1_555 1_555
O3 C5 1_555 1_555
O4 Cu1 1_555 1_555
H5 O4 1_555 1_555
H6 O4 1_555 1_555
Cu2 O5 1_555 1_555
O5 H7 1_555 1_555
H8 O5 1_555 1_555
O7 H9 1_555 1_555
H10 O7 1_555 1_555
C1B C2 1_555 1_555
C1A H1A 1_555 1_555
H1B C1B 1_555 1_555
C2B C1B 1_555 1_555
C2A C1 1_555 1_555
C3A C2A 1_555 1_555
C3B C2B 1_555 1_555
C4A H2A 1_555 1_555
C4B H2B 1_555 1_555
H3A C4A 1_555 1_555
H3B C4B 1_555 1_555
C5A C4A 1_555 1_555
C5B C4B 1_555 1_555
Cu1A O3A 1_555 1_555
Cu1B O3B 1_555 1_555
N1A C3A 1_555 1_555
N1B C3B 1_555 1_555
H4A N1A 1_555 1_555
H4B N1B 1_555 1_555
O1A C3A 1_555 1_555
O1B C3B 1_555 1_555
O2A C5A 1_555 1_555
O2B C5B 1_555 1_555
O3A C5A 1_555 1_555
O3B C5B 1_555 1_555
O3A_2 Cu1 1_555 1_555
O3B_2 Cu1 1_555 1_555
O4A Cu1 1_555 1_555
O4B Cu1 1_555 1_555
H5A O4A 1_555 1_555
H5B O4B 1_555 1_555
H6A O4A 1_555 1_555
H6B O4B 1_555 1_555
O5A Cu2 1_555 1_555
O5B Cu2 1_555 1_555
O5I Cu2 1_555 1_555
O5J Cu2 1_555 1_555
O5K Cu2 1_555 1_555
H7A O5A 1_555 1_555
H7B O5B 1_555 1_555
H7I O5I 1_555 1_555
H7J O5J 1_555 1_555
H7K O5K 1_555 1_555
H8A O5A 1_555 1_555
H8B O5B 1_555 1_555
H8I O5I 1_555 1_555
H8J O5J 1_555 1_555
H8K O5K 1_555 1_555
C4 N1 1_555 1_555
C1A C2B 1_555 1_555
C1A C2A 1_555 1_555
C4A N1A 1_555 1_555
C4B N1B 1_555 1_555

#END
