
#######################################################################
#
#                 Cambridge Crystallographic Data Centre
#                                CCDC 
#
#######################################################################
#
# If this CIF has been generated from an entry in the Cambridge 
# Structural Database, then it will include bibliographic, chemical, 
# crystal, experimental, refinement or atomic coordinate data resulting 
# from the CCDC's data processing and validation procedures.
#
#######################################################################

data_DAWDAI
_symmetry_cell_setting           monoclinic
_symmetry_space_group_name_H-M   'P 2/c'
_symmetry_Int_Tables_number      13
_space_group_name_Hall           '-P 2yc'
loop_
_symmetry_equiv_pos_site_id
_symmetry_equiv_pos_as_xyz
1 x,y,z
2 -x,y,1/2-z
3 -x,-y,-z
4 x,-y,1/2+z
_cell_length_a                   13.3185(13)
_cell_length_b                   9.4298(9)
_cell_length_c                   25.8321(19)
_cell_angle_alpha                90
_cell_angle_beta                 116.342(4)
_cell_angle_gamma                90
_cell_volume                     2907.39
loop_
_atom_site_label
_atom_site_type_symbol
_atom_site_fract_x
_atom_site_fract_y
_atom_site_fract_z
C1 C 0.2032(4) -0.1470(5) 0.62559(19)
C2 C 0.2516(4) -0.0404(5) 0.67307(19)
C3 C 0.3483(4) -0.0638(7) 0.7205(2)
H1 H 0.3879 -0.1471 0.7235
C4 C 0.3896(4) 0.0340(7) 0.7650(3)
H2 H 0.4572 0.0160 0.7971
C5 C 0.3340(4) 0.1548(5) 0.76269(19)
C6 C 0.2363(5) 0.1793(6) 0.7146(2)
H3 H 0.1967 0.2623 0.7120
C7 C 0.1949(5) 0.0840(6) 0.6695(2)
H4 H 0.1287 0.1036 0.6368
C8 C 0.3704(3) 0.2626(5) 0.81133(19)
H5 H 0.3495 0.3558 0.7928
C9 C 0.3047(4) 0.2448(5) 0.84663(19)
C10 C 0.2649(5) 0.1172(6) 0.8543(3)
H6 H 0.2761 0.0366 0.8368
C11 C 0.2075(5) 0.1059(6) 0.8881(3)
H7 H 0.1795 0.0183 0.8920
C12 C 0.1918(4) 0.2206(5) 0.9154(2)
C13 C 0.2309(5) 0.3493(6) 0.9070(3)
H8 H 0.2197 0.4296 0.9247
C14 C 0.2857(5) 0.3619(6) 0.8736(3)
H9 H 0.3109 0.4506 0.8687
C15 C 0.1335(4) 0.2092(5) 0.95321(19)
C16 C 0.4966(4) 0.2688(5) 0.85014(18)
C17 C 0.5581(4) 0.3738(6) 0.8416(2)
H10 H 0.5231 0.4377 0.8114
C18 C 0.6722(4) 0.3866(6) 0.8771(2)
H11 H 0.7128 0.4601 0.8714
C19 C 0.7258(3) 0.2887(5) 0.92149(18)
C20 C 0.6643(4) 0.1820(5) 0.9295(2)
H12 H 0.6993 0.1159 0.9587
C21 C 0.5506(4) 0.1718(5) 0.8943(2)
H13 H 0.5098 0.0991 0.9003
C22 C 0.8476(3) 0.3037(4) 0.96045(17)
C23 C 0.9557(6) 0.5041(6) 0.8498(3)
H14 H 0.9283 0.4253 0.8611
C24 C 0.9630(6) 0.4976(7) 0.7979(3)
H15 H 0.9435 0.4145 0.7763
C25 C 0.9984(5) 0.6124(6) 0.7782(2)
C26 C 1.0317(7) 0.7300(8) 0.8144(3)
H16 H 1.0584 0.8104 0.8037
C27 C 1.0252(5) 0.7269(6) 0.8659(3)
H17 H 1.0493 0.8060 0.8897
Cd1 Cd 0.92713(2) 0.65203(3) 0.954590(12)
Cd2 Cd 0.0000 0.0000 0.5000
N1 N 0.9855(4) 0.6151(5) 0.88365(19)
O1 O 0.1161(3) -0.1134(4) 0.58083(13)
O2 O 0.2436(3) -0.2681(4) 0.63132(16)
O3 O 0.8983(3) 0.4156(4) 0.95970(15)
O4 O 0.8979(3) 0.2068(3) 0.99502(14)
O5 O 0.0822(3) 0.0962(4) 0.95129(16)
O6 O 0.1404(3) 0.3146(4) 0.98325(16)
C1A C 0.7968(4) -0.1470(5) 0.87441(19)
C2A C 0.7484(4) -0.0404(5) 0.82693(19)
C3A C 0.6517(4) -0.0638(7) 0.7795(2)
H1A H 0.6121 -0.1471 0.7765
C4A C 0.6104(4) 0.0340(7) 0.7350(3)
H2A H 0.5428 0.0160 0.7029
C5A C 0.6660(4) 0.1548(5) 0.73731(19)
C6A C 0.7637(5) 0.1793(6) 0.7854(2)
H3A H 0.8033 0.2623 0.7880
C7A C 0.8051(5) 0.0840(6) 0.8305(2)
H4A H 0.8713 0.1036 0.8632
C8A C 0.6296(3) 0.2626(5) 0.68867(19)
H5A H 0.6505 0.3558 0.7072
C9A C 0.6953(4) 0.2448(5) 0.65337(19)
C10A C 0.7351(5) 0.1172(6) 0.6457(3)
H6A H 0.7239 0.0366 0.6632
C11A C 0.7925(5) 0.1059(6) 0.6119(3)
H7A H 0.8205 0.0183 0.6080
C12A C 0.8082(4) 0.2206(5) 0.5846(2)
C13A C 0.7691(5) 0.3493(6) 0.5930(3)
H8A H 0.7803 0.4296 0.5753
C14A C 0.7143(5) 0.3619(6) 0.6264(3)
H9A H 0.6891 0.4506 0.6313
C15A C 0.8665(4) 0.2092(5) 0.54679(19)
C16A C 0.5034(4) 0.2688(5) 0.64986(18)
C17A C 0.4419(4) 0.3738(6) 0.6584(2)
H10A H 0.4769 0.4377 0.6886
C18A C 0.3278(4) 0.3866(6) 0.6229(2)
H11A H 0.2872 0.4601 0.6286
C19A C 0.2742(3) 0.2887(5) 0.57851(18)
C20A C 0.3357(4) 0.1820(5) 0.5705(2)
H12A H 0.3007 0.1159 0.5413
C21A C 0.4494(4) 0.1718(5) 0.6057(2)
H13A H 0.4902 0.0991 0.5997
C22A C 0.1524(3) 0.3037(4) 0.53955(17)
C23A C 1.0443(6) 0.5041(6) 0.6502(3)
H14A H 1.0717 0.4253 0.6389
C24A C 1.0370(6) 0.4976(7) 0.7021(3)
H15A H 1.0565 0.4145 0.7237
C25A C 1.0016(5) 0.6124(6) 0.7218(2)
C26A C 0.9683(7) 0.7300(8) 0.6856(3)
H16A H 0.9416 0.8104 0.6963
C27A C 0.9748(5) 0.7269(6) 0.6341(3)
H17A H 0.9507 0.8060 0.6103
Cd1A Cd 0.07287(2) 0.65203(3) 0.545410(12)
Cd1A_2 Cd 0.07287(2) -0.34797(3) 0.545410(12)
Cd1B Cd 1.07287(2) 0.34797(3) 1.045410(12)
Cd1B_2 Cd 0.07287(2) 0.34797(3) 1.045410(12)
Cd1A_3 Cd 1.07287(2) 0.65203(3) 0.545410(12)
Cd1_2 Cd 0.92713(2) -0.34797(3) 0.954590(12)
Cd1C Cd -0.07287(2) 0.34797(3) 0.454590(12)
Cd1C_2 Cd 0.92713(2) 0.34797(3) 0.454590(12)
Cd2A Cd 1.0000 0.0000 1.0000
Cd2A_2 Cd 0.0000 0.0000 1.0000
Cd2_2 Cd 1.0000 0.0000 0.5000
N1A N 1.0145(4) 0.6151(5) 0.61635(19)
N1A_2 N 0.0145(4) 0.6151(5) 0.61635(19)
O1A O 0.8839(3) -0.1134(4) 0.91917(13)
O1A_2 O 0.8839(3) 0.8866(4) 0.91917(13)
O1B O -0.1161(3) 0.1134(4) 0.41917(13)
O1_2 O 0.1161(3) 0.8866(4) 0.58083(13)
O2A O 0.7564(3) -0.2681(4) 0.86868(16)
O2A_2 O 0.7564(3) 0.7319(4) 0.86868(16)
O2_2 O 0.2436(3) 0.7319(4) 0.63132(16)
O3A O 0.1017(3) 0.4156(4) 0.54030(15)
O3B O 1.1017(3) 0.5844(4) 1.04030(15)
O3C O -0.1017(3) 0.5844(4) 0.45970(15)
O4A O 0.1021(3) 0.2068(3) 0.50498(14)
O4B O 1.1021(3) 0.7932(3) 1.00498(14)
O4C O -0.1021(3) -0.2068(3) 0.49502(14)
O4C_2 O -0.1021(3) 0.7932(3) 0.49502(14)
O5A O 0.9178(3) 0.0962(4) 0.54871(16)
O5A_2 O -0.0822(3) 0.0962(4) 0.54871(16)
O5C O 0.0822(3) -0.0962(4) 0.45129(16)
O6A O 0.8596(3) 0.3146(4) 0.51675(16)
O6B O 0.8596(3) 0.6854(4) 1.01675(16)
O6C O 0.1404(3) 0.6854(4) 0.48325(16)
C28 C 0.4103(5) 0.7354(6) 0.8625(3)
H18 H 0.4514 0.7280 0.8415
C29 C 0.4207(5) 0.7742(6) 0.9570(3)
H19 H 0.4392 0.8689 0.9719
H20 H 0.4518 0.7076 0.9883
H21 H 0.3407 0.7636 0.9377
C30 C 0.5817(5) 0.7398(6) 0.9385(3)
H22 H 0.6071 0.6496 0.9569
H23 H 0.6162 0.8143 0.9661
H24 H 0.6017 0.7497 0.9073
N2 N 0.4658(8) 0.7484(12) 0.9171(5)
O7 O 0.3133(11) 0.7319(12) 0.8365(5)
O8 O 0.3252(11) 0.5851(10) 0.7398(4)
H25 H 0.3229 0.6280 0.7681
H26 H 0.2589 0.5704 0.7139
loop_
_geom_bond_atom_site_label_1
_geom_bond_atom_site_label_2
_geom_bond_site_symmetry_1
_geom_bond_site_symmetry_2
C1 C2 1_555 1_555
C2 C3 1_555 1_555
C3 H1 1_555 1_555
C4 C3 1_555 1_555
H2 C4 1_555 1_555
C5 C4 1_555 1_555
C6 C5 1_555 1_555
H3 C6 1_555 1_555
C7 C2 1_555 1_555
H4 C7 1_555 1_555
C8 C5 1_555 1_555
H5 C8 1_555 1_555
C9 C8 1_555 1_555
C10 C9 1_555 1_555
H6 C10 1_555 1_555
C11 C10 1_555 1_555
H7 C11 1_555 1_555
C12 C11 1_555 1_555
C13 C12 1_555 1_555
H8 C13 1_555 1_555
C14 C9 1_555 1_555
H9 C14 1_555 1_555
C15 C12 1_555 1_555
C16 C8 1_555 1_555
C17 C16 1_555 1_555
H10 C17 1_555 1_555
C18 C17 1_555 1_555
H11 C18 1_555 1_555
C19 C18 1_555 1_555
C20 C19 1_555 1_555
H12 C20 1_555 1_555
C21 C16 1_555 1_555
H13 C21 1_555 1_555
C22 C19 1_555 1_555
C23 H14 1_555 1_555
C24 C23 1_555 1_555
H15 C24 1_555 1_555
C25 C24 1_555 1_555
C26 C25 1_555 1_555
H16 C26 1_555 1_555
C27 C26 1_555 1_555
H17 C27 1_555 1_555
Cd1 N1 1_555 1_555
Cd2 O1 1_555 1_555
N1 C23 1_555 1_555
O1 C1 1_555 1_555
O2 C1 1_555 1_555
O3 C22 1_555 1_555
O4 C22 1_555 1_555
O5 C15 1_555 1_555
O6 C15 1_555 1_555
C28 H18 1_555 1_555
C29 H19 1_555 1_555
H20 C29 1_555 1_555
H21 C29 1_555 1_555
C30 H22 1_555 1_555
H23 C30 1_555 1_555
H24 C30 1_555 1_555
N2 C28 1_555 1_555
O7 C28 1_555 1_555
O8 H25 1_555 1_555
H26 O8 1_555 1_555
C1A C2A 1_555 1_555
C2A C3A 1_555 1_555
C3A H1A 1_555 1_555
C4A C3A 1_555 1_555
H2A C4A 1_555 1_555
C5A C4A 1_555 1_555
C6A C5A 1_555 1_555
H3A C6A 1_555 1_555
C7A C2A 1_555 1_555
H4A C7A 1_555 1_555
C8A C5A 1_555 1_555
H5A C8A 1_555 1_555
C9A C8A 1_555 1_555
C10A C9A 1_555 1_555
H6A C10A 1_555 1_555
C11A C10A 1_555 1_555
H7A C11A 1_555 1_555
C12A C11A 1_555 1_555
C13A C12A 1_555 1_555
H8A C13A 1_555 1_555
C14A C9A 1_555 1_555
H9A C14A 1_555 1_555
C15A C12A 1_555 1_555
C16A C8A 1_555 1_555
C17A C16A 1_555 1_555
H10A C17A 1_555 1_555
C18A C17A 1_555 1_555
H11A C18A 1_555 1_555
C19A C18A 1_555 1_555
C20A C19A 1_555 1_555
H12A C20A 1_555 1_555
C21A C16A 1_555 1_555
H13A C21A 1_555 1_555
C22A C19A 1_555 1_555
C23A H14A 1_555 1_555
C24A C23A 1_555 1_555
H15A C24A 1_555 1_555
C25A C25 1_555 1_555
C26A C25A 1_555 1_555
H16A C26A 1_555 1_555
C27A C26A 1_555 1_555
H17A C27A 1_555 1_555
Cd1A N1A_2 1_555 1_555
Cd1A_2 O1 1_555 1_555
Cd1B O3 1_555 1_555
Cd1B_2 O6 1_555 1_555
Cd1A_3 N1A 1_555 1_555
Cd1_2 O1A 1_555 1_555
Cd1C O1B 1_555 1_555
Cd1C_2 O6A 1_555 1_555
Cd2A O4 1_555 1_555
Cd2A_2 O5 1_555 1_555
Cd2_2 O5A 1_555 1_555
N1A C23A 1_555 1_555
O1A C1A 1_555 1_555
O1A_2 Cd1 1_555 1_555
O1B Cd2 1_555 1_555
O1_2 Cd1A 1_555 1_555
O2A C1A 1_555 1_555
O2A_2 Cd1 1_555 1_555
O2_2 Cd1A 1_555 1_555
O3A C22A 1_555 1_555
O3B Cd1 1_555 1_555
O3C Cd1A 1_555 1_555
O4A Cd2 1_555 1_555
O4B Cd1 1_555 1_555
O4C Cd2 1_555 1_555
O4C_2 Cd1A 1_555 1_555
O5A C15A 1_555 1_555
O5A_2 Cd2 1_555 1_555
O5C Cd2 1_555 1_555
O6A C15A 1_555 1_555
O6B Cd1 1_555 1_555
O6C Cd1A 1_555 1_555
C6 C7 1_555 1_555
C13 C14 1_555 1_555
C20 C21 1_555 1_555
C27 N1 1_555 1_555
Cd1 O3 1_555 1_555
O2 Cd1A_2 1_555 1_555
O4 Cd1B 1_555 1_555
C29 N2 1_555 1_555
C30 N2 1_555 1_555
C6A C7A 1_555 1_555
C13A C14A 1_555 1_555
C20A C21A 1_555 1_555
C22A O4A 1_555 1_555
C24A C25A 1_555 1_555
C27A N1A 1_555 1_555
Cd1A O3A 1_555 1_555
Cd1A_2 O4C 1_555 1_555
Cd1B O3B 1_555 1_555
Cd1_2 O2A 1_555 1_555
Cd1C O3A 1_555 1_555
Cd1C O3C 1_555 1_555
Cd1C O4A 1_555 1_555
Cd2A O1A 1_555 1_555

#END
