
#######################################################################
#
#                 Cambridge Crystallographic Data Centre
#                                CCDC 
#
#######################################################################
#
# If this CIF has been generated from an entry in the Cambridge 
# Structural Database, then it will include bibliographic, chemical, 
# crystal, experimental, refinement or atomic coordinate data resulting 
# from the CCDC's data processing and validation procedures.
#
#######################################################################

data_DEBNUU
_symmetry_cell_setting           monoclinic
_symmetry_space_group_name_H-M   'P 2/c'
_symmetry_Int_Tables_number      13
_space_group_name_Hall           '-P 2yc'
loop_
_symmetry_equiv_pos_site_id
_symmetry_equiv_pos_as_xyz
1 x,y,z
2 -x,y,1/2-z
3 -x,-y,-z
4 x,-y,1/2+z
_cell_length_a                   10.54073(22)
_cell_length_b                   7.89512(16)
_cell_length_c                   10.32709(22)
_cell_angle_alpha                90
_cell_angle_beta                 109.8186(13)
_cell_angle_gamma                90
_cell_volume                     808.521
loop_
_atom_site_label
_atom_site_type_symbol
_atom_site_fract_x
_atom_site_fract_y
_atom_site_fract_z
Al1 Al 0.3194(5) 0.4298(6) -0.2907(5)
Al2 Al 0.0000 0.5000 0.00000
P1 P 0.2463(4) 0.3085(4) -0.03481(30)
O1 O 0.1062(4) 0.3904(7) -0.0872(5)
O2 O 0.3026(6) 0.2847(7) -0.1540(5)
O3 O 0.3467(5) 0.4169(6) 0.0809(5)
O4 O 0.2636(6) -0.2510(8) 0.0688(6)
O5 O 0.0524(5) -0.2742(7) -0.0492(7)
O6 O 0.1376(8) 0.4968(8) 0.1667(7)
O7 O 0.3892(7) 0.6237(8) -0.1514(7)
O8 O 0.5000 0.3526(12) -0.25000
C1 C 0.2357(8) 0.1026(5) 0.0378(5)
C2 C 0.1590(9) -0.0173(6) -0.0723(6)
C3 C 0.1581(6) -0.1913(6) -0.0132(9)
Al1B Al -0.3194(5) 0.5702(6) 0.2907(5)
Al1C Al 0.3194(5) 0.5702(6) 0.2093(5)
Al1C_2 Al 0.3194(5) -0.4298(6) 0.2093(5)
Al1A Al 0.6806(5) 0.4298(6) -0.2093(5)
Al1A_2 Al -0.3194(5) 0.4298(6) -0.2093(5)
Al1A_3 Al -0.3194(5) 1.4298(6) -0.2093(5)
Al2_2 Al 0.0000 -0.5000 0.00000
Al2_3 Al 0.0000 1.5000 0.00000
P1B P -0.2463(4) 0.6915(4) 0.03481(30)
O1B O -0.1062(4) 0.6096(7) 0.0872(5)
O2B O -0.3026(6) 0.7153(7) 0.1540(5)
O3B O -0.3467(5) 0.5831(6) -0.0809(5)
O3C O 0.3467(5) 0.5831(6) -0.4191(5)
O3A O -0.3467(5) 0.4169(6) 0.4191(5)
O4B O -0.2636(6) 1.2510(8) -0.0688(6)
O4C O 0.2636(6) 0.2510(8) -0.4312(6)
O4A O -0.2636(6) 0.7490(8) 0.4312(6)
O5B O -0.0524(5) 1.2742(7) 0.0492(7)
O5_2 O 0.0524(5) 0.7258(7) -0.0492(7)
O5B_2 O -0.0524(5) 0.2742(7) 0.0492(7)
O6B O -0.1376(8) 0.5032(8) -0.1667(7)
O6C O 0.1376(8) 0.5032(8) -0.3333(7)
O6A O -0.1376(8) 0.4968(8) 0.3333(7)
O7B O -0.3892(7) 0.3763(8) 0.1514(7)
O8C O -0.5000 0.6474(12) 0.25000
C1B C -0.2357(8) 0.8974(5) -0.0378(5)
C2B C -0.1590(9) 1.0173(6) 0.0723(6)
C3B C -0.1581(6) 1.1913(6) 0.0132(9)
loop_
_geom_bond_atom_site_label_1
_geom_bond_atom_site_label_2
_geom_bond_site_symmetry_1
_geom_bond_site_symmetry_2
Al1 O2 1_555 1_555
Al2 O1 1_555 1_555
P1 O1 1_555 1_555
O2 P1 1_555 1_555
O3 P1 1_555 1_555
O4 C3 1_555 1_555
O5 C3 1_555 1_555
O6 Al2 1_555 1_555
O7 Al1 1_555 1_555
O8 Al1 1_555 1_555
C1 P1 1_555 1_555
C2 C1 1_555 1_555
C3 C2 1_555 1_555
Al1B O2B 1_555 1_555
Al1C O3 1_555 1_555
Al1C_2 O4 1_555 1_555
Al1A O8 1_555 1_555
Al1A_2 O3B 1_555 1_555
Al1A_3 O4B 1_555 1_555
Al2_2 O5 1_555 1_555
Al2_3 O5B 1_555 1_555
P1B O1B 1_555 1_555
O1B Al2 1_555 1_555
O2B P1B 1_555 1_555
O3B P1B 1_555 1_555
O3C Al1 1_555 1_555
O3A Al1B 1_555 1_555
O4B C3B 1_555 1_555
O4C Al1 1_555 1_555
O4A Al1B 1_555 1_555
O5B C3B 1_555 1_555
O5_2 Al2 1_555 1_555
O5B_2 Al2 1_555 1_555
O6B Al2 1_555 1_555
O6C Al1 1_555 1_555
O6A Al1B 1_555 1_555
O7B Al1B 1_555 1_555
O8C Al1B 1_555 1_555
C1B P1B 1_555 1_555
C2B C1B 1_555 1_555
C3B C2B 1_555 1_555
O6 Al1C 1_555 1_555
Al1A_2 O6B 1_555 1_555

#END
