
#######################################################################
#
#                 Cambridge Crystallographic Data Centre
#                                CCDC 
#
#######################################################################
#
# If this CIF has been generated from an entry in the Cambridge 
# Structural Database, then it will include bibliographic, chemical, 
# crystal, experimental, refinement or atomic coordinate data resulting 
# from the CCDC's data processing and validation procedures.
#
#######################################################################

data_DEBWEO
_symmetry_cell_setting           hexagonal
_symmetry_space_group_name_H-M   'P 64 2 2'
_symmetry_Int_Tables_number      181
_space_group_name_Hall           "P 64 2' (0,0,2)"
loop_
_symmetry_equiv_pos_site_id
_symmetry_equiv_pos_as_xyz
1 x,y,z
2 x-y,x,2/3+z
3 -y,x-y,1/3+z
4 -x,-y,z
5 -x+y,-x,2/3+z
6 y,-x+y,1/3+z
7 x-y,-y,-z
8 -x,-x+y,2/3-z
9 y,x,1/3-z
10 -y,-x,1/3-z
11 -x+y,y,-z
12 x,x-y,2/3-z
_cell_length_a                   16.314(3)
_cell_length_b                   16.314(3)
_cell_length_c                   25.510(7)
_cell_angle_alpha                90
_cell_angle_beta                 90
_cell_angle_gamma                120
_cell_volume                     5879.79
loop_
_atom_site_label
_atom_site_type_symbol
_atom_site_fract_x
_atom_site_fract_y
_atom_site_fract_z
Zn1 Zn 0.29179(3) 0.58358(5) 0.0000
Cu1 Cu 0.5000 0.0000 0.0000
N1 N 0.3416(3) 0.4929(3) 0.01804(16)
C1 C 0.3597(5) 0.4469(5) -0.0171(2)
H1 H 0.3503 0.4558 -0.0530
C2 C 0.3925(5) 0.3848(5) -0.0048(2)
H2 H 0.4098 0.3564 -0.0319
C3 C 0.3992(4) 0.3656(4) 0.0456(2)
C4 C 0.3826(5) 0.4154(5) 0.0834(2)
H3 H 0.3914 0.4074 0.1194
C5 C 0.3528(4) 0.4774(4) 0.0678(2)
H4 H 0.3397 0.5106 0.0941
N2 N 0.4275(3) 0.2994(3) 0.05664(16)
H5 H 0.4414 0.2755 0.0294
C6 C 0.4360(5) 0.2678(4) 0.1039(2)
O1 O 0.4183(7) 0.2916(6) 0.1438(2)
C7 C 0.4571(4) 0.1886(4) 0.1041(2)
C8 C 0.4684(6) 0.1543(5) 0.1515(2)
H6 H 0.4653 0.1838 0.1829
C9 C 0.4836(6) 0.0813(4) 0.1546(2)
H7 H 0.4885 0.0574 0.1877
N3 N 0.4832(4) 0.0715(4) 0.06211(19)
C10 C 0.4924(4) 0.0406(3) 0.10794(19)
C11 C 0.4667(5) 0.1447(5) 0.0596(2)
H8 H 0.4614 0.1671 0.0262
O2 O 0.2945(3) 0.6292(3) 0.07207(15)
O3 O 0.2384(4) 0.7046(3) 0.0285(2)
C12 C 0.2651(5) 0.6855(4) 0.0690(3)
C13 C 0.2876(2) 0.7124(2) 0.1667
H9 H 0.3212 0.6788 0.1667
C14 C 0.2511(7) 0.7244(6) 0.1204(3)
C15 C 0.2035(10) 0.7732(9) 0.1201(4)
H10 H 0.1790 0.7828 0.0884
C16 C 0.1917(4) 0.8083(4) 0.1667
H11 H 0.1580 0.8420 0.1667
Zn1C Zn -0.29179(3) -0.58358(5) 0.0000
Zn1_2 Zn 1.29179(3) 0.58358(5) 0.0000
Zn1B Zn 0.41642(5) 0.70821(6) 0.3333
Zn1D Zn 0.29179(6) 0.70821(3) -0.3333
Zn1C_2 Zn 0.70821(3) -0.58358(5) 0.0000
N1C N 0.6584(3) -0.4929(3) 0.01804(16)
N1F N -0.1513(4) -0.4929(3) -0.01804(16)
N1J N 1.1513(4) 0.4929(3) -0.01804(16)
N1C_2 N -0.3416(3) -0.4929(3) 0.01804(16)
N1J_2 N 0.1513(4) 0.4929(3) -0.01804(16)
C1C C 0.6403(5) -0.4469(5) -0.0171(2)
C1F C -0.0872(7) -0.4469(5) 0.0171(2)
C1J C 1.0872(7) 0.4469(5) 0.0171(2)
H1C H 0.6497 -0.4558 -0.0530
H1F H -0.1055 -0.4558 0.0530
H1J H 1.1055 0.4558 0.0530
C2C C 0.6075(5) -0.3848(5) -0.0048(2)
C2F C 0.0077(7) -0.3848(5) 0.0048(2)
C2J C 0.9923(7) 0.3848(5) 0.0048(2)
H2C H 0.5902 -0.3564 -0.0319
H2F H 0.0534 -0.3564 0.0319
H2J H 0.9466 0.3564 0.0319
C3C C 0.6008(4) -0.3656(4) 0.0456(2)
C3F C 0.0336(6) -0.3656(4) -0.0456(2)
C3J C 0.9664(6) 0.3656(4) -0.0456(2)
C4C C 0.6174(5) -0.4154(5) 0.0834(2)
C4F C -0.0328(7) -0.4154(5) -0.0834(2)
C4J C 1.0328(7) 0.4154(5) -0.0834(2)
H3C H 0.6086 -0.4074 0.1194
H3F H -0.0160 -0.4074 -0.1194
H3J H 1.0160 0.4074 -0.1194
C5C C 0.6472(4) -0.4774(4) 0.0678(2)
C5F C -0.1246(6) -0.4774(4) -0.0678(2)
C5J C 1.1246(6) 0.4774(4) -0.0678(2)
H4C H 0.6603 -0.5106 0.0941
H4F H -0.1709 -0.5106 -0.0941
H4J H 1.1709 0.5106 -0.0941
N2C N 0.5725(3) -0.2994(3) 0.05664(16)
N2F N 0.1281(4) -0.2994(3) -0.05664(16)
N2J N 0.8719(4) 0.2994(3) -0.05664(16)
H5C H 0.5586 -0.2755 0.0294
H5F H 0.1659 -0.2755 -0.0294
H5J H 0.8341 0.2755 -0.0294
C6C C 0.5640(5) -0.2678(4) 0.1039(2)
C6F C 0.1682(6) -0.2678(4) -0.1039(2)
C6J C 0.8318(6) 0.2678(4) -0.1039(2)
O1C O 0.5817(7) -0.2916(6) 0.1438(2)
O1F O 0.1267(9) -0.2916(6) -0.1438(2)
O1J O 0.8733(9) 0.2916(6) -0.1438(2)
C7C C 0.5429(4) -0.1886(4) 0.1041(2)
C7F C 0.2685(6) -0.1886(4) -0.1041(2)
C7J C 0.7315(6) 0.1886(4) -0.1041(2)
C8C C 0.5316(6) -0.1543(5) 0.1515(2)
C8F C 0.3141(8) -0.1543(5) -0.1515(2)
C8J C 0.6859(8) 0.1543(5) -0.1515(2)
H6C H 0.5347 -0.1838 0.1829
H6F H 0.2815 -0.1838 -0.1829
H6J H 0.7185 0.1838 -0.1829
C9C C 0.5164(6) -0.0813(4) 0.1546(2)
C9F C 0.4023(7) -0.0813(4) -0.1546(2)
C9J C 0.5977(7) 0.0813(4) -0.1546(2)
H7C H 0.5115 -0.0574 0.1877
H7F H 0.4311 -0.0574 -0.1877
H7J H 0.5689 0.0574 -0.1877
N3C N 0.5168(4) -0.0715(4) 0.06211(19)
N3F N 0.4117(6) -0.0715(4) -0.06211(19)
N3J N 0.5883(6) 0.0715(4) -0.06211(19)
C10C C 0.5076(4) -0.0406(3) 0.10794(19)
C10F C 0.4518(5) -0.0406(3) -0.10794(19)
C10J C 0.5482(5) 0.0406(3) -0.10794(19)
C11C C 0.5333(5) -0.1447(5) 0.0596(2)
C11F C 0.3220(7) -0.1447(5) -0.0596(2)
C11J C 0.6780(7) 0.1447(5) -0.0596(2)
H8C H 0.5386 -0.1671 0.0262
H8F H 0.2943 -0.1671 -0.0262
H8J H 0.7057 0.1671 -0.0262
O2I O 0.3708(3) 0.7055(3) 0.26126(15)
O2J O 0.3347(4) 0.6292(3) -0.07207(15)
O2D O 0.3347(4) 0.7055(3) -0.26126(15)
O2C O -0.2945(3) -0.6292(3) 0.07207(15)
O2F O -0.3347(4) -0.6292(3) -0.07207(15)
O3I O 0.2954(3) 0.7616(4) 0.3048(2)
O3J O 0.4662(5) 0.7046(3) -0.0285(2)
O3D O 0.4662(5) 0.7616(4) -0.3048(2)
C12I C 0.3145(4) 0.7349(5) 0.2643(3)
C12J C 0.4204(6) 0.6855(4) -0.0690(3)
C12D C 0.4204(6) 0.7349(5) -0.2643(3)
C13J C 0.4248(3) 0.7124(2) -0.1667
H9J H 0.3576 0.6788 -0.1667
C14I C 0.2756(6) 0.7489(7) 0.2129(3)
C14J C 0.4733(9) 0.7244(6) -0.1204(3)
C14D C 0.4733(9) 0.7489(7) -0.2129(3)
C15I C 0.2268(9) 0.7965(10) 0.2132(4)
C15J C 0.5697(13) 0.7732(9) -0.1201(4)
C15D C 0.5697(13) 0.7965(10) -0.2132(4)
H10I H 0.2172 0.8210 0.2449
H10J H 0.6038 0.7828 -0.0884
H10D H 0.6038 0.8210 -0.2449
C16J C 0.6166(6) 0.8083(4) -0.1667
H11J H 0.6840 0.8420 -0.1667
loop_
_geom_bond_atom_site_label_1
_geom_bond_atom_site_label_2
_geom_bond_site_symmetry_1
_geom_bond_site_symmetry_2
Zn1 N1 1_555 1_555
Cu1 N3 1_555 1_555
N1 C1 1_555 1_555
C1 H1 1_555 1_555
C2 C1 1_555 1_555
H2 C2 1_555 1_555
C3 C2 1_555 1_555
C4 C3 1_555 1_555
H3 C4 1_555 1_555
C5 N1 1_555 1_555
H4 C5 1_555 1_555
N2 C3 1_555 1_555
H5 N2 1_555 1_555
C6 N2 1_555 1_555
O1 C6 1_555 1_555
C7 C6 1_555 1_555
C8 C7 1_555 1_555
H6 C8 1_555 1_555
C9 C8 1_555 1_555
H7 C9 1_555 1_555
N3 C10 1_555 1_555
C10 C9 1_555 1_555
C11 C7 1_555 1_555
H8 C11 1_555 1_555
O2 Zn1 1_555 1_555
O3 C12 1_555 1_555
C12 O2 1_555 1_555
C13 H9 1_555 1_555
C14 C12 1_555 1_555
C15 C14 1_555 1_555
H10 C15 1_555 1_555
C16 C15 1_555 1_555
H11 C16 1_555 1_555
Zn1C N1F 1_555 1_555
Zn1_2 N1J 1_555 1_555
Zn1B O2I 1_555 1_555
Zn1D O2D 1_555 1_555
Zn1C_2 N1C 1_555 1_555
N1C C1C 1_555 1_555
N1F C1F 1_555 1_555
N1J C1J 1_555 1_555
N1C_2 Zn1C 1_555 1_555
N1J_2 Zn1 1_555 1_555
C1C H1C 1_555 1_555
C1F H1F 1_555 1_555
C1J H1J 1_555 1_555
C2C C1C 1_555 1_555
C2F C1F 1_555 1_555
C2J C1J 1_555 1_555
H2C C2C 1_555 1_555
H2F C2F 1_555 1_555
H2J C2J 1_555 1_555
C3C C2C 1_555 1_555
C3F C2F 1_555 1_555
C3J C2J 1_555 1_555
C4C C3C 1_555 1_555
C4F C3F 1_555 1_555
C4J C3J 1_555 1_555
H3C C4C 1_555 1_555
H3F C4F 1_555 1_555
H3J C4J 1_555 1_555
C5C N1C 1_555 1_555
C5F N1F 1_555 1_555
C5J N1J 1_555 1_555
H4C C5C 1_555 1_555
H4F C5F 1_555 1_555
H4J C5J 1_555 1_555
N2C C3C 1_555 1_555
N2F C3F 1_555 1_555
N2J C3J 1_555 1_555
H5C N2C 1_555 1_555
H5F N2F 1_555 1_555
H5J N2J 1_555 1_555
C6C N2C 1_555 1_555
C6F N2F 1_555 1_555
C6J N2J 1_555 1_555
O1C C6C 1_555 1_555
O1F C6F 1_555 1_555
O1J C6J 1_555 1_555
C7C C6C 1_555 1_555
C7F C6F 1_555 1_555
C7J C6J 1_555 1_555
C8C C7C 1_555 1_555
C8F C7F 1_555 1_555
C8J C7J 1_555 1_555
H6C C8C 1_555 1_555
H6F C8F 1_555 1_555
H6J C8J 1_555 1_555
C9C C8C 1_555 1_555
C9F C8F 1_555 1_555
C9J C8J 1_555 1_555
H7C C9C 1_555 1_555
H7F C9F 1_555 1_555
H7J C9J 1_555 1_555
N3C Cu1 1_555 1_555
N3F Cu1 1_555 1_555
N3J Cu1 1_555 1_555
C10C C10 1_555 1_555
C10F C9F 1_555 1_555
C10J C9J 1_555 1_555
C11C C7C 1_555 1_555
C11F C7F 1_555 1_555
C11J C7J 1_555 1_555
H8C C11C 1_555 1_555
H8F C11F 1_555 1_555
H8J C11J 1_555 1_555
O2I C12I 1_555 1_555
O2J Zn1 1_555 1_555
O2D C12D 1_555 1_555
O2C Zn1C 1_555 1_555
O2F Zn1C 1_555 1_555
O3I C12I 1_555 1_555
O3J C12J 1_555 1_555
O3D C12D 1_555 1_555
C12I C14I 1_555 1_555
C12J O2J 1_555 1_555
C12D C14D 1_555 1_555
C13J H9J 1_555 1_555
C14I C13 1_555 1_555
C14J C12J 1_555 1_555
C14D C13J 1_555 1_555
C15I C16 1_555 1_555
C15J C14J 1_555 1_555
C15D C14D 1_555 1_555
H10I C15I 1_555 1_555
H10J C15J 1_555 1_555
H10D C15D 1_555 1_555
C16J C15J 1_555 1_555
H11J C16J 1_555 1_555
C4 C5 1_555 1_555
N3 C11 1_555 1_555
C13 C14 1_555 1_555
C4C C5C 1_555 1_555
C4F C5F 1_555 1_555
C4J C5J 1_555 1_555
C9C C10C 1_555 1_555
N3C C10C 1_555 1_555
N3C C11C 1_555 1_555
N3F C10F 1_555 1_555
N3F C11F 1_555 1_555
N3J C10J 1_555 1_555
N3J C11J 1_555 1_555
C10F C10J 1_555 1_555
C13J C14J 1_555 1_555
C14I C15I 1_555 1_555
C15D C16J 1_555 1_555

#END
