
#######################################################################
#
#                 Cambridge Crystallographic Data Centre
#                                CCDC 
#
#######################################################################
#
# If this CIF has been generated from an entry in the Cambridge 
# Structural Database, then it will include bibliographic, chemical, 
# crystal, experimental, refinement or atomic coordinate data resulting 
# from the CCDC's data processing and validation procedures.
#
#######################################################################

data_DEHBIC
_symmetry_cell_setting           triclinic
_symmetry_space_group_name_H-M   'P 1'
_symmetry_Int_Tables_number      1
_space_group_name_Hall           'P 1'
loop_
_symmetry_equiv_pos_site_id
_symmetry_equiv_pos_as_xyz
1 x,y,z
_cell_length_a                   6.026(2)
_cell_length_b                   7.450(3)
_cell_length_c                   13.287(4)
_cell_angle_alpha                102.74(3)
_cell_angle_beta                 101.46(5)
_cell_angle_gamma                90.72(3)
_cell_volume                     569.225
loop_
_atom_site_label
_atom_site_type_symbol
_atom_site_fract_x
_atom_site_fract_y
_atom_site_fract_z
Gd1 Gd 0.49991(4) 0.49006(3) 0.49998(3)
Gd2 Gd -0.46433(4) 0.12731(3) -0.14001(3)
O1 O 0.7576(12) 0.2761(10) 0.4288(7)
O2 O -0.7352(11) -0.0377(11) -0.0752(7)
C1 C 0.292(2) 0.388(2) 0.2766(12)
C2 C 0.1375(16) 0.3337(16) 0.1687(8)
H1 H 0.1638 0.2061 0.1368
C3 C -0.1104(19) 0.3404(15) 0.1827(9)
H2 H -0.1268 0.2728 0.2365
C4 C -0.2684(19) 0.2446(19) 0.0789(9)
C5 C 0.6749(13) 0.6974(11) 0.7506(7)
C6 C 0.8632(15) 0.5606(11) 0.7468(7)
H3 H 1.0036 0.6259 0.7444
C7 C 0.8999(13) 0.4897(11) 0.8512(7)
H4 H 0.9856 0.5857 0.9091
C8 C 1.0289(14) 0.3118(13) 0.8436(6)
C9 C 0.0121(14) 0.6823(14) 0.5095(7)
C10 C 0.1498(13) 0.8540(12) 0.5073(7)
H5 H 0.0728 0.9082 0.4498
C11 C 0.1799(17) 0.9987(12) 0.6134(8)
H6 H 0.0381 1.0611 0.6153
C12 C 0.3658(15) 1.1404(11) 0.6131(7)
O3 O 0.4402(13) 0.5226(12) 0.3015(6)
O4 O 0.2687(13) 0.2911(11) 0.3397(5)
O5 O 0.1676(12) 0.4437(11) 0.0984(6)
H7 H 0.2126 0.3809 0.0483
O6 O -0.1566(12) 0.5259(10) 0.2194(6)
H8 H -0.2478 0.5310 0.2581
O7 O -0.4370(12) 0.3261(11) 0.0402(5)
O8 O -0.2259(12) 0.0900(11) 0.0312(6)
O9 O 0.6999(12) 0.8344(9) 0.8253(6)
O10 O 0.5067(12) 0.6585(10) 0.6732(5)
O11 O 0.8035(10) 0.4137(9) 0.6539(5)
H9 H 0.716(17) 0.340(12) 0.667(10)
O12 O 0.6846(11) 0.4536(8) 0.8737(5)
H10 H 0.68(2) 0.535(12) 0.927(6)
O13 O 0.9222(10) 0.1701(9) 0.8497(6)
O14 O 1.2337(10) 0.3229(10) 0.8379(6)
O15 O 0.1106(12) 0.5387(10) 0.5074(7)
O16 O -0.1942(11) 0.7012(10) 0.5109(7)
O17 O 0.3679(10) 0.7974(9) 0.4884(6)
H11 H 0.41(2) 0.835(15) 0.439(7)
O18 O 0.2368(11) 0.9273(9) 0.7040(5)
H12 H 0.30(2) 0.832(10) 0.683(10)
O19 O 0.5386(11) 1.1661(9) 0.6877(5)
O20 O 0.3367(12) 1.2278(10) 0.5389(6)
Gd1_2 Gd -0.50009(4) 0.49006(3) 0.49998(3)
Gd1_3 Gd 0.49991(4) 1.49006(3) 0.49998(3)
Gd2_2 Gd 0.53567(4) 1.12731(3) 0.85999(3)
Gd2_3 Gd 0.53567(4) 0.12731(3) 0.85999(3)
Gd2_4 Gd 1.53567(4) 0.12731(3) 0.85999(3)
O9_2 O -0.3001(12) -0.1656(9) -0.1747(6)
O12_2 O -0.3154(11) 0.4536(8) -0.1263(5)
H10_2 H -0.32(2) 0.535(12) -0.073(6)
O13_2 O -0.0778(10) 0.1701(9) -0.1503(6)
O14_2 O -0.7663(10) 0.3229(10) -0.1621(6)
O16_2 O 0.8058(11) 0.7012(10) 0.5109(7)
O18_2 O -0.7632(11) -0.0727(9) -0.2960(5)
H12_2 H -0.70(2) -0.168(10) -0.317(10)
O19_2 O -0.4614(11) 0.1661(9) -0.3123(5)
O20_2 O 0.3367(12) 0.2278(10) 0.5389(6)
O21 O 0.3095(19) 0.8139(14) 0.1105(7)
O22 O 0.7214(18) 0.7261(12) 0.0550(7)
O23 O 0.456(3) 0.9530(15) 0.3386(9)
loop_
_geom_bond_atom_site_label_1
_geom_bond_atom_site_label_2
_geom_bond_site_symmetry_1
_geom_bond_site_symmetry_2
Gd1 O1 1_555 1_555
Gd2 O2 1_555 1_555
C1 C2 1_555 1_555
C2 H1 1_555 1_555
C3 C2 1_555 1_555
H2 C3 1_555 1_555
C4 C3 1_555 1_555
C5 C6 1_555 1_555
C6 H3 1_555 1_555
C7 C6 1_555 1_555
H4 C7 1_555 1_555
C8 C7 1_555 1_555
C9 C10 1_555 1_555
C10 H5 1_555 1_555
C11 C10 1_555 1_555
H6 C11 1_555 1_555
C12 C11 1_555 1_555
O3 Gd1 1_555 1_555
O4 Gd1 1_555 1_555
O5 C2 1_555 1_555
H7 O5 1_555 1_555
O6 C3 1_555 1_555
H8 O6 1_555 1_555
O7 Gd2 1_555 1_555
O8 Gd2 1_555 1_555
O9 C5 1_555 1_555
O10 Gd1 1_555 1_555
O11 Gd1 1_555 1_555
H9 O11 1_555 1_555
O12 C7 1_555 1_555
H10 O12 1_555 1_555
O13 C8 1_555 1_555
O14 C8 1_555 1_555
O15 Gd1 1_555 1_555
O16 C9 1_555 1_555
O17 Gd1 1_555 1_555
H11 O17 1_555 1_555
O18 C11 1_555 1_555
H12 O18 1_555 1_555
O19 C12 1_555 1_555
O20 C12 1_555 1_555
Gd1_2 O16 1_555 1_555
Gd1_3 O20 1_555 1_555
Gd2_2 O9 1_555 1_555
Gd2_3 O12 1_555 1_555
Gd2_4 O14 1_555 1_555
O9_2 Gd2 1_555 1_555
O12_2 Gd2 1_555 1_555
H10_2 O12_2 1_555 1_555
O13_2 Gd2 1_555 1_555
O14_2 Gd2 1_555 1_555
O16_2 Gd1 1_555 1_555
O18_2 Gd2 1_555 1_555
H12_2 O18_2 1_555 1_555
O19_2 Gd2 1_555 1_555
O20_2 Gd1 1_555 1_555
C1 O3 1_555 1_555
C1 O4 1_555 1_555
C4 O7 1_555 1_555
C4 O8 1_555 1_555
C5 O10 1_555 1_555
C6 O11 1_555 1_555
C9 O15 1_555 1_555
C10 O17 1_555 1_555
O13 Gd2_3 1_555 1_555
O18 Gd2_2 1_555 1_555
O19 Gd2_2 1_555 1_555

#END
