
#######################################################################
#
#                 Cambridge Crystallographic Data Centre
#                                CCDC 
#
#######################################################################
#
# If this CIF has been generated from an entry in the Cambridge 
# Structural Database, then it will include bibliographic, chemical, 
# crystal, experimental, refinement or atomic coordinate data resulting 
# from the CCDC's data processing and validation procedures.
#
#######################################################################

data_DEHLIN
_symmetry_cell_setting           monoclinic
_symmetry_space_group_name_H-M   'C 2/c'
_symmetry_Int_Tables_number      15
_space_group_name_Hall           '-C 2yn'
loop_
_symmetry_equiv_pos_site_id
_symmetry_equiv_pos_as_xyz
1 x,y,z
2 -x,y,1/2-z
3 1/2+x,1/2+y,z
4 1/2-x,1/2+y,1/2-z
5 -x,-y,-z
6 x,-y,1/2+z
7 1/2-x,1/2-y,-z
8 1/2+x,1/2-y,1/2+z
_cell_length_a                   24.100(3)
_cell_length_b                   11.4627(14)
_cell_length_c                   41.889(5)
_cell_angle_alpha                90
_cell_angle_beta                 96.397(2)
_cell_angle_gamma                90
_cell_volume                     11499.8
loop_
_atom_site_label
_atom_site_type_symbol
_atom_site_fract_x
_atom_site_fract_y
_atom_site_fract_z
C1 C 0.5198(4) -0.4249(7) 0.80793(17)
C2 C 0.5326(4) -0.4747(6) 0.84179(16)
C3 C 0.4869(4) -0.5044(7) 0.85845(17)
H1 H 0.4505 -0.4976 0.8487
C4 C 0.4979(4) -0.5446(7) 0.89023(18)
H2 H 0.4689 -0.5633 0.9022
C5 C 0.5530(4) -0.5555(7) 0.90333(17)
C6 C 0.5990(4) -0.5227(7) 0.88706(18)
H3 H 0.6355 -0.5283 0.8968
C7 C 0.5872(4) -0.4818(6) 0.85592(17)
H4 H 0.6162 -0.4589 0.8444
C8 C 0.5222(3) -0.5886(7) 0.95554(13)
H5 H 0.4943 -0.6487 0.9504
H6 H 0.5042 -0.5128 0.9537
C9 C 0.5531(3) -0.6069(7) 0.98950(15)
C10 C 0.5430(3) -0.7074(7) 1.00684(18)
C11 C 0.5668(3) -0.7152(7) 1.03932(17)
C12 C 0.6014(3) -0.6256(8) 1.05328(17)
C13 C 0.6122(3) -0.5269(7) 1.03463(17)
C14 C 0.5877(3) -0.5167(7) 1.00302(17)
C15 C 0.5065(4) -0.8096(7) 0.9910(2)
H7 H 0.5046 -0.8037 0.9681
H8 H 0.4695 -0.8048 0.9974
H9 H 0.5230 -0.8829 0.9979
C16 C 0.5560(4) -0.8261(7) 1.05886(19)
H10 H 0.5449 -0.8913 1.0448
H11 H 0.5888 -0.8478 1.0732
C17 C 0.6255(4) -0.6334(8) 1.08917(16)
H12 H 0.5955 -0.6280 1.1024
H13 H 0.6513 -0.5705 1.0942
H14 H 0.6445 -0.7065 1.0930
C18 C 0.6534(3) -0.4355(7) 1.0484(2)
H15 H 0.6803 -0.4685 1.0649
H16 H 0.6733 -0.4018 1.0317
C19 C 0.5970(3) -0.4061(6) 0.98337(18)
H17 H 0.6070 -0.3423 0.9977
H18 H 0.5633 -0.3874 0.9699
H19 H 0.6265 -0.4198 0.9702
C20 C 0.4889(5) -0.8774(10) 1.0938(3)
C21 C 0.4595(5) -0.8318(11) 1.1208(3)
H20 H 0.4631 -0.7533 1.1262
C22 C 0.4258(6) -0.9060(12) 1.1386(3)
H21 H 0.4069 -0.8812 1.1555
C23 C 0.4254(6) -1.0271(13) 1.1263(3)
C24 C 0.4525(4) -1.0650(8) 1.1018(2)
H22 H 0.4501 -1.1428 1.0955
C25 C 0.4843(4) -0.9865(8) 1.0859(2)
H23 H 0.5029 -1.0136 1.0691
C26 C 0.3858(6) -1.1159(16) 1.1407(4)
C27 C 0.6444(3) -0.2498(7) 1.07552(17)
C28 C 0.6120(4) -0.1757(7) 1.09197(17)
H24 H 0.5741 -0.1903 1.0924
C29 C 0.6372(3) -0.0786(7) 1.10788(17)
H25 H 0.6165 -0.0298 1.1198
C30 C 0.6933(4) -0.0556(7) 1.10568(17)
C31 C 0.7263(4) -0.1288(7) 1.08845(17)
H26 H 0.7636 -0.1111 1.0871
C32 C 0.7015(4) -0.2317(7) 1.07297(18)
H27 H 0.7222 -0.2833 1.0619
C33 C 0.7201(4) 0.0506(7) 1.1231(2)
C34 C 0.7393(4) 0.5225(7) 0.64598(16)
H28 H 0.7668 0.4917 0.6345
C35 C 0.6632(4) 0.5360(7) 0.67361(18)
H29 H 0.6319 0.5175 0.6837
C36 C 0.6871(3) 0.6445(7) 0.66989(17)
H30 H 0.6740 0.7145 0.6775
C37 C 0.6889(4) 0.3317(6) 0.65281(18)
H31 H 0.6515 0.3187 0.6423
H32 H 0.7151 0.3035 0.6386
C38 C 0.6968(5) 0.2622(6) 0.68439(18)
C39 C 0.7521(4) 0.2308(6) 0.69646(19)
C40 C 0.7588(4) 0.1581(6) 0.72476(18)
C41 C 0.7107(4) 0.1173(6) 0.73810(17)
C42 C 0.6584(4) 0.1510(6) 0.72586(19)
C43 C 0.6485(5) 0.2236(7) 0.6980(2)
C44 C 0.5897(4) 0.2564(6) 0.6839(2)
H33 H 0.5891 0.2695 0.6612
H34 H 0.5645 0.1941 0.6876
H35 H 0.5783 0.3262 0.6940
C45 C 0.8031(4) 0.2712(6) 0.68078(18)
H36 H 0.8128 0.3491 0.6877
H37 H 0.8339 0.2198 0.6869
H38 H 0.7945 0.2701 0.6578
C46 C 0.7192(4) 0.0282(7) 0.76609(16)
H39 H 0.6877 -0.0233 0.7650
H40 H 0.7525 -0.0163 0.7644
H41 H 0.7227 0.0692 0.7862
C47 C 0.6084(4) 0.1095(6) 0.7419(2)
H42 H 0.5766 0.1600 0.7359
H43 H 0.6170 0.1121 0.7651
C48 C 0.5688(3) -0.0874(7) 0.7499(2)
H44 H 0.5600 -0.0729 0.7706
C49 C 0.5766(3) -0.1748(7) 0.70306(18)
H45 H 0.5736 -0.2306 0.6868
C50 C 0.6002(4) -0.0663(7) 0.7017(2)
H46 H 0.6164 -0.0349 0.6845
C51 C 0.8161(4) 0.1220(7) 0.73873(19)
H47 H 0.8433 0.1798 0.7339
H48 H 0.8176 0.1146 0.7619
C52 C 0.7976(4) -0.0453(7) 0.69870(19)
H49 H 0.7635 -0.0183 0.6888
C53 C 0.8730(4) -0.1513(8) 0.7108(2)
H50 H 0.8989 -0.2112 0.7103
C54 C 0.8771(4) -0.0572(8) 0.7322(2)
H51 H 0.9059 -0.0411 0.7483
Cd1 Cd 0.79491(3) 0.76910(5) 0.645150(15)
Cd2 Cd 0.5000 -0.32539(6) 0.7500
N1 N 0.7330(3) 0.6332(5) 0.65331(14)
N2 N 0.6979(3) 0.4613(5) 0.65837(14)
N3 N 0.8239(3) -0.1407(6) 0.69041(17)
N4 N 0.8286(3) 0.0068(6) 0.72408(15)
N5 N 0.5950(3) -0.0113(5) 0.73137(15)
N6 N 0.5579(3) -0.1860(5) 0.73337(15)
O1 O 0.5552(2) -0.3608(5) 0.79722(11)
O2 O 0.4740(3) -0.4498(5) 0.79200(11)
O3 O 0.5674(2) -0.5966(5) 0.93449(11)
O4 O 0.5114(3) -0.7891(5) 1.07640(17)
O5 O 0.3624(4) -1.1865(8) 1.1229(2)
O6 O 0.3737(3) -1.0865(8) 1.16867(19)
O7 O 0.6179(2) -0.3472(5) 1.06205(12)
O8 O 0.6982(3) 0.0977(5) 1.14447(15)
O9 O 0.7677(3) 0.0794(5) 1.11479(13)
C1A C 0.4802(4) -0.4249(7) 0.69207(17)
C2A C 0.4674(4) -0.4747(6) 0.65821(16)
C3A C 0.5131(4) -0.5044(7) 0.64155(17)
H1A H 0.5495 -0.4976 0.6513
C4A C 0.5021(4) -0.5446(7) 0.60977(18)
H2A H 0.5311 -0.5633 0.5978
C5A C 0.4470(4) -0.5555(7) 0.59667(17)
C6A C 0.4010(4) -0.5227(7) 0.61294(18)
H3A H 0.3645 -0.5283 0.6032
C7A C 0.4128(4) -0.4818(6) 0.64408(17)
H4A H 0.3838 -0.4589 0.6556
C8A C 0.4778(3) -0.5886(7) 0.54446(13)
H5A H 0.5057 -0.6487 0.5496
H6A H 0.4958 -0.5128 0.5463
C9A C 0.4469(3) -0.6069(7) 0.51050(15)
C10A C 0.4570(3) -0.7074(7) 0.49316(18)
C11A C 0.4332(3) -0.7152(7) 0.46068(17)
C12A C 0.3986(3) -0.6256(8) 0.44672(17)
C13A C 0.3878(3) -0.5269(7) 0.46537(17)
C14A C 0.4123(3) -0.5167(7) 0.49698(17)
C15A C 0.4935(4) -0.8096(7) 0.5090(2)
H7A H 0.4954 -0.8037 0.5319
H8A H 0.5305 -0.8048 0.5026
H9A H 0.4770 -0.8829 0.5021
C16A C 0.4440(4) -0.8261(7) 0.44114(19)
H10A H 0.4551 -0.8913 0.4552
H11A H 0.4112 -0.8478 0.4268
C17A C 0.3745(4) -0.6334(8) 0.41083(16)
H12A H 0.4045 -0.6280 0.3976
H13A H 0.3487 -0.5705 0.4058
H14A H 0.3555 -0.7065 0.4070
C18A C 0.3466(3) -0.4355(7) 0.4516(2)
H15A H 0.3197 -0.4685 0.4351
H16A H 0.3267 -0.4018 0.4683
C19A C 0.4030(3) -0.4061(6) 0.51663(18)
H17A H 0.3930 -0.3423 0.5023
H18A H 0.4367 -0.3874 0.5301
H19A H 0.3735 -0.4198 0.5298
C20A C 0.5111(5) -0.8774(10) 0.4062(3)
C21A C 0.5405(5) -0.8318(11) 0.3792(3)
H20A H 0.5369 -0.7533 0.3738
C22A C 0.5742(6) -0.9060(12) 0.3614(3)
H21A H 0.5931 -0.8812 0.3445
C23A C 0.5746(6) -1.0271(13) 0.3737(3)
C24A C 0.5475(4) -1.0650(8) 0.3982(2)
H22A H 0.5499 -1.1428 0.4045
C25A C 0.5157(4) -0.9865(8) 0.4141(2)
H23A H 0.4971 -1.0136 0.4309
C26A C 0.6142(6) -1.1159(16) 0.3593(4)
C27A C 0.3556(3) -0.2498(7) 0.42448(17)
C28A C 0.3880(4) -0.1757(7) 0.40803(17)
H24A H 0.4259 -0.1903 0.4076
C29A C 0.3628(3) -0.0786(7) 0.39212(17)
H25A H 0.3835 -0.0298 0.3802
C30A C 0.3067(4) -0.0556(7) 0.39432(17)
C31A C 0.2737(4) -0.1288(7) 0.41155(17)
H26A H 0.2364 -0.1111 0.4129
C32A C 0.2985(4) -0.2317(7) 0.42703(18)
H27A H 0.2778 -0.2833 0.4381
C33A C 0.2799(4) 0.0506(7) 0.3769(2)
C34A C 0.2607(4) 0.5225(7) 0.85402(16)
H28A H 0.2332 0.4917 0.8655
C35A C 0.3368(4) 0.5360(7) 0.82639(18)
H29A H 0.3681 0.5175 0.8163
C36A C 0.3129(3) 0.6445(7) 0.83011(17)
H30A H 0.3260 0.7145 0.8225
C37A C 0.3111(4) 0.3317(6) 0.84719(18)
H31A H 0.3485 0.3187 0.8577
H32A H 0.2849 0.3035 0.8614
C38A C 0.3032(5) 0.2622(6) 0.81561(18)
C39A C 0.2479(4) 0.2308(6) 0.80354(19)
C40A C 0.2412(4) 0.1581(6) 0.77524(18)
C41A C 0.2893(4) 0.1173(6) 0.76190(17)
C42A C 0.3416(4) 0.1510(6) 0.77414(19)
C43A C 0.3515(5) 0.2236(7) 0.8020(2)
C44A C 0.4103(4) 0.2564(6) 0.8161(2)
H33A H 0.4109 0.2695 0.8388
H34A H 0.4355 0.1941 0.8124
H35A H 0.4217 0.3262 0.8060
C45A C 0.1969(4) 0.2712(6) 0.81922(18)
H36A H 0.1872 0.3491 0.8123
H37A H 0.1661 0.2198 0.8131
H38A H 0.2055 0.2701 0.8422
C46A C 0.2808(4) 0.0282(7) 0.73391(16)
H39A H 0.3123 -0.0233 0.7350
H40A H 0.2475 -0.0163 0.7356
H41A H 0.2773 0.0692 0.7138
C47A C 0.3916(4) 0.1095(6) 0.7581(2)
H42A H 0.4234 0.1600 0.7641
H43A H 0.3830 0.1121 0.7349
C48A C 0.4312(3) -0.0874(7) 0.7501(2)
H44A H 0.4400 -0.0729 0.7294
C49A C 0.4234(3) -0.1748(7) 0.79694(18)
H45A H 0.4264 -0.2306 0.8132
C50A C 0.3998(4) -0.0663(7) 0.7983(2)
H46A H 0.3836 -0.0349 0.8155
C51A C 0.1839(4) 0.1220(7) 0.76127(19)
H47A H 0.1567 0.1798 0.7661
H48A H 0.1824 0.1146 0.7381
C52A C 0.2024(4) -0.0453(7) 0.80130(19)
H49A H 0.2365 -0.0183 0.8112
C53A C 0.1270(4) -0.1513(8) 0.7892(2)
H50A H 0.1011 -0.2112 0.7897
C54A C 0.1229(4) -0.0572(8) 0.7678(2)
H51A H 0.0941 -0.0411 0.7517
Cd1A Cd 0.20509(3) 0.76910(5) 0.854850(15)
Cd1_2 Cd 0.79491(3) -0.23090(5) 0.645150(15)
Cd1G Cd 0.29491(3) -1.26910(5) 1.145150(15)
Cd1E Cd 0.79491(3) 0.23090(5) 1.145150(15)
Cd1A_2 Cd 0.20509(3) -0.23090(5) 0.854850(15)
Cd1F Cd 0.70509(3) -1.26910(5) 0.354850(15)
Cd1D Cd 0.20509(3) 0.23090(5) 0.354850(15)
N1A N 0.2670(3) 0.6332(5) 0.84669(14)
N2A N 0.3021(3) 0.4613(5) 0.84163(14)
N3A N 0.1761(3) -0.1407(6) 0.80959(17)
N3_2 N 0.8239(3) 0.8593(6) 0.69041(17)
N3A_2 N 0.1761(3) 0.8593(6) 0.80959(17)
N4A N 0.1714(3) 0.0068(6) 0.77592(15)
N5A N 0.4050(3) -0.0113(5) 0.76863(15)
N6A N 0.4421(3) -0.1860(5) 0.76663(15)
O1A O 0.4448(2) -0.3608(5) 0.70278(11)
O2A O 0.5260(3) -0.4498(5) 0.70800(11)
O3A O 0.4326(2) -0.5966(5) 0.56551(11)
O4A O 0.4886(3) -0.7891(5) 0.42360(17)
O5A O 0.6376(4) -1.1865(8) 0.3771(2)
O5G O 0.8624(4) 0.6865(8) 0.6229(2)
O5F O 0.1376(4) 0.6865(8) 0.8771(2)
O6A O 0.6263(3) -1.0865(8) 0.33133(19)
O7A O 0.3821(2) -0.3472(5) 0.43795(12)
O8A O 0.3018(3) 0.0977(5) 0.35553(15)
O9A O 0.2323(3) 0.0794(5) 0.38521(13)
O9E O 0.7677(3) 0.9206(5) 0.61479(13)
O9D O 0.2323(3) 0.9206(5) 0.88521(13)
loop_
_geom_bond_atom_site_label_1
_geom_bond_atom_site_label_2
_geom_bond_site_symmetry_1
_geom_bond_site_symmetry_2
C1 C2 1_555 1_555
C2 C3 1_555 1_555
C3 H1 1_555 1_555
C4 C3 1_555 1_555
H2 C4 1_555 1_555
C5 C4 1_555 1_555
C6 C5 1_555 1_555
H3 C6 1_555 1_555
C7 C2 1_555 1_555
H4 C7 1_555 1_555
C8 H5 1_555 1_555
H6 C8 1_555 1_555
C9 C8 1_555 1_555
C10 C9 1_555 1_555
C11 C10 1_555 1_555
C12 C11 1_555 1_555
C13 C12 1_555 1_555
C14 C9 1_555 1_555
C15 C10 1_555 1_555
H7 C15 1_555 1_555
H8 C15 1_555 1_555
H9 C15 1_555 1_555
C16 C11 1_555 1_555
H10 C16 1_555 1_555
H11 C16 1_555 1_555
C17 C12 1_555 1_555
H12 C17 1_555 1_555
H13 C17 1_555 1_555
H14 C17 1_555 1_555
C18 C13 1_555 1_555
H15 C18 1_555 1_555
H16 C18 1_555 1_555
C19 C14 1_555 1_555
H17 C19 1_555 1_555
H18 C19 1_555 1_555
H19 C19 1_555 1_555
C20 C21 1_555 1_555
C21 H20 1_555 1_555
C22 C21 1_555 1_555
H21 C22 1_555 1_555
C23 C22 1_555 1_555
C24 C23 1_555 1_555
H22 C24 1_555 1_555
C25 C20 1_555 1_555
H23 C25 1_555 1_555
C26 C23 1_555 1_555
C27 C28 1_555 1_555
C28 H24 1_555 1_555
C29 C28 1_555 1_555
H25 C29 1_555 1_555
C30 C29 1_555 1_555
C31 C30 1_555 1_555
H26 C31 1_555 1_555
C32 C27 1_555 1_555
H27 C32 1_555 1_555
C33 C30 1_555 1_555
C34 H28 1_555 1_555
C35 H29 1_555 1_555
C36 C35 1_555 1_555
H30 C36 1_555 1_555
C37 H31 1_555 1_555
H32 C37 1_555 1_555
C38 C37 1_555 1_555
C39 C38 1_555 1_555
C40 C39 1_555 1_555
C41 C40 1_555 1_555
C42 C41 1_555 1_555
C43 C38 1_555 1_555
C44 C43 1_555 1_555
H33 C44 1_555 1_555
H34 C44 1_555 1_555
H35 C44 1_555 1_555
C45 C39 1_555 1_555
H36 C45 1_555 1_555
H37 C45 1_555 1_555
H38 C45 1_555 1_555
C46 C41 1_555 1_555
H39 C46 1_555 1_555
H40 C46 1_555 1_555
H41 C46 1_555 1_555
C47 C42 1_555 1_555
H42 C47 1_555 1_555
H43 C47 1_555 1_555
C48 H44 1_555 1_555
C49 H45 1_555 1_555
C50 C49 1_555 1_555
H46 C50 1_555 1_555
C51 C40 1_555 1_555
H47 C51 1_555 1_555
H48 C51 1_555 1_555
C52 H49 1_555 1_555
C53 H50 1_555 1_555
C54 C53 1_555 1_555
H51 C54 1_555 1_555
Cd1 N1 1_555 1_555
Cd2 N6 1_555 1_555
N1 C34 1_555 1_555
N2 C34 1_555 1_555
N3 C52 1_555 1_555
N4 C51 1_555 1_555
N5 C47 1_555 1_555
N6 C48 1_555 1_555
O1 C1 1_555 1_555
O2 C1 1_555 1_555
O3 C5 1_555 1_555
O4 C16 1_555 1_555
O5 C26 1_555 1_555
O6 C26 1_555 1_555
O7 C18 1_555 1_555
O8 C33 1_555 1_555
O9 C33 1_555 1_555
C1A C2A 1_555 1_555
C2A C3A 1_555 1_555
C3A H1A 1_555 1_555
C4A C3A 1_555 1_555
H2A C4A 1_555 1_555
C5A C4A 1_555 1_555
C6A C5A 1_555 1_555
H3A C6A 1_555 1_555
C7A C2A 1_555 1_555
H4A C7A 1_555 1_555
C8A H5A 1_555 1_555
H6A C8A 1_555 1_555
C9A C8A 1_555 1_555
C10A C9A 1_555 1_555
C11A C10A 1_555 1_555
C12A C11A 1_555 1_555
C13A C12A 1_555 1_555
C14A C9A 1_555 1_555
C15A C10A 1_555 1_555
H7A C15A 1_555 1_555
H8A C15A 1_555 1_555
H9A C15A 1_555 1_555
C16A C11A 1_555 1_555
H10A C16A 1_555 1_555
H11A C16A 1_555 1_555
C17A C12A 1_555 1_555
H12A C17A 1_555 1_555
H13A C17A 1_555 1_555
H14A C17A 1_555 1_555
C18A C13A 1_555 1_555
H15A C18A 1_555 1_555
H16A C18A 1_555 1_555
C19A C14A 1_555 1_555
H17A C19A 1_555 1_555
H18A C19A 1_555 1_555
H19A C19A 1_555 1_555
C20A C21A 1_555 1_555
C21A H20A 1_555 1_555
C22A C21A 1_555 1_555
H21A C22A 1_555 1_555
C23A C22A 1_555 1_555
C24A C23A 1_555 1_555
H22A C24A 1_555 1_555
C25A C20A 1_555 1_555
H23A C25A 1_555 1_555
C26A C23A 1_555 1_555
C27A C28A 1_555 1_555
C28A H24A 1_555 1_555
C29A C28A 1_555 1_555
H25A C29A 1_555 1_555
C30A C29A 1_555 1_555
C31A C30A 1_555 1_555
H26A C31A 1_555 1_555
C32A C27A 1_555 1_555
H27A C32A 1_555 1_555
C33A C30A 1_555 1_555
C34A H28A 1_555 1_555
C35A H29A 1_555 1_555
C36A C35A 1_555 1_555
H30A C36A 1_555 1_555
C37A H31A 1_555 1_555
H32A C37A 1_555 1_555
C38A C37A 1_555 1_555
C39A C38A 1_555 1_555
C40A C39A 1_555 1_555
C41A C40A 1_555 1_555
C42A C41A 1_555 1_555
C43A C38A 1_555 1_555
C44A C43A 1_555 1_555
H33A C44A 1_555 1_555
H34A C44A 1_555 1_555
H35A C44A 1_555 1_555
C45A C39A 1_555 1_555
H36A C45A 1_555 1_555
H37A C45A 1_555 1_555
H38A C45A 1_555 1_555
C46A C41A 1_555 1_555
H39A C46A 1_555 1_555
H40A C46A 1_555 1_555
H41A C46A 1_555 1_555
C47A C42A 1_555 1_555
H42A C47A 1_555 1_555
H43A C47A 1_555 1_555
C48A H44A 1_555 1_555
C49A H45A 1_555 1_555
C50A C49A 1_555 1_555
H46A C50A 1_555 1_555
C51A C40A 1_555 1_555
H47A C51A 1_555 1_555
H48A C51A 1_555 1_555
C52A H49A 1_555 1_555
C53A H50A 1_555 1_555
C54A C53A 1_555 1_555
H51A C54A 1_555 1_555
Cd1A N1A 1_555 1_555
Cd1_2 N3 1_555 1_555
Cd1G O5 1_555 1_555
Cd1E O9 1_555 1_555
Cd1A_2 N3A 1_555 1_555
Cd1F O5A 1_555 1_555
Cd1D O9A 1_555 1_555
N1A C34A 1_555 1_555
N2A C34A 1_555 1_555
N3A C52A 1_555 1_555
N3_2 Cd1 1_555 1_555
N3A_2 Cd1A 1_555 1_555
N4A C51A 1_555 1_555
N5A C47A 1_555 1_555
N6A Cd2 1_555 1_555
O1A Cd2 1_555 1_555
O2A Cd2 1_555 1_555
O3A C5A 1_555 1_555
O4A C16A 1_555 1_555
O5A C26A 1_555 1_555
O5G Cd1 1_555 1_555
O5F Cd1A 1_555 1_555
O6A C26A 1_555 1_555
O7A C18A 1_555 1_555
O8A C33A 1_555 1_555
O9A C33A 1_555 1_555
O9E Cd1 1_555 1_555
O9D Cd1A 1_555 1_555
C6 C7 1_555 1_555
C8 O3 1_555 1_555
C13 C14 1_555 1_555
C20 O4 1_555 1_555
C24 C25 1_555 1_555
C27 O7 1_555 1_555
C31 C32 1_555 1_555
C35 N2 1_555 1_555
C36 N1 1_555 1_555
C37 N2 1_555 1_555
C42 C43 1_555 1_555
C48 N5 1_555 1_555
C49 N6 1_555 1_555
C50 N5 1_555 1_555
C52 N4 1_555 1_555
C53 N3 1_555 1_555
C54 N4 1_555 1_555
Cd2 O1 1_555 1_555
Cd2 O2 1_555 1_555
C1A O1A 1_555 1_555
C1A O2A 1_555 1_555
C6A C7A 1_555 1_555
C8A O3A 1_555 1_555
C13A C14A 1_555 1_555
C20A O4A 1_555 1_555
C24A C25A 1_555 1_555
C27A O7A 1_555 1_555
C31A C32A 1_555 1_555
C35A N2A 1_555 1_555
C36A N1A 1_555 1_555
C37A N2A 1_555 1_555
C42A C43A 1_555 1_555
C48A N5A 1_555 1_555
C48A N6A 1_555 1_555
C49A N6A 1_555 1_555
C50A N5A 1_555 1_555
C52A N4A 1_555 1_555
C53A N3A 1_555 1_555
C54A N4A 1_555 1_555

#END
