
#######################################################################
#
#                 Cambridge Crystallographic Data Centre
#                                CCDC 
#
#######################################################################
#
# If this CIF has been generated from an entry in the Cambridge 
# Structural Database, then it will include bibliographic, chemical, 
# crystal, experimental, refinement or atomic coordinate data resulting 
# from the CCDC's data processing and validation procedures.
#
#######################################################################

data_DEHLAF
_symmetry_cell_setting           monoclinic
_symmetry_space_group_name_H-M   'C 2/c'
_symmetry_Int_Tables_number      15
_space_group_name_Hall           '-C 2yn'
loop_
_symmetry_equiv_pos_site_id
_symmetry_equiv_pos_as_xyz
1 x,y,z
2 -x,y,1/2-z
3 1/2+x,1/2+y,z
4 1/2-x,1/2+y,1/2-z
5 -x,-y,-z
6 x,-y,1/2+z
7 1/2-x,1/2-y,-z
8 1/2+x,1/2-y,1/2+z
_cell_length_a                   23.5595(15)
_cell_length_b                   11.2040(7)
_cell_length_c                   41.518(3)
_cell_angle_alpha                90
_cell_angle_beta                 94.5160(10)
_cell_angle_gamma                90
_cell_volume                     10925.1
loop_
_atom_site_label
_atom_site_type_symbol
_atom_site_fract_x
_atom_site_fract_y
_atom_site_fract_z
C1 C 0.4938(3) -0.4373(4) 0.69631(11)
C2 C 0.4791(2) -0.4798(4) 0.66228(10)
C3 C 0.4229(2) -0.4872(4) 0.64958(11)
H1 H 0.3939 -0.4648 0.6623
C4 C 0.4094(2) -0.5271(4) 0.61856(11)
H2 H 0.3715 -0.5329 0.6105
C5 C 0.4520(2) -0.5580(4) 0.59958(10)
C6 C 0.5085(3) -0.5465(5) 0.61117(11)
H3 H 0.5374 -0.5644 0.5980
C7 C 0.5216(2) -0.5079(5) 0.64261(11)
H4 H 0.5595 -0.5010 0.6505
C8 C 0.4752(2) -0.5807(5) 0.54498(10)
H5 H 0.5049 -0.6405 0.5477
H6 H 0.4926 -0.5023 0.5471
C9 C 0.4426(2) -0.5935(4) 0.51217(10)
C10 C 0.4062(2) -0.5012(4) 0.50127(11)
C11 C 0.3781(2) -0.5101(4) 0.47072(11)
C12 C 0.3861(2) -0.6093(5) 0.45104(10)
C13 C 0.4207(2) -0.7023(4) 0.46240(11)
C14 C 0.4489(2) -0.6950(4) 0.49321(11)
C15 C 0.3981(3) -0.3929(5) 0.52266(13)
H7 H 0.3901 -0.3239 0.5094
H8 H 0.4322 -0.3794 0.5364
H9 H 0.3669 -0.4071 0.5357
C16 C 0.3398(3) -0.4098(5) 0.45889(14)
H10 H 0.3099 -0.4396 0.4436
H11 H 0.3223 -0.3735 0.4769
C17 C 0.3578(3) -0.6149(6) 0.41691(12)
H12 H 0.3776 -0.6713 0.4045
H13 H 0.3590 -0.5375 0.4071
H14 H 0.3189 -0.6395 0.4176
C18 C 0.4309(3) -0.8087(5) 0.44147(12)
H15 H 0.4423 -0.8772 0.4547
H16 H 0.3965 -0.8289 0.4282
C19 C 0.4879(3) -0.7984(5) 0.50558(15)
H17 H 0.4989 -0.8443 0.4876
H18 H 0.4679 -0.8486 0.5196
H19 H 0.5213 -0.7665 0.5173
C20 C 0.5026(3) -0.8619(5) 0.40565(13)
C21 C 0.5254(3) -0.8256(5) 0.37822(14)
H20 H 0.5192 -0.7480 0.3708
C22 C 0.5573(3) -0.9017(5) 0.36137(14)
H21 H 0.5712 -0.8759 0.3422
C23 C 0.5695(3) -1.0154(4) 0.37206(13)
C24 C 0.5465(3) -1.0514(5) 0.39941(14)
H22 H 0.5540 -1.1282 0.4071
C25 C 0.5119(3) -0.9764(5) 0.41624(14)
H23 H 0.4954 -1.0040 0.4345
C26 C 0.6113(3) -1.0924(5) 0.35546(17)
C27 C 0.3471(2) -0.2259(5) 0.42955(12)
C28 C 0.2913(3) -0.1953(5) 0.43223(13)
H24 H 0.2689 -0.2415 0.4449
C29 C 0.2679(2) -0.0951(4) 0.41612(12)
H25 H 0.2303 -0.0741 0.4187
C30 C 0.2994(2) -0.0273(4) 0.39667(11)
C31 C 0.3560(2) -0.0591(4) 0.39457(11)
H26 H 0.3785 -0.0139 0.3817
C32 C 0.3795(2) -0.1560(4) 0.41107(12)
H27 H 0.4178 -0.1741 0.4097
C33 C 0.2745(2) 0.0757(4) 0.37711(12)
C34 C 0.3048(2) 0.3661(4) 0.33210(11)
H28 H 0.3203 0.2964 0.3243
C35 C 0.3265(2) 0.4781(5) 0.32902(12)
H29 H 0.3587 0.4989 0.3186
C36 C 0.2506(2) 0.4856(4) 0.35562(11)
H30 H 0.2214 0.5151 0.3672
C37 C 0.2972(2) 0.6838(3) 0.34842(10)
H31 H 0.3337 0.7012 0.3598
H32 H 0.2678 0.7114 0.3617
C38 C 0.2924(3) 0.7526(4) 0.31682(11)
C39 C 0.2385(3) 0.7825(4) 0.30273(11)
C40 C 0.2347(3) 0.8553(4) 0.27540(11)
C41 C 0.2832(3) 0.8955(4) 0.26200(11)
C42 C 0.3359(3) 0.8608(4) 0.27533(11)
C43 C 0.3425(3) 0.7893(4) 0.30342(11)
C44 C 0.4022(2) 0.7568(4) 0.31792(11)
H33 H 0.4003 0.7328 0.3400
H34 H 0.4267 0.8248 0.3170
H35 H 0.4169 0.6923 0.3059
C45 C 0.1867(3) 0.7427(4) 0.31854(13)
H36 H 0.1533 0.7742 0.3068
H37 H 0.1887 0.7713 0.3404
H38 H 0.1849 0.6571 0.3185
C46 C 0.2808(3) 0.9830(5) 0.23445(12)
H39 H 0.3135 1.0344 0.2367
H40 H 0.2468 1.0302 0.2347
H41 H 0.2805 0.9405 0.2144
C47 C 0.1779(2) 0.9012(4) 0.26226(11)
H42 H 0.1778 0.9125 0.2391
H43 H 0.1486 0.8434 0.2663
C48 C 0.1187(2) 1.0844(4) 0.27180(12)
H44 H 0.0890 1.0725 0.2560
C49 C 0.1238(2) 1.1742(4) 0.29354(12)
H45 H 0.0975 1.2354 0.2951
C50 C 0.1965(2) 1.0657(4) 0.30242(11)
H46 H 0.2311 1.0355 0.3112
C51 C 0.3888(2) 0.9006(4) 0.25987(12)
H47 H 0.4200 0.8472 0.2664
H48 H 0.3820 0.8961 0.2366
C52 C 0.3974(3) 1.0830(5) 0.29790(12)
H49 H 0.3788 1.0543 0.3153
C53 C 0.4222(2) 1.1891(4) 0.29558(12)
H50 H 0.4237 1.2476 0.3115
C54 C 0.4337(2) 1.0996(4) 0.25134(12)
H51 H 0.4441 1.0821 0.2307
Co1 Co 0.19967(3) 0.24384(5) 0.354020(15)
Co2 Co 0.5000 1.32401(7) 0.2500
N1 N 0.25668(17) 0.3726(3) 0.34845(9)
N2 N 0.29168(19) 0.5539(3) 0.34430(9)
N3 N 0.17277(18) 1.1622(3) 0.31276(9)
N4 N 0.16553(19) 1.0153(3) 0.27778(9)
N5 N 0.40489(18) 1.0244(3) 0.26927(9)
N6 N 0.44537(16) 1.2001(3) 0.26632(8)
O1 O 0.45708(16) -0.3730(3) 0.70879(7)
O2 O 0.54042(19) -0.4607(3) 0.71043(8)
O3 O 0.43484(15) -0.5964(3) 0.56881(7)
O4 O 0.47420(14) -0.7766(3) 0.42214(9)
O5 O 0.63647(17) -1.1757(3) 0.37306(10)
O6 O 0.6200(2) -1.0701(3) 0.32695(11)
O7 O 0.37345(16) -0.3237(3) 0.44365(8)
O8 O 0.29762(18) 0.1103(3) 0.35338(9)
O9 O 0.22755(16) 0.1195(3) 0.38547(8)
C1A C 0.5062(3) -0.4373(4) -0.19631(11)
C2A C 0.5209(2) -0.4798(4) -0.16228(10)
C3A C 0.5771(2) -0.4872(4) -0.14958(11)
H1A H 0.6061 -0.4648 -0.1623
C4A C 0.5906(2) -0.5271(4) -0.11856(11)
H2A H 0.6285 -0.5329 -0.1105
C5A C 0.5480(2) -0.5580(4) -0.09958(10)
C6A C 0.4915(3) -0.5465(5) -0.11117(11)
H3A H 0.4626 -0.5644 -0.0980
C7A C 0.4784(2) -0.5079(5) -0.14261(11)
H4A H 0.4405 -0.5010 -0.1505
C8A C 0.5248(2) -0.5807(5) -0.04498(10)
H5A H 0.4951 -0.6405 -0.0477
H6A H 0.5074 -0.5023 -0.0471
C9A C 0.5574(2) -0.5935(4) -0.01217(10)
C10A C 0.5938(2) -0.5012(4) -0.00127(11)
C11A C 0.6219(2) -0.5101(4) 0.02928(11)
C12A C 0.6139(2) -0.6093(5) 0.04896(10)
C13A C 0.5793(2) -0.7023(4) 0.03760(11)
C14A C 0.5511(2) -0.6950(4) 0.00679(11)
C15A C 0.6019(3) -0.3929(5) -0.02266(13)
H7A H 0.6099 -0.3239 -0.0094
H8A H 0.5678 -0.3794 -0.0364
H9A H 0.6331 -0.4071 -0.0357
C16A C 0.6602(3) -0.4098(5) 0.04111(14)
H10A H 0.6901 -0.4396 0.0564
H11A H 0.6777 -0.3735 0.0231
C17A C 0.6422(3) -0.6149(6) 0.08309(12)
H12A H 0.6224 -0.6713 0.0955
H13A H 0.6410 -0.5375 0.0929
H14A H 0.6811 -0.6395 0.0824
C18A C 0.5691(3) -0.8087(5) 0.05853(12)
H15A H 0.5577 -0.8772 0.0453
H16A H 0.6035 -0.8289 0.0718
C19A C 0.5121(3) -0.7984(5) -0.00558(15)
H17A H 0.5011 -0.8443 0.0124
H18A H 0.5321 -0.8486 -0.0196
H19A H 0.4787 -0.7665 -0.0173
C20A C 0.4974(3) -0.8619(5) 0.09435(13)
C21A C 0.4746(3) -0.8256(5) 0.12178(14)
H20A H 0.4808 -0.7480 0.1292
C22A C 0.4427(3) -0.9017(5) 0.13863(14)
H21A H 0.4288 -0.8759 0.1578
C23A C 0.4305(3) -1.0154(4) 0.12794(13)
C24A C 0.4535(3) -1.0514(5) 0.10059(14)
H22A H 0.4460 -1.1282 0.0929
C25A C 0.4881(3) -0.9764(5) 0.08376(14)
H23A H 0.5046 -1.0040 0.0655
C26A C 0.3887(3) -1.0924(5) 0.14454(17)
C27A C 0.6529(2) -0.2259(5) 0.07045(12)
C28A C 0.7087(3) -0.1953(5) 0.06777(13)
H24A H 0.7311 -0.2415 0.0551
C29A C 0.7321(2) -0.0951(4) 0.08388(12)
H25A H 0.7697 -0.0741 0.0813
C30A C 0.7006(2) -0.0273(4) 0.10333(11)
C31A C 0.6440(2) -0.0591(4) 0.10543(11)
H26A H 0.6215 -0.0139 0.1183
C32A C 0.6205(2) -0.1560(4) 0.08893(12)
H27A H 0.5822 -0.1741 0.0903
C33A C 0.7255(2) 0.0757(4) 0.12289(12)
C34A C 0.6952(2) 0.3661(4) 0.16790(11)
H28A H 0.6797 0.2964 0.1757
C35A C 0.6735(2) 0.4781(5) 0.17098(12)
H29A H 0.6413 0.4989 0.1814
C36A C 0.7494(2) 0.4856(4) 0.14438(11)
H30A H 0.7786 0.5151 0.1328
C37A C 0.7028(2) 0.6838(3) 0.15158(10)
H31A H 0.6663 0.7012 0.1402
H32A H 0.7322 0.7114 0.1383
C38A C 0.7076(3) 0.7526(4) 0.18318(11)
C39A C 0.7615(3) 0.7825(4) 0.19727(11)
C40A C 0.7653(3) 0.8553(4) 0.22460(11)
C41A C 0.7168(3) 0.8955(4) 0.23800(11)
C42A C 0.6641(3) 0.8608(4) 0.22467(11)
C43A C 0.6575(3) 0.7893(4) 0.19658(11)
C44A C 0.5978(2) 0.7568(4) 0.18208(11)
H33A H 0.5997 0.7328 0.1600
H34A H 0.5733 0.8248 0.1830
H35A H 0.5831 0.6923 0.1941
C45A C 0.8133(3) 0.7427(4) 0.18146(13)
H36A H 0.8467 0.7742 0.1932
H37A H 0.8113 0.7713 0.1596
H38A H 0.8151 0.6571 0.1815
C46A C 0.7192(3) 0.9830(5) 0.26555(12)
H39A H 0.6865 1.0344 0.2633
H40A H 0.7532 1.0302 0.2653
H41A H 0.7195 0.9405 0.2856
C47A C 0.8221(2) 0.9012(4) 0.23774(11)
H42A H 0.8222 0.9125 0.2609
H43A H 0.8514 0.8434 0.2337
C48A C 0.8813(2) 1.0844(4) 0.22820(12)
H44A H 0.9110 1.0725 0.2440
C49A C 0.8762(2) 1.1742(4) 0.20646(12)
H45A H 0.9025 1.2354 0.2049
C50A C 0.8035(2) 1.0657(4) 0.19758(11)
H46A H 0.7689 1.0355 0.1888
C51A C 0.6112(2) 0.9006(4) 0.24013(12)
H47A H 0.5800 0.8472 0.2336
H48A H 0.6180 0.8961 0.2634
C52A C 0.6026(3) 1.0830(5) 0.20210(12)
H49A H 0.6212 1.0543 0.1847
C53A C 0.5778(2) 1.1891(4) 0.20442(12)
H50A H 0.5763 1.2476 0.1885
C54A C 0.5663(2) 1.0996(4) 0.24866(12)
H51A H 0.5559 1.0821 0.2693
Co1A Co 0.80033(3) 0.24384(5) 0.145980(15)
Co1_2 Co 0.19967(3) 1.24384(5) 0.354020(15)
Co1A_2 Co 0.80033(3) 1.24384(5) 0.145980(15)
Co1B Co 0.69967(3) -1.25616(5) 0.354020(15)
Co1C Co 0.30033(3) -1.25616(5) 0.145980(15)
Co2D Co 0.5000 -0.32401(7) -0.2500
Co2D_2 Co 0.5000 -0.32401(7) 0.7500
N1A N 0.74332(17) 0.3726(3) 0.15155(9)
N2A N 0.70832(19) 0.5539(3) 0.15570(9)
N3A N 0.82723(18) 1.1622(3) 0.18724(9)
N3_2 N 0.17277(18) 0.1622(3) 0.31276(9)
N3A_2 N 0.82723(18) 0.1622(3) 0.18724(9)
N4A N 0.83447(19) 1.0153(3) 0.22222(9)
N5A N 0.59511(18) 1.0244(3) 0.23073(9)
N6A N 0.55463(16) 1.2001(3) 0.23368(8)
O1A O 0.54292(16) -0.3730(3) -0.20879(7)
O1D O 0.54292(16) 1.3730(3) 0.29121(7)
O1E O 0.45708(16) 1.3730(3) 0.20879(7)
O2A O 0.45958(19) -0.4607(3) -0.21043(8)
O3A O 0.56516(15) -0.5964(3) -0.06881(7)
O4A O 0.52580(14) -0.7766(3) 0.07786(9)
O5A O 0.36353(17) -1.1757(3) 0.12694(10)
O5B O 0.13647(17) 0.3243(3) 0.37306(10)
O5C O 0.86353(17) 0.3243(3) 0.12694(10)
O6A O 0.3800(2) -1.0701(3) 0.17305(11)
O7A O 0.62655(16) -0.3237(3) 0.05635(8)
O8A O 0.70238(18) 0.1103(3) 0.14662(9)
O9A O 0.77245(16) 0.1195(3) 0.11453(8)
loop_
_geom_bond_atom_site_label_1
_geom_bond_atom_site_label_2
_geom_bond_site_symmetry_1
_geom_bond_site_symmetry_2
C1 C2 1_555 1_555
C2 C3 1_555 1_555
C3 H1 1_555 1_555
C4 C3 1_555 1_555
H2 C4 1_555 1_555
C5 C4 1_555 1_555
C6 C5 1_555 1_555
H3 C6 1_555 1_555
C7 C2 1_555 1_555
H4 C7 1_555 1_555
C8 H5 1_555 1_555
H6 C8 1_555 1_555
C9 C8 1_555 1_555
C10 C9 1_555 1_555
C11 C10 1_555 1_555
C12 C11 1_555 1_555
C13 C12 1_555 1_555
C14 C9 1_555 1_555
C15 C10 1_555 1_555
H7 C15 1_555 1_555
H8 C15 1_555 1_555
H9 C15 1_555 1_555
C16 C11 1_555 1_555
H10 C16 1_555 1_555
H11 C16 1_555 1_555
C17 C12 1_555 1_555
H12 C17 1_555 1_555
H13 C17 1_555 1_555
H14 C17 1_555 1_555
C18 C13 1_555 1_555
H15 C18 1_555 1_555
H16 C18 1_555 1_555
C19 C14 1_555 1_555
H17 C19 1_555 1_555
H18 C19 1_555 1_555
H19 C19 1_555 1_555
C20 C21 1_555 1_555
C21 H20 1_555 1_555
C22 C21 1_555 1_555
H21 C22 1_555 1_555
C23 C22 1_555 1_555
C24 C23 1_555 1_555
H22 C24 1_555 1_555
C25 C20 1_555 1_555
H23 C25 1_555 1_555
C26 C23 1_555 1_555
C27 C28 1_555 1_555
C28 H24 1_555 1_555
C29 C28 1_555 1_555
H25 C29 1_555 1_555
C30 C29 1_555 1_555
C31 C30 1_555 1_555
H26 C31 1_555 1_555
C32 C27 1_555 1_555
H27 C32 1_555 1_555
C33 C30 1_555 1_555
C34 H28 1_555 1_555
C35 C34 1_555 1_555
H29 C35 1_555 1_555
C36 H30 1_555 1_555
C37 H31 1_555 1_555
H32 C37 1_555 1_555
C38 C37 1_555 1_555
C39 C38 1_555 1_555
C40 C39 1_555 1_555
C41 C40 1_555 1_555
C42 C41 1_555 1_555
C43 C38 1_555 1_555
C44 C43 1_555 1_555
H33 C44 1_555 1_555
H34 C44 1_555 1_555
H35 C44 1_555 1_555
C45 C39 1_555 1_555
H36 C45 1_555 1_555
H37 C45 1_555 1_555
H38 C45 1_555 1_555
C46 C41 1_555 1_555
H39 C46 1_555 1_555
H40 C46 1_555 1_555
H41 C46 1_555 1_555
C47 C40 1_555 1_555
H42 C47 1_555 1_555
H43 C47 1_555 1_555
C48 H44 1_555 1_555
C49 C48 1_555 1_555
H45 C49 1_555 1_555
C50 H46 1_555 1_555
C51 C42 1_555 1_555
H47 C51 1_555 1_555
H48 C51 1_555 1_555
C52 H49 1_555 1_555
C53 C52 1_555 1_555
H50 C53 1_555 1_555
C54 H51 1_555 1_555
Co1 N1 1_555 1_555
Co2 N6 1_555 1_555
N1 C34 1_555 1_555
N2 C35 1_555 1_555
N3 C49 1_555 1_555
N4 C47 1_555 1_555
N5 C51 1_555 1_555
N6 C53 1_555 1_555
O1 C1 1_555 1_555
O2 C1 1_555 1_555
O3 C5 1_555 1_555
O4 C18 1_555 1_555
O5 C26 1_555 1_555
O6 C26 1_555 1_555
O7 C16 1_555 1_555
O8 C33 1_555 1_555
O9 C33 1_555 1_555
C1A C2A 1_555 1_555
C2A C3A 1_555 1_555
C3A H1A 1_555 1_555
C4A C3A 1_555 1_555
H2A C4A 1_555 1_555
C5A C4A 1_555 1_555
C6A C5A 1_555 1_555
H3A C6A 1_555 1_555
C7A C2A 1_555 1_555
H4A C7A 1_555 1_555
C8A H5A 1_555 1_555
H6A C8A 1_555 1_555
C9A C8A 1_555 1_555
C10A C9A 1_555 1_555
C11A C10A 1_555 1_555
C12A C11A 1_555 1_555
C13A C12A 1_555 1_555
C14A C9A 1_555 1_555
C15A C10A 1_555 1_555
H7A C15A 1_555 1_555
H8A C15A 1_555 1_555
H9A C15A 1_555 1_555
C16A C11A 1_555 1_555
H10A C16A 1_555 1_555
H11A C16A 1_555 1_555
C17A C12A 1_555 1_555
H12A C17A 1_555 1_555
H13A C17A 1_555 1_555
H14A C17A 1_555 1_555
C18A C13A 1_555 1_555
H15A C18A 1_555 1_555
H16A C18A 1_555 1_555
C19A C14A 1_555 1_555
H17A C19A 1_555 1_555
H18A C19A 1_555 1_555
H19A C19A 1_555 1_555
C20A C21A 1_555 1_555
C21A H20A 1_555 1_555
C22A C21A 1_555 1_555
H21A C22A 1_555 1_555
C23A C22A 1_555 1_555
C24A C23A 1_555 1_555
H22A C24A 1_555 1_555
C25A C20A 1_555 1_555
H23A C25A 1_555 1_555
C26A C23A 1_555 1_555
C27A C28A 1_555 1_555
C28A H24A 1_555 1_555
C29A C28A 1_555 1_555
H25A C29A 1_555 1_555
C30A C29A 1_555 1_555
C31A C30A 1_555 1_555
H26A C31A 1_555 1_555
C32A C27A 1_555 1_555
H27A C32A 1_555 1_555
C33A C30A 1_555 1_555
C34A H28A 1_555 1_555
C35A C34A 1_555 1_555
H29A C35A 1_555 1_555
C36A H30A 1_555 1_555
C37A H31A 1_555 1_555
H32A C37A 1_555 1_555
C38A C37A 1_555 1_555
C39A C38A 1_555 1_555
C40A C39A 1_555 1_555
C41A C40A 1_555 1_555
C42A C41A 1_555 1_555
C43A C38A 1_555 1_555
C44A C43A 1_555 1_555
H33A C44A 1_555 1_555
H34A C44A 1_555 1_555
H35A C44A 1_555 1_555
C45A C39A 1_555 1_555
H36A C45A 1_555 1_555
H37A C45A 1_555 1_555
H38A C45A 1_555 1_555
C46A C41A 1_555 1_555
H39A C46A 1_555 1_555
H40A C46A 1_555 1_555
H41A C46A 1_555 1_555
C47A C40A 1_555 1_555
H42A C47A 1_555 1_555
H43A C47A 1_555 1_555
C48A H44A 1_555 1_555
C49A C48A 1_555 1_555
H45A C49A 1_555 1_555
C50A H46A 1_555 1_555
C51A C42A 1_555 1_555
H47A C51A 1_555 1_555
H48A C51A 1_555 1_555
C52A H49A 1_555 1_555
C53A C52A 1_555 1_555
H50A C53A 1_555 1_555
C54A H51A 1_555 1_555
Co1A N1A 1_555 1_555
Co1_2 N3 1_555 1_555
Co1A_2 N3A 1_555 1_555
Co1B O5 1_555 1_555
Co1C O5A 1_555 1_555
Co2D O1A 1_555 1_555
Co2D_2 O1 1_555 1_555
N1A C34A 1_555 1_555
N2A C35A 1_555 1_555
N3A C49A 1_555 1_555
N3_2 Co1 1_555 1_555
N3A_2 Co1A 1_555 1_555
N4A C47A 1_555 1_555
N5A C51A 1_555 1_555
N6A Co2 1_555 1_555
O1A C1A 1_555 1_555
O1D Co2 1_555 1_555
O1E Co2 1_555 1_555
O2A C1A 1_555 1_555
O3A C5A 1_555 1_555
O4A C18A 1_555 1_555
O5A C26A 1_555 1_555
O5B Co1 1_555 1_555
O5C Co1A 1_555 1_555
O6A C26A 1_555 1_555
O7A C16A 1_555 1_555
O8A C33A 1_555 1_555
O9A C33A 1_555 1_555
C6 C7 1_555 1_555
C8 O3 1_555 1_555
C13 C14 1_555 1_555
C20 O4 1_555 1_555
C24 C25 1_555 1_555
C27 O7 1_555 1_555
C31 C32 1_555 1_555
C36 N1 1_555 1_555
C36 N2 1_555 1_555
C37 N2 1_555 1_555
C42 C43 1_555 1_555
C48 N4 1_555 1_555
C50 N3 1_555 1_555
C50 N4 1_555 1_555
C52 N5 1_555 1_555
C54 N5 1_555 1_555
C54 N6 1_555 1_555
Co1 O9 1_555 1_555
C6A C7A 1_555 1_555
C8A O3A 1_555 1_555
C13A C14A 1_555 1_555
C20A O4A 1_555 1_555
C24A C25A 1_555 1_555
C27A O7A 1_555 1_555
C31A C32A 1_555 1_555
C36A N1A 1_555 1_555
C36A N2A 1_555 1_555
C37A N2A 1_555 1_555
C42A C43A 1_555 1_555
C48A N4A 1_555 1_555
C50A N3A 1_555 1_555
C50A N4A 1_555 1_555
C52A N5A 1_555 1_555
C53A N6A 1_555 1_555
C54A N5A 1_555 1_555
C54A N6A 1_555 1_555
Co1A O9A 1_555 1_555

#END
