
#######################################################################
#
#                 Cambridge Crystallographic Data Centre
#                                CCDC 
#
#######################################################################
#
# If this CIF has been generated from an entry in the Cambridge 
# Structural Database, then it will include bibliographic, chemical, 
# crystal, experimental, refinement or atomic coordinate data resulting 
# from the CCDC's data processing and validation procedures.
#
#######################################################################

data_DEKHEH
_symmetry_cell_setting           monoclinic
_symmetry_space_group_name_H-M   'P 2/c'
_symmetry_Int_Tables_number      13
_space_group_name_Hall           '-P 2yc'
loop_
_symmetry_equiv_pos_site_id
_symmetry_equiv_pos_as_xyz
1 x,y,z
2 -x,y,1/2-z
3 -x,-y,-z
4 x,-y,1/2+z
_cell_length_a                   13.251(4)
_cell_length_b                   11.742(4)
_cell_length_c                   9.317(3)
_cell_angle_alpha                90
_cell_angle_beta                 90.195(7)
_cell_angle_gamma                90
_cell_volume                     1449.65
loop_
_atom_site_label
_atom_site_type_symbol
_atom_site_fract_x
_atom_site_fract_y
_atom_site_fract_z
Mn1 Mn 0.0000 -0.05513(6) 0.7500
O1 O 0.11597(17) -0.05218(19) 0.5874(2)
O2 O 0.12058(17) 0.06919(19) 0.4034(2)
O3 O 0.5000 0.2433(3) 0.7500
C1 C 0.1544(2) 0.0282(3) 0.5192(4)
C2 C 0.2494(2) 0.0815(3) 0.5762(4)
C3 C 0.2910(3) 0.1767(3) 0.5125(4)
H1 H 0.2613 0.2066 0.4302
C4 C 0.3765(3) 0.2287(3) 0.5694(4)
H2 H 0.4043 0.2928 0.5261
C5 C 0.4192(3) 0.1828(3) 0.6917(4)
C6 C 0.3803(3) 0.0881(3) 0.7565(4)
H3 H 0.4105 0.0583 0.8385
C7 C 0.2951(3) 0.0370(3) 0.6984(4)
H4 H 0.2683 -0.0276 0.7417
N1 N 0.0000 0.1436(3) 0.7500
N2 N 0.0000 0.7480(3) 0.7500
C8 C -0.0745(3) 0.2038(3) 0.6896(4)
H5 H -0.1275 0.1641 0.6471
C9 C -0.0775(3) 0.3206(3) 0.6865(4)
H6 H -0.1312 0.3578 0.6421
C10 C 0.0000 0.3833(4) 0.7500
C11 C 0.0000 0.5086(4) 0.7500
C12 C -0.0504(3) 0.5713(3) 0.6456(4)
H7 H -0.0862 0.5340 0.5735
C13 C -0.0475(3) 0.6880(3) 0.6488(4)
H8 H -0.0806 0.7276 0.5762
Mn1C Mn 0.0000 0.05513(6) 0.2500
Mn1_2 Mn 0.0000 0.94487(6) 0.7500
Mn1_3 Mn 1.0000 -0.05513(6) 0.7500
Mn1C_2 Mn 1.0000 0.05513(6) 1.2500
O1A O 0.88403(17) -0.05218(19) 0.9126(2)
O1A_2 O -0.11597(17) -0.05218(19) 0.9126(2)
O2A O 0.87942(17) 0.06919(19) 1.0966(2)
O2C O 0.12058(17) -0.06919(19) 0.9034(2)
O2B O -0.12058(17) -0.06919(19) 0.5966(2)
C1A C 0.8456(2) 0.0282(3) 0.9808(4)
C2A C 0.7506(2) 0.0815(3) 0.9238(4)
C3A C 0.7090(3) 0.1767(3) 0.9875(4)
H1A H 0.7387 0.2066 1.0698
C4A C 0.6235(3) 0.2287(3) 0.9306(4)
H2A H 0.5957 0.2928 0.9739
C5A C 0.5808(3) 0.1828(3) 0.8083(4)
C6A C 0.6197(3) 0.0881(3) 0.7435(4)
H3A H 0.5895 0.0583 0.6615
C7A C 0.7049(3) 0.0370(3) 0.8016(4)
H4A H 0.7317 -0.0276 0.7583
N2_2 N 0.0000 -0.2520(3) 0.7500
C8A C 0.0745(3) 0.2038(3) 0.8104(4)
H5A H 0.1275 0.1641 0.8529
C9A C 0.0775(3) 0.3206(3) 0.8135(4)
H6A H 0.1312 0.3578 0.8579
C12A C 0.0504(3) 0.5713(3) 0.8544(4)
H7A H 0.0862 0.5340 0.9265
C13A C 0.0475(3) 0.6880(3) 0.8512(4)
H8A H 0.0806 0.7276 0.9238
N3 N 0.2576(4) 0.3819(5) 0.0822(6)
C14 C 0.2999(5) 0.4726(5) 0.1387(8)
H9 H 0.2643 0.5407 0.1333
C15 C 0.3934(4) 0.4750(5) 0.2059(7)
H10 H 0.4180 0.5428 0.2441
C16 C 0.4500(3) 0.3762(4) 0.2160(5)
C17 C 0.4040(4) 0.2801(4) 0.1609(6)
H11 H 0.4362 0.2099 0.1679
C18 C 0.3110(4) 0.2873(5) 0.0956(7)
H12 H 0.2836 0.2207 0.0581
N3A N 0.7424(4) 0.3819(5) 0.4178(6)
C14A C 0.7001(5) 0.4726(5) 0.3613(8)
H9A H 0.7357 0.5407 0.3667
C15A C 0.6066(4) 0.4750(5) 0.2941(7)
H10A H 0.5820 0.5428 0.2559
C16A C 0.5500(3) 0.3762(4) 0.2840(5)
C17A C 0.5960(4) 0.2801(4) 0.3391(6)
H11A H 0.5638 0.2099 0.3321
C18A C 0.6890(4) 0.2873(5) 0.4044(7)
H12A H 0.7164 0.2207 0.4419
loop_
_geom_bond_atom_site_label_1
_geom_bond_atom_site_label_2
_geom_bond_site_symmetry_1
_geom_bond_site_symmetry_2
Mn1 O1 1_555 1_555
O1 C1 1_555 1_555
O2 C1 1_555 1_555
O3 C5 1_555 1_555
C1 C2 1_555 1_555
C2 C3 1_555 1_555
C3 H1 1_555 1_555
C4 C3 1_555 1_555
H2 C4 1_555 1_555
C5 C4 1_555 1_555
C6 C5 1_555 1_555
H3 C6 1_555 1_555
C7 C2 1_555 1_555
H4 C7 1_555 1_555
N1 Mn1 1_555 1_555
N2 C13 1_555 1_555
C8 N1 1_555 1_555
H5 C8 1_555 1_555
C9 C8 1_555 1_555
H6 C9 1_555 1_555
C10 C9 1_555 1_555
C11 C10 1_555 1_555
C12 C11 1_555 1_555
H7 C12 1_555 1_555
C13 C12 1_555 1_555
H8 C13 1_555 1_555
N3 C14 1_555 1_555
C14 H9 1_555 1_555
C15 C14 1_555 1_555
H10 C15 1_555 1_555
C16 C15 1_555 1_555
C17 C16 1_555 1_555
H11 C17 1_555 1_555
C18 N3 1_555 1_555
H12 C18 1_555 1_555
Mn1C O2 1_555 1_555
Mn1_2 N2 1_555 1_555
Mn1_3 O1A 1_555 1_555
Mn1C_2 O2A 1_555 1_555
O1A C1A 1_555 1_555
O1A_2 Mn1 1_555 1_555
O2A C1A 1_555 1_555
O2C Mn1 1_555 1_555
O2B Mn1 1_555 1_555
C1A C2A 1_555 1_555
C2A C3A 1_555 1_555
C3A H1A 1_555 1_555
C4A C3A 1_555 1_555
H2A C4A 1_555 1_555
C5A O3 1_555 1_555
C6A C5A 1_555 1_555
H3A C6A 1_555 1_555
C7A C2A 1_555 1_555
H4A C7A 1_555 1_555
N2_2 Mn1 1_555 1_555
C8A N1 1_555 1_555
H5A C8A 1_555 1_555
C9A C10 1_555 1_555
H6A C9A 1_555 1_555
C12A C11 1_555 1_555
H7A C12A 1_555 1_555
C13A N2 1_555 1_555
H8A C13A 1_555 1_555
N3A C14A 1_555 1_555
C14A H9A 1_555 1_555
C15A C14A 1_555 1_555
H10A C15A 1_555 1_555
C16A C16 1_555 1_555
C17A C16A 1_555 1_555
H11A C17A 1_555 1_555
C18A N3A 1_555 1_555
H12A C18A 1_555 1_555
C6 C7 1_555 1_555
C17 C18 1_555 1_555
C4A C5A 1_555 1_555
C6A C7A 1_555 1_555
C8A C9A 1_555 1_555
C12A C13A 1_555 1_555
C15A C16A 1_555 1_555
C17A C18A 1_555 1_555

#END
