
#######################################################################
#
#                 Cambridge Crystallographic Data Centre
#                                CCDC 
#
#######################################################################
#
# If this CIF has been generated from an entry in the Cambridge 
# Structural Database, then it will include bibliographic, chemical, 
# crystal, experimental, refinement or atomic coordinate data resulting 
# from the CCDC's data processing and validation procedures.
#
#######################################################################

data_DENKOX
_symmetry_cell_setting           monoclinic
_symmetry_space_group_name_H-M   'P 21'
_symmetry_Int_Tables_number      4
_space_group_name_Hall           'P 2yb'
loop_
_symmetry_equiv_pos_site_id
_symmetry_equiv_pos_as_xyz
1 x,y,z
2 -x,1/2+y,-z
_cell_length_a                   10.2255(12)
_cell_length_b                   13.0120(15)
_cell_length_c                   13.5508(16)
_cell_angle_alpha                90
_cell_angle_beta                 90.749(2)
_cell_angle_gamma                90
_cell_volume                     1802.84
loop_
_atom_site_label
_atom_site_type_symbol
_atom_site_fract_x
_atom_site_fract_y
_atom_site_fract_z
Co1 Co 0.14405(5) 0.51776(4) 0.76372(4)
Co2 Co -0.13479(5) 0.51033(4) 0.73481(4)
O1 O 0.1391(3) 0.4834(3) 0.6183(2)
O2 O -0.0770(3) 0.4714(3) 0.5975(2)
O3 O 0.1995(3) 0.1540(3) 0.3029(3)
O4 O -0.0135(4) 0.1522(3) 0.2837(3)
O5 O 0.2083(3) 0.3745(3) 0.8104(2)
O6 O -0.0026(3) 0.3788(3) 0.7806(3)
O7 O 0.1296(3) 0.0400(3) 1.1193(2)
O8 O -0.0864(3) 0.0631(3) 1.1006(2)
N1 N 0.3041(4) 0.6126(4) 0.7573(4)
N2 N 0.4449(9) 0.7339(6) 0.7926(7)
N3 N 0.5750(5) 1.2920(4) 0.6835(4)
N4 N 0.7063(4) 1.4150(4) 0.7324(3)
C1 C 0.0380(5) 0.4678(4) 0.5663(3)
C2 C 0.0611(5) 0.4418(4) 0.4584(3)
C3 C -0.0622(6) 0.4416(6) 0.3933(4)
H1 H -0.1371 0.4203 0.4314
H2 H -0.0788 0.5100 0.3676
C4 C -0.0401(7) 0.3672(6) 0.3093(4)
H3 H -0.1122 0.3190 0.3040
H4 H -0.0332 0.4040 0.2474
C5 C 0.0859(5) 0.3108(4) 0.3324(3)
H5 H 0.1559 0.3458 0.2969
C6 C 0.1113(5) 0.3285(5) 0.4457(3)
C7 C 0.0896(5) 0.1995(4) 0.3036(3)
C8 C 0.1593(6) 0.5187(5) 0.4153(4)
H6 H 0.1270 0.5874 0.4236
H7 H 0.1704 0.5049 0.3463
H8 H 0.2420 0.5118 0.4491
C9 C 0.0301(7) 0.2537(6) 0.5049(6)
H9 H 0.0630 0.1853 0.4959
H10 H -0.0593 0.2569 0.4827
H11 H 0.0353 0.2716 0.5736
C10 C 0.2529(6) 0.3130(6) 0.4745(5)
H12 H 0.2763 0.2423 0.4649
H13 H 0.2656 0.3310 0.5427
H14 H 0.3070 0.3559 0.4343
C11 C 0.0975(5) 0.3326(5) 0.8081(3)
C12 C 0.0868(5) 0.2176(4) 0.8360(4)
C13 C -0.0508(6) 0.1746(5) 0.8194(5)
H15 H -0.0597 0.1473 0.7531
H16 H -0.1153 0.2284 0.8278
C14 C -0.0717(6) 0.0887(6) 0.8958(4)
H17 H -0.1493 0.1018 0.9342
H18 H -0.0807 0.0225 0.8636
C15 C 0.0499(5) 0.0915(4) 0.9608(3)
H19 H 0.1121 0.0418 0.9339
C16 C 0.1103(6) 0.1997(5) 0.9490(4)
C17 C 0.0285(5) 0.0629(4) 1.0697(4)
C18 C 0.1852(7) 0.1581(5) 0.7739(4)
H20 H 0.1677 0.1704 0.7051
H21 H 0.1776 0.0860 0.7874
H22 H 0.2723 0.1807 0.7901
C19 C 0.2575(7) 0.2008(8) 0.9818(5)
H23 H 0.2640 0.1900 1.0518
H24 H 0.2955 0.2661 0.9656
H25 H 0.3035 0.1471 0.9483
C20 C 0.0397(8) 0.2777(6) 1.0097(5)
H26 H 0.0565 0.2648 1.0784
H27 H -0.0525 0.2730 0.9964
H28 H 0.0700 0.3453 0.9930
C21 C 0.4026(7) 0.6088(6) 0.6917(7)
H29 H 0.4082 0.5625 0.6396
C22 C 0.4899(8) 0.6811(10) 0.7129(13)
H30 H 0.5673 0.6936 0.6797
C23 C 0.3306(7) 0.6890(6) 0.8159(5)
H31 H 0.2776 0.7100 0.8673
C24 C 0.5040(11) 0.8175(8) 0.8413(9)
H32 H 0.5933 0.7989 0.8584
H33 H 0.4581 0.8295 0.9024
C25 C 0.5060(9) 0.9167(7) 0.7831(9)
C26 C 0.4334(8) 0.9330(6) 0.7014(7)
H34 H 0.3794 0.8813 0.6767
C27 C 0.4388(6) 1.0273(6) 0.6537(5)
H35 H 0.3874 1.0381 0.5975
C28 C 0.5184(6) 1.1050(5) 0.6875(5)
C29 C 0.5902(7) 1.0874(6) 0.7718(6)
H36 H 0.6415 1.1401 0.7977
C30 C 0.5888(7) 0.9970(8) 0.8178(6)
H37 H 0.6422 0.9864 0.8729
C31 C 0.5265(7) 1.2015(6) 0.6274(6)
H38 H 0.5840 1.1894 0.5722
H39 H 0.4403 1.2171 0.6007
C32 C 0.6895(5) 1.3396(5) 0.6717(4)
H40 H 0.7505 1.3204 0.6249
C33 C 0.5955(6) 1.4180(6) 0.7880(6)
H41 H 0.5786 1.4643 0.8386
C34 C 0.5138(7) 1.3412(9) 0.7562(7)
H42 H 0.4314 1.3260 0.7806
Co1A Co -0.14405(5) 0.01776(4) 0.23628(4)
Co1A_2 Co -0.14405(5) 0.01776(4) 1.23628(4)
Co2A Co 0.13479(5) 0.01033(4) 0.26519(4)
Co2A_2 Co 0.13479(5) 0.01033(4) 1.26519(4)
Co2_2 Co 0.86521(5) 1.51033(4) 0.73481(4)
O3A O -0.1995(3) 0.6540(3) 0.6971(3)
O4A O 0.0135(4) 0.6522(3) 0.7163(3)
O7A O -0.1296(3) 0.5400(3) 0.8807(2)
O8A O 0.0864(3) 0.5631(3) 0.8994(2)
N4_2 N -0.2937(4) 0.4150(4) 0.7324(3)
loop_
_geom_bond_atom_site_label_1
_geom_bond_atom_site_label_2
_geom_bond_site_symmetry_1
_geom_bond_site_symmetry_2
Co1 O1 1_555 1_555
Co2 O2 1_555 1_555
O1 C1 1_555 1_555
O2 C1 1_555 1_555
O3 C7 1_555 1_555
O4 C7 1_555 1_555
O5 Co1 1_555 1_555
O6 Co1 1_555 1_555
O7 C17 1_555 1_555
O8 C17 1_555 1_555
N1 Co1 1_555 1_555
N2 C22 1_555 1_555
N3 C31 1_555 1_555
N4 C32 1_555 1_555
C1 C2 1_555 1_555
C2 C3 1_555 1_555
C3 H1 1_555 1_555
H2 C3 1_555 1_555
C4 C3 1_555 1_555
H3 C4 1_555 1_555
H4 C4 1_555 1_555
C5 C4 1_555 1_555
H5 C5 1_555 1_555
C6 C2 1_555 1_555
C7 C5 1_555 1_555
C8 C2 1_555 1_555
H6 C8 1_555 1_555
H7 C8 1_555 1_555
H8 C8 1_555 1_555
C9 C6 1_555 1_555
H9 C9 1_555 1_555
H10 C9 1_555 1_555
H11 C9 1_555 1_555
C10 C6 1_555 1_555
H12 C10 1_555 1_555
H13 C10 1_555 1_555
H14 C10 1_555 1_555
C11 O5 1_555 1_555
C12 C11 1_555 1_555
C13 C12 1_555 1_555
H15 C13 1_555 1_555
H16 C13 1_555 1_555
C14 C13 1_555 1_555
H17 C14 1_555 1_555
H18 C14 1_555 1_555
C15 C14 1_555 1_555
H19 C15 1_555 1_555
C16 C12 1_555 1_555
C17 C15 1_555 1_555
C18 C12 1_555 1_555
H20 C18 1_555 1_555
H21 C18 1_555 1_555
H22 C18 1_555 1_555
C19 C16 1_555 1_555
H23 C19 1_555 1_555
H24 C19 1_555 1_555
H25 C19 1_555 1_555
C20 C16 1_555 1_555
H26 C20 1_555 1_555
H27 C20 1_555 1_555
H28 C20 1_555 1_555
C21 N1 1_555 1_555
H29 C21 1_555 1_555
C22 C21 1_555 1_555
H30 C22 1_555 1_555
C23 N1 1_555 1_555
H31 C23 1_555 1_555
C24 N2 1_555 1_555
H32 C24 1_555 1_555
H33 C24 1_555 1_555
C25 C24 1_555 1_555
C26 C25 1_555 1_555
H34 C26 1_555 1_555
C27 C26 1_555 1_555
H35 C27 1_555 1_555
C28 C27 1_555 1_555
C29 C28 1_555 1_555
H36 C29 1_555 1_555
C30 C25 1_555 1_555
H37 C30 1_555 1_555
C31 C28 1_555 1_555
H38 C31 1_555 1_555
H39 C31 1_555 1_555
C32 N3 1_555 1_555
H40 C32 1_555 1_555
C33 N4 1_555 1_555
H41 C33 1_555 1_555
C34 N3 1_555 1_555
H42 C34 1_555 1_555
Co1A O4 1_555 1_555
Co1A_2 O8 1_555 1_555
Co2A O3 1_555 1_555
Co2A_2 O7 1_555 1_555
Co2_2 N4 1_555 1_555
O3A Co2 1_555 1_555
O4A Co1 1_555 1_555
O7A Co2 1_555 1_555
O8A Co1 1_555 1_555
N4_2 Co2 1_555 1_555
Co2 O6 1_555 1_555
Co2 O4A 1_555 1_555
O4 Co2A 1_555 1_555
O6 C11 1_555 1_555
N2 C23 1_555 1_555
C5 C6 1_555 1_555
C15 C16 1_555 1_555
C29 C30 1_555 1_555
C33 C34 1_555 1_555

#END
