
#######################################################################
#
#                 Cambridge Crystallographic Data Centre
#                                CCDC 
#
#######################################################################
#
# If this CIF has been generated from an entry in the Cambridge 
# Structural Database, then it will include bibliographic, chemical, 
# crystal, experimental, refinement or atomic coordinate data resulting 
# from the CCDC's data processing and validation procedures.
#
#######################################################################

data_DEPYED
_symmetry_cell_setting           monoclinic
_symmetry_space_group_name_H-M   'C 2/c'
_symmetry_Int_Tables_number      15
_space_group_name_Hall           '-C 2yn'
loop_
_symmetry_equiv_pos_site_id
_symmetry_equiv_pos_as_xyz
1 x,y,z
2 1/2+x,1/2+y,z
3 -x,y,1/2-z
4 1/2-x,1/2+y,1/2-z
5 -x,-y,-z
6 1/2-x,1/2-y,-z
7 x,-y,1/2+z
8 1/2+x,1/2-y,1/2+z
_cell_length_a                   26.3797(6)
_cell_length_b                   14.4378(2)
_cell_length_c                   25.4231(7)
_cell_angle_alpha                90
_cell_angle_beta                 113.6310(10)
_cell_angle_gamma                90
_cell_volume                     8870.83
loop_
_atom_site_label
_atom_site_type_symbol
_atom_site_fract_x
_atom_site_fract_y
_atom_site_fract_z
Sm1 Sm 0.21376(2) -0.36500(4) 0.31006(2)
Sm2 Sm 0.16496(2) -0.58561(4) 0.19794(2)
C1 C 0.3069(4) -0.6437(7) 0.2258(4)
C2 C 0.3428(4) -0.5606(7) 0.2403(4)
C3 C 0.3906(5) -0.5561(8) 0.2305(5)
H1 H 0.4030 -0.6084 0.2178
C4 C 0.4198(5) -0.4756(8) 0.2393(6)
H2 H 0.4513 -0.4732 0.2314
C5 C 0.4035(5) -0.3975(8) 0.2595(5)
H3 H 0.4234 -0.3427 0.2648
C6 C 0.3567(4) -0.4019(7) 0.2721(4)
C7 C 0.3274(4) -0.4841(6) 0.2622(4)
H4 H 0.2963 -0.4875 0.2708
C8 C 0.3365(4) -0.3184(7) 0.2948(4)
C9 C 0.2511(4) -0.5537(7) 0.3523(4)
C10 C 0.2745(4) -0.6449(7) 0.3797(4)
C11 C 0.2991(6) -0.6525(8) 0.4387(5)
H5 H 0.2999 -0.6025 0.4620
C12 C 0.3229(6) -0.7370(9) 0.4625(5)
H6 H 0.3382 -0.7433 0.5022
C13 C 0.3246(5) -0.8115(8) 0.4294(5)
H7 H 0.3417 -0.8664 0.4465
C14 C 0.3002(4) -0.8029(7) 0.3701(4)
C15 C 0.2752(4) -0.7196(7) 0.3455(4)
H8 H 0.2589 -0.7139 0.3057
C16 C 0.2999(4) -0.8827(7) 0.3328(5)
C17 C 0.1532(4) -0.3477(8) 0.4034(4)
C18 C 0.1217(4) -0.3990(7) 0.4322(4)
C19 C 0.0833(5) -0.4697(9) 0.4044(5)
H9 H 0.0769 -0.4864 0.3670
C20 C 0.0553(5) -0.5137(10) 0.4325(5)
H10 H 0.0299 -0.5599 0.4138
C21 C 0.0645(4) -0.4904(8) 0.4882(5)
H11 H 0.0450 -0.5205 0.5067
C22 C 0.1023(4) -0.4224(8) 0.5167(4)
C23 C 0.1295(4) -0.3755(7) 0.4873(4)
H12 H 0.1534 -0.3272 0.5055
C24 C 0.1159(5) -0.3996(8) 0.5786(4)
C25 C 0.0876(4) -0.4830(7) 0.2340(4)
C26 C 0.0428(4) -0.4314(7) 0.2437(4)
C27 C 0.0423(4) -0.3351(8) 0.2447(5)
H13 H 0.0715 -0.3026 0.2418
C28 C 0.0000 -0.2871(11) 0.2500
H14 H 0.0000 -0.2227 0.2500
C29 C 0.0000 -0.4780(10) 0.2500
H15 H 0.0000 -0.5424 0.2500
O1 O 0.3280(3) -0.7198(5) 0.2220(4)
O2 O 0.2558(3) -0.6345(5) 0.2169(3)
O3 O 0.3043(3) -0.3316(5) 0.3192(3)
O4 O 0.3538(3) -0.2396(5) 0.2865(3)
O5 O 0.2176(3) -0.5500(5) 0.2995(3)
O6 O 0.2652(3) -0.4821(5) 0.3819(3)
O7 O 0.3163(3) -0.9595(5) 0.3545(3)
O8 O 0.2822(3) -0.8674(5) 0.2798(3)
O9 O 0.1555(3) -0.3852(5) 0.3586(3)
O10 O 0.1757(4) -0.2741(6) 0.4251(4)
O11 O 0.1595(3) -0.3542(5) 0.6060(3)
O12 O 0.0868(3) -0.4300(6) 0.6030(3)
O13 O 0.1297(3) -0.4370(5) 0.2340(3)
O14 O 0.0838(3) -0.5676(5) 0.2250(3)
O15 O 0.2599(3) -0.2716(5) 0.3953(3)
Sm1C Sm 0.28624(2) -0.86500(4) 0.18994(2)
Sm1C_2 Sm 0.28624(2) 0.13500(4) 0.18994(2)
Sm1B Sm -0.21376(2) -0.36500(4) 0.18994(2)
Sm1_2 Sm 0.21376(2) -1.36500(4) 0.31006(2)
Sm1F Sm 0.21376(2) -0.63500(4) -0.18994(2)
Sm2C Sm 0.33504(2) -0.08561(4) 0.30206(2)
Sm2C_2 Sm 0.33504(2) -1.08561(4) 0.30206(2)
Sm2F Sm 0.16496(2) -0.41439(4) 0.69794(2)
Sm2B Sm -0.16496(2) -0.58561(4) 0.30206(2)
C1C C 0.1931(4) -1.1437(7) 0.2742(4)
C2C C 0.1572(4) -1.0606(7) 0.2597(4)
C3C C 0.1094(5) -1.0561(8) 0.2695(5)
H1C H 0.0970 -1.1084 0.2822
C4C C 0.0802(5) -0.9756(8) 0.2607(6)
H2C H 0.0487 -0.9732 0.2686
C5C C 0.0965(5) -0.8975(8) 0.2405(5)
H3C H 0.0766 -0.8427 0.2352
C6C C 0.1433(4) -0.9019(7) 0.2279(4)
C7C C 0.1726(4) -0.9841(6) 0.2378(4)
H4C H 0.2037 -0.9875 0.2292
C8C C 0.1635(4) -0.8184(7) 0.2052(4)
C9C C 0.2489(4) -0.0537(7) 0.1477(4)
C10C C 0.2255(4) -0.1449(7) 0.1203(4)
C11C C 0.2009(6) -0.1525(8) 0.0613(5)
H5C H 0.2001 -0.1025 0.0380
C12C C 0.1771(6) -0.2370(9) 0.0375(5)
H6C H 0.1618 -0.2433 -0.0022
C13C C 0.1754(5) -0.3115(8) 0.0706(5)
H7C H 0.1583 -0.3664 0.0535
C14C C 0.1998(4) -0.3029(7) 0.1299(4)
C15C C 0.2248(4) -0.2196(7) 0.1545(4)
H8C H 0.2411 -0.2139 0.1943
C16C C 0.2001(4) -0.3827(7) 0.1672(5)
C17F C 0.1532(4) -0.6523(8) -0.0966(4)
C18F C 0.1217(4) -0.6010(7) -0.0678(4)
C19F C 0.0833(5) -0.5303(9) -0.0956(5)
H9F H 0.0769 -0.5136 -0.1330
C20F C 0.0553(5) -0.4863(10) -0.0675(5)
H10F H 0.0299 -0.4401 -0.0862
C21F C 0.0645(4) -0.5096(8) -0.0118(5)
H11F H 0.0450 -0.4795 0.0067
C22F C 0.1023(4) -0.5776(8) 0.0167(4)
C23F C 0.1295(4) -0.6245(7) -0.0127(4)
H12F H 0.1534 -0.6728 0.0055
C24F C 0.1159(5) -0.6004(8) 0.0786(4)
C25B C -0.0876(4) -0.4830(7) 0.2660(4)
C26B C -0.0428(4) -0.4314(7) 0.2563(4)
C27B C -0.0423(4) -0.3351(8) 0.2553(5)
H13B H -0.0715 -0.3026 0.2582
O1C O 0.1720(3) -0.2198(5) 0.2780(4)
O1A O -0.1720(3) -0.2198(5) 0.2220(4)
O1C_2 O 0.1720(3) -1.2198(5) 0.2780(4)
O2C O 0.2442(3) -1.1345(5) 0.2831(3)
O3C O 0.1957(3) -0.8316(5) 0.1808(3)
O3B O -0.3043(3) -0.3316(5) 0.1808(3)
O4C O 0.1462(3) -0.7396(5) 0.2135(3)
O4_2 O 0.3538(3) -1.2396(5) 0.2865(3)
O5C O 0.2824(3) -0.0500(5) 0.2005(3)
O5C_2 O 0.2824(3) -1.0500(5) 0.2005(3)
O5B O -0.2176(3) -0.5500(5) 0.2005(3)
O6C O 0.2348(3) 0.0179(5) 0.1181(3)
O6B O -0.2652(3) -0.4821(5) 0.1181(3)
O7C O 0.1837(3) -0.4595(5) 0.1455(3)
O8C O 0.2178(3) -0.3674(5) 0.2202(3)
O8A O -0.2178(3) -0.3674(5) 0.2798(3)
O9B O -0.1555(3) -0.3852(5) 0.1414(3)
O9F O 0.1555(3) -0.6148(5) -0.1414(3)
O10F O 0.1757(4) -0.7259(6) -0.0749(4)
O11F O 0.1595(3) -0.6458(5) 0.1060(3)
O11E O 0.3405(3) -1.1458(5) 0.3940(3)
O12F O 0.0868(3) -0.5700(6) 0.1030(3)
O12E O 0.4132(3) -1.0700(6) 0.3970(3)
O13B O -0.1297(3) -0.4370(5) 0.2660(3)
O13C O 0.3703(3) -0.9370(5) 0.2660(3)
O14B O -0.0838(3) -0.5676(5) 0.2750(3)
O14C O 0.4162(3) -1.0676(5) 0.2750(3)
O15B O -0.2599(3) -0.2716(5) 0.1047(3)
Cu1 Cu 0.56023(6) -0.47307(12) 0.42174(8)
C30 C 0.5361(7) -0.2883(10) 0.3539(6)
H16 H 0.4999 -0.2932 0.3510
C31 C 0.5507(8) -0.2086(12) 0.3346(7)
H17 H 0.5252 -0.1617 0.3176
C32 C 0.6041(10) -0.2012(13) 0.3413(8)
H18 H 0.6161 -0.1473 0.3298
C33 C 0.6405(8) -0.2719(10) 0.3647(7)
H19 H 0.6770 -0.2671 0.3688
C34 C 0.6224(6) -0.3495(10) 0.3819(6)
C35 C 0.6583(5) -0.4293(8) 0.4089(5)
C36 C 0.7079(6) -0.4471(11) 0.4043(7)
H20 H 0.7196 -0.4076 0.3826
C37 C 0.7398(6) -0.5210(11) 0.4309(7)
H21 H 0.7728 -0.5328 0.4270
C38 C 0.7225(6) -0.5772(10) 0.4633(6)
H22 H 0.7446 -0.6260 0.4839
C39 C 0.6720(5) -0.5607(9) 0.4650(5)
H23 H 0.6596 -0.6015 0.4855
C40 C 0.4923(7) -0.3458(10) 0.4605(6)
H24 H 0.5227 -0.3064 0.4737
C41 C 0.4426(8) -0.3134(13) 0.4600(7)
H25 H 0.4402 -0.2552 0.4745
C42 C 0.3974(7) -0.3698(16) 0.4377(6)
H26 H 0.3628 -0.3485 0.4337
C43 C 0.4036(5) -0.4579(13) 0.4214(6)
H27 H 0.3736 -0.4983 0.4091
C44 C 0.4542(6) -0.4872(10) 0.4230(5)
C45 C 0.4645(5) -0.5796(11) 0.4061(6)
C46 C 0.4300(6) -0.6539(13) 0.3980(7)
H28 H 0.3961 -0.6454 0.4005
C47 C 0.4442(8) -0.7411(14) 0.3861(8)
H29 H 0.4200 -0.7908 0.3791
C48 C 0.4963(7) -0.7516(12) 0.3852(7)
H30 H 0.5091 -0.8095 0.3800
C49 C 0.5281(6) -0.6737(11) 0.3921(6)
H31 H 0.5624 -0.6802 0.3900
N1 N 0.5700(4) -0.3598(7) 0.3766(4)
N2 N 0.6401(4) -0.4897(7) 0.4389(4)
N3 N 0.4987(4) -0.4309(8) 0.4429(4)
N4 N 0.5131(4) -0.5892(8) 0.4015(4)
loop_
_geom_bond_atom_site_label_1
_geom_bond_atom_site_label_2
_geom_bond_site_symmetry_1
_geom_bond_site_symmetry_2
Sm1 O3 1_555 1_555
Sm2 O2 1_555 1_555
Cu1 N1 1_555 1_555
C1 C2 1_555 1_555
C2 C3 1_555 1_555
C3 H1 1_555 1_555
C4 C3 1_555 1_555
H2 C4 1_555 1_555
C5 C4 1_555 1_555
H3 C5 1_555 1_555
C6 C5 1_555 1_555
C7 C2 1_555 1_555
H4 C7 1_555 1_555
C8 C6 1_555 1_555
C9 C10 1_555 1_555
C10 C11 1_555 1_555
C11 H5 1_555 1_555
C12 C11 1_555 1_555
H6 C12 1_555 1_555
C13 C12 1_555 1_555
H7 C13 1_555 1_555
C14 C13 1_555 1_555
C15 C10 1_555 1_555
H8 C15 1_555 1_555
C16 C14 1_555 1_555
C17 C18 1_555 1_555
C18 C19 1_555 1_555
C19 H9 1_555 1_555
C20 C19 1_555 1_555
H10 C20 1_555 1_555
C21 C20 1_555 1_555
H11 C21 1_555 1_555
C22 C21 1_555 1_555
C23 C18 1_555 1_555
H12 C23 1_555 1_555
C24 C22 1_555 1_555
C25 C26 1_555 1_555
C26 C27 1_555 1_555
C27 H13 1_555 1_555
C28 C27 1_555 1_555
H14 C28 1_555 1_555
C29 C26 1_555 1_555
H15 C29 1_555 1_555
C30 H16 1_555 1_555
C31 C30 1_555 1_555
H17 C31 1_555 1_555
C32 C31 1_555 1_555
H18 C32 1_555 1_555
C33 C32 1_555 1_555
H19 C33 1_555 1_555
C34 C33 1_555 1_555
C35 C34 1_555 1_555
C36 C35 1_555 1_555
H20 C36 1_555 1_555
C37 C36 1_555 1_555
H21 C37 1_555 1_555
C38 C37 1_555 1_555
H22 C38 1_555 1_555
C39 C38 1_555 1_555
H23 C39 1_555 1_555
C40 H24 1_555 1_555
C41 C40 1_555 1_555
H25 C41 1_555 1_555
C42 C41 1_555 1_555
H26 C42 1_555 1_555
C43 C42 1_555 1_555
H27 C43 1_555 1_555
C44 C43 1_555 1_555
C45 C44 1_555 1_555
C46 C45 1_555 1_555
H28 C46 1_555 1_555
C47 C46 1_555 1_555
H29 C47 1_555 1_555
C48 C47 1_555 1_555
H30 C48 1_555 1_555
C49 C48 1_555 1_555
H31 C49 1_555 1_555
N1 C30 1_555 1_555
N2 Cu1 1_555 1_555
N3 Cu1 1_555 1_555
N4 Cu1 1_555 1_555
O1 C1 1_555 1_555
O2 C1 1_555 1_555
O3 C8 1_555 1_555
O4 C8 1_555 1_555
O5 Sm1 1_555 1_555
O6 Sm1 1_555 1_555
O7 C16 1_555 1_555
O8 C16 1_555 1_555
O9 Sm1 1_555 1_555
O10 C17 1_555 1_555
O11 C24 1_555 1_555
O12 C24 1_555 1_555
O13 Sm1 1_555 1_555
O14 Sm2 1_555 1_555
O15 Sm1 1_555 1_555
Sm1C O1 1_555 1_555
Sm1C_2 O5C 1_555 1_555
Sm1B O1A 1_555 1_555
Sm1_2 O1C_2 1_555 1_555
Sm1F O9F 1_555 1_555
Sm2C O4 1_555 1_555
Sm2C_2 O7 1_555 1_555
Sm2F O11 1_555 1_555
Sm2B O5B 1_555 1_555
C1C C2C 1_555 1_555
C2C C3C 1_555 1_555
C3C H1C 1_555 1_555
C4C C3C 1_555 1_555
H2C C4C 1_555 1_555
C5C C4C 1_555 1_555
H3C C5C 1_555 1_555
C6C C5C 1_555 1_555
C7C C2C 1_555 1_555
H4C C7C 1_555 1_555
C8C C6C 1_555 1_555
C9C C10C 1_555 1_555
C10C C11C 1_555 1_555
C11C H5C 1_555 1_555
C12C C11C 1_555 1_555
H6C C12C 1_555 1_555
C13C C12C 1_555 1_555
H7C C13C 1_555 1_555
C14C C13C 1_555 1_555
C15C C10C 1_555 1_555
H8C C15C 1_555 1_555
C16C C14C 1_555 1_555
C17F C18F 1_555 1_555
C18F C19F 1_555 1_555
C19F H9F 1_555 1_555
C20F C19F 1_555 1_555
H10F C20F 1_555 1_555
C21F C20F 1_555 1_555
H11F C21F 1_555 1_555
C22F C21F 1_555 1_555
C23F C18F 1_555 1_555
H12F C23F 1_555 1_555
C24F C22F 1_555 1_555
C25B C26B 1_555 1_555
C26B C29 1_555 1_555
C27B C28 1_555 1_555
H13B C27B 1_555 1_555
O1C Sm1 1_555 1_555
O1C_2 C1C 1_555 1_555
O2C Sm2C_2 1_555 1_555
O3C Sm1C 1_555 1_555
O3B Sm1B 1_555 1_555
O4C Sm2 1_555 1_555
O4_2 Sm2C_2 1_555 1_555
O5C Sm2C 1_555 1_555
O5C_2 Sm1C 1_555 1_555
O5B Sm1B 1_555 1_555
O6C Sm1C_2 1_555 1_555
O6B Sm1B 1_555 1_555
O7C Sm2 1_555 1_555
O8C Sm1 1_555 1_555
O8A Sm1B 1_555 1_555
O9B Sm1B 1_555 1_555
O9F C17F 1_555 1_555
O10F C17F 1_555 1_555
O11F Sm2 1_555 1_555
O11E Sm2C_2 1_555 1_555
O12F Sm2 1_555 1_555
O12E Sm2C_2 1_555 1_555
O13B Sm1B 1_555 1_555
O13C Sm1C 1_555 1_555
O14B Sm2B 1_555 1_555
O14C Sm2C_2 1_555 1_555
O15B Sm1B 1_555 1_555
Sm2 O5 1_555 1_555
Sm2 O13 1_555 1_555
C6 C7 1_555 1_555
C9 O5 1_555 1_555
C9 O6 1_555 1_555
C14 C15 1_555 1_555
C17 O9 1_555 1_555
C22 C23 1_555 1_555
C25 O13 1_555 1_555
C25 O14 1_555 1_555
C34 N1 1_555 1_555
C35 N2 1_555 1_555
C39 N2 1_555 1_555
C40 N3 1_555 1_555
C44 N3 1_555 1_555
C45 N4 1_555 1_555
C49 N4 1_555 1_555
O8 Sm1C 1_555 1_555
O12 Sm2F 1_555 1_555
Sm2C_2 O5C_2 1_555 1_555
Sm2C_2 O13C 1_555 1_555
Sm2B O13B 1_555 1_555
C1C O2C 1_555 1_555
C6C C7C 1_555 1_555
C8C O3C 1_555 1_555
C8C O4C 1_555 1_555
C9C O5C 1_555 1_555
C9C O6C 1_555 1_555
C14C C15C 1_555 1_555
C16C O7C 1_555 1_555
C16C O8C 1_555 1_555
C22F C23F 1_555 1_555
C24F O11F 1_555 1_555
C24F O12F 1_555 1_555
C25B O13B 1_555 1_555
C25B O14B 1_555 1_555
C26B C27B 1_555 1_555

#END
