
#######################################################################
#
#                 Cambridge Crystallographic Data Centre
#                                CCDC 
#
#######################################################################
#
# If this CIF has been generated from an entry in the Cambridge 
# Structural Database, then it will include bibliographic, chemical, 
# crystal, experimental, refinement or atomic coordinate data resulting 
# from the CCDC's data processing and validation procedures.
#
#######################################################################

data_DEQFOU
_symmetry_cell_setting           monoclinic
_symmetry_space_group_name_H-M   'C 2/c'
_symmetry_Int_Tables_number      15
_space_group_name_Hall           '-C 2yn'
loop_
_symmetry_equiv_pos_site_id
_symmetry_equiv_pos_as_xyz
1 x,y,z
2 -x,y,1/2-z
3 1/2+x,1/2+y,z
4 1/2-x,1/2+y,1/2-z
5 -x,-y,-z
6 x,-y,1/2+z
7 1/2-x,1/2-y,-z
8 1/2+x,1/2-y,1/2+z
_cell_length_a                   26.372(2)
_cell_length_b                   8.290(2)
_cell_length_c                   19.435(2)
_cell_angle_alpha                90
_cell_angle_beta                 122.777(4)
_cell_angle_gamma                90
_cell_volume                     3572.45
loop_
_atom_site_label
_atom_site_type_symbol
_atom_site_fract_x
_atom_site_fract_y
_atom_site_fract_z
Cu1 Cu 0.64936(3) 0.25203(7) 0.84369(3)
Cu2 Cu 0.55988(3) 0.17327(7) 0.64433(3)
Cl1 Cl 0.73431(5) 0.5164(1) 0.80581(7)
Cl2 Cl 0.58070(5) -0.0398(1) 0.89971(6)
O1 O 0.5833(1) 0.4006(4) 0.7999(2)
O2 O 0.5386(1) 0.3850(3) 0.6645(2)
O3 O 0.6142(1) 0.1046(3) 0.7546(1)
O4 O 0.6293(1) 0.2794(4) 0.6208(2)
O5 O 0.7860(2) 0.5127(6) 0.8851(2)
O6 O 0.7478(2) 0.5396(6) 0.7458(3)
O7 O 0.7028(2) 0.3689(4) 0.7893(2)
O8 O 0.6952(2) 0.6397(5) 0.8022(3)
O9 O 0.5187(1) -0.0044(4) 0.8412(2)
O10 O 0.5852(2) -0.1361(4) 0.9635(2)
O11 O 0.6133(1) 0.1078(4) 0.9325(2)
O12 O 0.6054(1) -0.1278(4) 0.8605(2)
N1 N 0.6923(1) 0.3959(4) 0.9458(2)
N2 N 0.7774(1) 0.3913(4) 1.0818(2)
N3 N 0.4890(1) 0.1984(4) 0.5246(2)
N4 N 0.4352(1) 0.0466(4) 0.4023(2)
C1 C 0.6776(2) 0.5417(5) 0.9588(2)
C2 C 0.7127(2) 0.6162(5) 1.0335(3)
C3 C 0.7623(2) 0.5363(5) 1.0949(2)
C4 C 0.4503(2) 0.3202(5) 0.4882(2)
C5 C 0.4027(2) 0.3084(5) 0.4076(3)
C6 C 0.3961(2) 0.1678(6) 0.3660(2)
C7 C 0.7452(2) 0.3296(4) 1.0074(2)
C8 C 0.4792(2) 0.0674(5) 0.4798(2)
C9 C 0.5466(2) 0.4469(5) 0.7283(2)
C10 C 0.5098(2) 0.5934(5) 0.7196(2)
H1 H 0.6474 0.6146 0.9135
H2 H 0.7026 0.7126 1.0442
H3 H 0.7899 0.5823 1.1498
H4 H 0.4596 0.4176 0.5206
H5 H 0.3755 0.3998 0.3782
H6 H 0.3613 0.1524 0.3026
H7 H 0.5390 0.6865 0.7259
H8 H 0.4750 0.6148 0.6659
H9 H 0.6016 -0.0132 0.7628
H10 H 0.6600 0.2983 0.6703
H11 H 0.6383 0.1926 0.5985
C10A C 0.4902(2) 0.5934(5) 0.7804(2)
C9A C 0.4534(2) 0.4469(5) 0.7717(2)
O1A O 0.4167(1) 0.4006(4) 0.7001(2)
O2A O 0.4614(1) 0.3850(3) 0.8355(2)
H7A H 0.4610 0.6865 0.7741
H8A H 0.5250 0.6148 0.8341
C7F C 0.7548(2) 0.1704(4) 0.9926(2)
N1F N 0.8077(1) 0.1041(4) 1.0542(2)
C1F C 0.8224(2) -0.0417(5) 1.0412(2)
C2F C 0.7873(2) -0.1162(5) 0.9665(3)
C3F C 0.7377(2) -0.0363(5) 0.9051(2)
N2F N 0.7226(1) 0.1087(4) 0.9182(2)
H3F H 0.7101 -0.0823 0.8502
H2F H 0.7974 -0.2126 0.9558
H1F H 0.8526 -0.1146 1.0865
C8D C 0.5208(2) -0.0674(5) 0.5202(2)
N3D N 0.5110(1) -0.1984(4) 0.4754(2)
C4D C 0.5497(2) -0.3202(5) 0.5118(2)
C5D C 0.5973(2) -0.3084(5) 0.5924(3)
C6D C 0.6039(2) -0.1678(6) 0.6340(2)
N4D N 0.5648(1) -0.0466(4) 0.5977(2)
H6D H 0.6387 -0.1524 0.6974
H5D H 0.6245 -0.3998 0.6218
H4D H 0.5404 -0.4176 0.4794
Cu1A Cu 0.35064(3) 0.25203(7) 0.65631(3)
Cu1F Cu 0.85064(3) 0.24797(7) 1.15631(3)
Cu2A Cu 0.44012(3) 0.17327(7) 0.85567(3)
Cl2A Cl 0.41930(5) -0.0398(1) 0.60029(6)
O9A O 0.4813(1) -0.0044(4) 0.6588(2)
O10A O 0.4148(2) -0.1361(4) 0.5365(2)
O11A O 0.3867(1) 0.1078(4) 0.5675(2)
O12A O 0.3946(1) -0.1278(4) 0.6395(2)
O3A O 0.3858(1) 0.1046(3) 0.7454(1)
H9A H 0.3984 -0.0132 0.7372
Cl1A Cl 0.26569(5) 0.5164(1) 0.69419(7)
O5A O 0.2140(2) 0.5127(6) 0.6149(2)
O6A O 0.2522(2) 0.5396(6) 0.7542(3)
O7A O 0.2972(2) 0.3689(4) 0.7107(2)
O8A O 0.3048(2) 0.6397(5) 0.6978(3)
N1A N 0.3077(1) 0.3959(4) 0.5542(2)
N2G N 0.2774(1) 0.1087(4) 0.5818(2)
O4A O 0.3707(1) 0.2794(4) 0.8792(2)
H10A H 0.3400 0.2983 0.8297
H11A H 0.3617 0.1926 0.9015
N3A N 0.5110(1) 0.1984(4) 0.9754(2)
N4E N 0.4352(1) -0.0466(4) 0.9023(2)
Cu2D Cu 0.44012(3) -0.17327(7) 0.35567(3)
loop_
_geom_bond_atom_site_label_1
_geom_bond_atom_site_label_2
_geom_bond_site_symmetry_1
_geom_bond_site_symmetry_2
Cu1 O1 1_555 1_555
Cu2 O2 1_555 1_555
Cl1 O5 1_555 1_555
Cl2 O9 1_555 1_555
O1 C9 1_555 1_555
O2 C9 1_555 1_555
O3 Cu1 1_555 1_555
O4 Cu2 1_555 1_555
O6 Cl1 1_555 1_555
O7 Cu1 1_555 1_555
O8 Cl1 1_555 1_555
O9 Cu2A 1_555 1_555
O10 Cl2 1_555 1_555
O11 Cu1 1_555 1_555
O12 Cl2 1_555 1_555
N1 Cu1 1_555 1_555
N2 C3 1_555 1_555
N3 Cu2 1_555 1_555
N4 C6 1_555 1_555
C1 N1 1_555 1_555
C2 C1 1_555 1_555
C3 C2 1_555 1_555
C4 N3 1_555 1_555
C5 C4 1_555 1_555
C6 C5 1_555 1_555
C7 N1 1_555 1_555
C8 N3 1_555 1_555
C9 C10 1_555 1_555
C10 H7 1_555 1_555
H1 C1 1_555 1_555
H2 C2 1_555 1_555
H3 C3 1_555 1_555
H4 C4 1_555 1_555
H5 C5 1_555 1_555
H6 C6 1_555 1_555
H8 C10 1_555 1_555
H9 O3 1_555 1_555
H10 O4 1_555 1_555
H11 O4 1_555 1_555
C10A C10 1_555 1_555
C9A C10A 1_555 1_555
O1A C9A 1_555 1_555
O2A C9A 1_555 1_555
H7A C10A 1_555 1_555
H8A C10A 1_555 1_555
C7F C7 1_555 1_555
N1F C7F 1_555 1_555
C1F N1F 1_555 1_555
C2F C1F 1_555 1_555
C3F C2F 1_555 1_555
N2F Cu1 1_555 1_555
H3F C3F 1_555 1_555
H2F C2F 1_555 1_555
H1F C1F 1_555 1_555
C8D C8 1_555 1_555
N3D C8D 1_555 1_555
C4D N3D 1_555 1_555
C5D C4D 1_555 1_555
C6D C5D 1_555 1_555
N4D Cu2 1_555 1_555
H6D C6D 1_555 1_555
H5D C5D 1_555 1_555
H4D C4D 1_555 1_555
Cu1A O1A 1_555 1_555
Cu1F N2 1_555 1_555
Cu2A O2A 1_555 1_555
Cl2A O9A 1_555 1_555
O9A Cu2 1_555 1_555
O10A Cl2A 1_555 1_555
O11A Cu1A 1_555 1_555
O12A Cl2A 1_555 1_555
O3A Cu1A 1_555 1_555
H9A O3A 1_555 1_555
Cl1A O5A 1_555 1_555
O6A Cl1A 1_555 1_555
O7A Cu1A 1_555 1_555
O8A Cl1A 1_555 1_555
N1A Cu1A 1_555 1_555
N2G Cu1A 1_555 1_555
O4A Cu2A 1_555 1_555
H10A O4A 1_555 1_555
H11A O4A 1_555 1_555
N3A Cu2A 1_555 1_555
N4E Cu2A 1_555 1_555
Cu2D N4 1_555 1_555
Cu2 O3 1_555 1_555
Cl1 O7 1_555 1_555
Cl2 O11 1_555 1_555
N2 C7 1_555 1_555
N4 C8 1_555 1_555
C7F N2F 1_555 1_555
N1F Cu1F 1_555 1_555
C3F N2F 1_555 1_555
C8D N4D 1_555 1_555
N3D Cu2D 1_555 1_555
C6D N4D 1_555 1_555
Cu2A O3A 1_555 1_555
Cl2A O11A 1_555 1_555
Cl1A O7A 1_555 1_555

#END
