
#######################################################################
#
#                 Cambridge Crystallographic Data Centre
#                                CCDC 
#
#######################################################################
#
# If this CIF has been generated from an entry in the Cambridge 
# Structural Database, then it will include bibliographic, chemical, 
# crystal, experimental, refinement or atomic coordinate data resulting 
# from the CCDC's data processing and validation procedures.
#
#######################################################################

data_DEQVIF
_symmetry_cell_setting           monoclinic
_symmetry_space_group_name_H-M   'P 21/c'
_symmetry_Int_Tables_number      14
_space_group_name_Hall           '-P 2ybc'
loop_
_symmetry_equiv_pos_site_id
_symmetry_equiv_pos_as_xyz
1 x,y,z
2 -x,1/2+y,1/2-z
3 -x,-y,-z
4 x,1/2-y,1/2+z
_cell_length_a                   11.507(2)
_cell_length_b                   23.254(5)
_cell_length_c                   9.8710(19)
_cell_angle_alpha                90
_cell_angle_beta                 96.418(4)
_cell_angle_gamma                90
_cell_volume                     2624.77
loop_
_atom_site_label
_atom_site_type_symbol
_atom_site_fract_x
_atom_site_fract_y
_atom_site_fract_z
Mn1 Mn 0.49998(3) 0.767073(16) 0.25045(4)
N1 N 0.4986(2) 0.66449(11) 0.2455(2)
C1 C 0.5701(3) 0.63265(14) 0.1623(3)
H1 H 0.6183 0.6513 0.1067
C2 C 0.5654(3) 0.57325(14) 0.1674(3)
H2 H 0.6107 0.5521 0.1130
C3 C 0.4952(3) 0.54365(13) 0.2509(3)
C4 C 0.4303(3) 0.57652(14) 0.3341(3)
H3 H 0.3858 0.5584 0.3946
C5 C 0.4323(3) 0.63666(13) 0.3265(3)
H4 H 0.3860 0.6578 0.3797
C6 C 0.4877(2) 0.47966(13) 0.2454(3)
C7 C 0.5192(3) 0.44728(13) 0.1392(3)
H5 H 0.5400 0.4657 0.0618
C8 C 0.5208(2) 0.38832(13) 0.1446(3)
H6 H 0.5405 0.3674 0.0701
N2 N 0.49399(19) 0.36001(10) 0.2580(2)
C9 C 0.4633(3) 0.38983(13) 0.3709(3)
H7 H 0.4444 0.3706 0.4481
C10 C 0.4620(3) 0.44966(13) 0.3636(3)
H8 H 0.4437 0.4706 0.4387
C11 C 0.9199(2) 0.71570(13) 0.6557(3)
C12 C 0.9934(2) 0.68626(13) 0.7569(3)
H9 H 0.9932 0.6463 0.7602
C13 C 1.0645(2) 0.71699(13) 0.8497(3)
C14 C 1.0665(3) 0.77803(13) 0.8488(3)
H10 H 1.1135 0.7987 0.9145
C15 C 0.9946(3) 0.80603(14) 0.7445(3)
H11 H 0.9981 0.8459 0.7374
C16 C 0.9193(2) 0.77578(13) 0.6530(3)
H12 H 0.8679 0.7952 0.5894
C17 C 0.7691(2) 0.70810(13) 0.4770(3)
H13 H 0.7387 0.6795 0.4107
H14 H 0.8109 0.7363 0.4285
C18 C 0.6699(2) 0.73701(12) 0.5244(3)
C19 C 1.2170(2) 0.71613(12) 1.0299(3)
H15 H 1.2435 0.6891 1.1015
H16 H 1.1756 0.7465 1.0718
C20 C 1.3233(2) 0.74236(12) 0.9806(3)
O1 O 0.84999(16) 0.68105(9) 0.56913(18)
O2 O 0.61559(15) 0.76965(9) 0.44413(18)
O3 O 0.65696(15) 0.73468(8) 0.65252(17)
O4 O 1.13794(16) 0.68837(8) 0.9401(2)
O5 O 1.34869(15) 0.72401(8) 0.87301(18)
O6 O 1.39284(17) 0.77291(7) 1.0633(2)
Mn1A Mn 0.50002(3) 0.267073(16) 0.24955(4)
Mn1C Mn 0.49998(3) 0.732927(16) 0.75045(4)
Mn1C_2 Mn 1.49998(3) 0.732927(16) 0.75045(4)
Mn1_2 Mn 1.49998(3) 0.767073(16) 1.25045(4)
N2A N 0.50601(19) 0.86001(10) 0.2420(2)
O3C O 0.65696(15) 0.76532(8) 0.15252(17)
O5C O 0.34869(15) 0.77599(8) 0.37301(18)
O6_2 O 0.39284(17) 0.77291(7) 0.0633(2)
C21 C 0.8330(2) 0.48949(11) 0.2631(3)
C22 C 0.8016(2) 0.43361(12) 0.2899(3)
H17 H 0.7888 0.4076 0.2182
C23 C 0.7886(2) 0.41527(11) 0.4221(2)
H18 H 0.7642 0.3780 0.4378
N3 N 0.8128(2) 0.45397(10) 0.5312(2)
C24 C 0.8438(2) 0.50959(12) 0.5059(3)
H19 H 0.8586 0.5355 0.5776
C25 C 0.8533(2) 0.52759(11) 0.3697(3)
H20 H 0.8733 0.5654 0.3527
C26 C 0.8434(2) 0.50447(11) 0.1197(3)
C27 C 0.8723(2) 0.46739(10) 0.0198(2)
H21 H 0.8824 0.4285 0.0395
C28 C 0.8866(2) 0.48737(12) -0.1098(3)
H22 H 0.9073 0.4618 -0.1755
N4 N 0.87077(18) 0.54383(10) -0.1417(2)
C29 C 0.8420(2) 0.58061(11) -0.0455(2)
H23 H 0.8304 0.6191 -0.0691
C30 C 0.8290(2) 0.56460(11) 0.0838(3)
H24 H 0.8112 0.5916 0.1480
loop_
_geom_bond_atom_site_label_1
_geom_bond_atom_site_label_2
_geom_bond_site_symmetry_1
_geom_bond_site_symmetry_2
Mn1 N1 1_555 1_555
N1 C1 1_555 1_555
C1 H1 1_555 1_555
C2 C1 1_555 1_555
H2 C2 1_555 1_555
C3 C2 1_555 1_555
C4 C3 1_555 1_555
H3 C4 1_555 1_555
C5 N1 1_555 1_555
H4 C5 1_555 1_555
C6 C3 1_555 1_555
C7 C6 1_555 1_555
H5 C7 1_555 1_555
C8 C7 1_555 1_555
H6 C8 1_555 1_555
N2 C8 1_555 1_555
C9 N2 1_555 1_555
H7 C9 1_555 1_555
C10 C6 1_555 1_555
H8 C10 1_555 1_555
C11 C12 1_555 1_555
C12 H9 1_555 1_555
C13 C12 1_555 1_555
C14 C13 1_555 1_555
H10 C14 1_555 1_555
C15 C14 1_555 1_555
H11 C15 1_555 1_555
C16 C11 1_555 1_555
H12 C16 1_555 1_555
C17 H13 1_555 1_555
H14 C17 1_555 1_555
C18 C17 1_555 1_555
C19 H15 1_555 1_555
H16 C19 1_555 1_555
C20 C19 1_555 1_555
O1 C11 1_555 1_555
O2 Mn1 1_555 1_555
O3 C18 1_555 1_555
O4 C13 1_555 1_555
O5 C20 1_555 1_555
O6 C20 1_555 1_555
C21 C22 1_555 1_555
C22 H17 1_555 1_555
C23 C22 1_555 1_555
H18 C23 1_555 1_555
N3 C23 1_555 1_555
C24 N3 1_555 1_555
H19 C24 1_555 1_555
C25 C21 1_555 1_555
H20 C25 1_555 1_555
C26 C21 1_555 1_555
C27 C26 1_555 1_555
H21 C27 1_555 1_555
C28 C27 1_555 1_555
H22 C28 1_555 1_555
N4 C28 1_555 1_555
C29 N4 1_555 1_555
H23 C29 1_555 1_555
C30 C26 1_555 1_555
H24 C30 1_555 1_555
Mn1A N2 1_555 1_555
Mn1C O3 1_555 1_555
Mn1C_2 O5 1_555 1_555
Mn1_2 O6 1_555 1_555
N2A Mn1 1_555 1_555
O3C Mn1 1_555 1_555
O5C Mn1 1_555 1_555
O6_2 Mn1 1_555 1_555
C4 C5 1_555 1_555
C9 C10 1_555 1_555
C15 C16 1_555 1_555
C17 O1 1_555 1_555
C18 O2 1_555 1_555
C19 O4 1_555 1_555
C24 C25 1_555 1_555
C29 C30 1_555 1_555

#END
