
#######################################################################
#
#                 Cambridge Crystallographic Data Centre
#                                CCDC 
#
#######################################################################
#
# If this CIF has been generated from an entry in the Cambridge 
# Structural Database, then it will include bibliographic, chemical, 
# crystal, experimental, refinement or atomic coordinate data resulting 
# from the CCDC's data processing and validation procedures.
#
#######################################################################

data_DEYCAN
_symmetry_cell_setting           rhombohedral
_symmetry_space_group_name_H-M   'R -3'
_symmetry_Int_Tables_number      148
_space_group_name_Hall           '-R 3'
loop_
_symmetry_equiv_pos_site_id
_symmetry_equiv_pos_as_xyz
1 x,y,z
2 -y,x-y,z
3 -x+y,-x,z
4 2/3+x,1/3+y,1/3+z
5 2/3-y,1/3+x-y,1/3+z
6 2/3-x+y,1/3-x,1/3+z
7 1/3+x,2/3+y,2/3+z
8 1/3-y,2/3+x-y,2/3+z
9 1/3-x+y,2/3-x,2/3+z
10 -x,-y,-z
11 y,-x+y,-z
12 x-y,x,-z
13 1/3-x,2/3-y,2/3-z
14 1/3+y,2/3-x+y,2/3-z
15 1/3+x-y,2/3+x,2/3-z
16 2/3-x,1/3-y,1/3-z
17 2/3+y,1/3-x+y,1/3-z
18 2/3+x-y,1/3+x,1/3-z
_cell_length_a                   28.801(8)
_cell_length_b                   28.801(8)
_cell_length_c                   7.473(2)
_cell_angle_alpha                90
_cell_angle_beta                 90
_cell_angle_gamma                120
_cell_volume                     5368.35
loop_
_atom_site_label
_atom_site_type_symbol
_atom_site_fract_x
_atom_site_fract_y
_atom_site_fract_z
Mn1 Mn 0.559113(18) 1.024224(19) 0.73532(6)
N1 N 0.56551(11) 0.96216(11) 1.0860(3)
H1 H 0.5512 0.9775 1.1497
N2 N 0.57618(11) 0.96963(11) 0.9076(3)
N3 N 0.60011(11) 0.91271(11) 1.0182(3)
N4 N 0.61606(14) 0.93661(14) 0.7140(4)
H2 H 0.6051 0.9444 0.6112
H3 H 0.6233 0.9098 0.7018
O1 O 0.53810(9) 0.96532(9) 0.5209(3)
O2 O 0.45373(9) 0.92271(9) 0.4233(3)
O3 O 0.47491(9) 0.97470(8) 0.8090(3)
O4 O 0.42525(9) 0.92498(9) 1.0344(3)
C1 C 0.59686(12) 0.93901(13) 0.8731(4)
C2 C 0.57981(13) 0.92880(14) 1.1482(4)
H4 H 0.5762 0.9176 1.2694
C3 C 0.47515(12) 0.88378(13) 0.6599(4)
C4 C 0.45714(12) 0.88508(13) 0.8314(4)
C5 C 0.44431(14) 0.84293(14) 0.9483(5)
H5 H 0.4321 0.8438 1.0656
C6 C 0.44925(15) 0.79967(14) 0.8949(5)
H6 H 0.4410 0.7711 0.9759
C7 C 0.46612(14) 0.79807(14) 0.7247(5)
H7 H 0.4687 0.7679 0.6873
C8 C 0.47934(13) 0.83978(13) 0.6073(5)
H8 H 0.4914 0.8384 0.4900
C9 C 0.49017(13) 0.92811(13) 0.5256(4)
C10 C 0.45170(13) 0.93091(13) 0.8972(4)
Mn1D Mn 0.642443(19) 0.868222(26) 1.06865(6)
Mn1I Mn 0.440887(18) 0.975776(19) 0.26468(6)
Mn1I_2 Mn 0.440887(18) 0.975776(19) 1.26468(6)
N3H N 0.64593(16) 1.06656(11) 0.6849(3)
O2I O 0.54627(9) 1.07729(9) 0.5767(3)
O4I O 0.57475(9) 1.07502(9) 0.9656(3)
loop_
_geom_bond_atom_site_label_1
_geom_bond_atom_site_label_2
_geom_bond_site_symmetry_1
_geom_bond_site_symmetry_2
Mn1 N2 1_555 1_555
N1 H1 1_555 1_555
N2 N1 1_555 1_555
N3 C1 1_555 1_555
N4 H2 1_555 1_555
H3 N4 1_555 1_555
O1 Mn1 1_555 1_555
O2 C9 1_555 1_555
O3 Mn1 1_555 1_555
O4 C10 1_555 1_555
C1 N2 1_555 1_555
C2 N1 1_555 1_555
H4 C2 1_555 1_555
C3 C4 1_555 1_555
C4 C5 1_555 1_555
C5 H5 1_555 1_555
C6 C5 1_555 1_555
H6 C6 1_555 1_555
C7 C6 1_555 1_555
H7 C7 1_555 1_555
C8 C3 1_555 1_555
H8 C8 1_555 1_555
C9 O1 1_555 1_555
C10 O3 1_555 1_555
Mn1D N3 1_555 1_555
Mn1I O2 1_555 1_555
Mn1I_2 O4 1_555 1_555
N3H Mn1 1_555 1_555
O2I Mn1 1_555 1_555
O4I Mn1 1_555 1_555
N3 C2 1_555 1_555
N4 C1 1_555 1_555
C3 C9 1_555 1_555
C4 C10 1_555 1_555
C7 C8 1_555 1_555

#END
