
#######################################################################
#
#                 Cambridge Crystallographic Data Centre
#                                CCDC 
#
#######################################################################
#
# If this CIF has been generated from an entry in the Cambridge 
# Structural Database, then it will include bibliographic, chemical, 
# crystal, experimental, refinement or atomic coordinate data resulting 
# from the CCDC's data processing and validation procedures.
#
#######################################################################

data_DEYXIQ
_symmetry_cell_setting           monoclinic
_symmetry_space_group_name_H-M   'P 21/c'
_symmetry_Int_Tables_number      14
_space_group_name_Hall           '-P 2ybc'
loop_
_symmetry_equiv_pos_site_id
_symmetry_equiv_pos_as_xyz
1 x,y,z
2 -x,1/2+y,1/2-z
3 -x,-y,-z
4 x,1/2-y,1/2+z
_cell_length_a                   10.5379(12)
_cell_length_b                   32.858(4)
_cell_length_c                   7.9030(9)
_cell_angle_alpha                90
_cell_angle_beta                 99.6070(10)
_cell_angle_gamma                90
_cell_volume                     2698.07
loop_
_atom_site_label
_atom_site_type_symbol
_atom_site_fract_x
_atom_site_fract_y
_atom_site_fract_z
Co1 Co -0.48049(4) 0.749817(13) -0.05326(6)
Co2 Co 0.5000 0.5000 0.5000
Co3 Co 0.5000 0.5000 1.0000
C1 C -0.1028(3) 0.70106(10) 0.0924(4)
C2 C -0.0343(3) 0.73709(10) 0.1296(5)
H1 H -0.0699 0.7616 0.0862
C3 C 0.0862(3) 0.73667(10) 0.2306(5)
H2 H 0.1300 0.7611 0.2565
C4 C 0.1430(3) 0.70029(10) 0.2942(4)
C5 C 0.0767(3) 0.66372(10) 0.2533(4)
C6 C 0.1414(3) 0.62433(10) 0.2986(4)
C7 C 0.0637(3) 0.58634(10) 0.2813(4)
C8 C 0.1185(3) 0.54982(10) 0.3485(4)
C9 C 0.0483(3) 0.51397(10) 0.3162(5)
H3 H 0.0836 0.4895 0.3611
C10 C -0.0737(3) 0.51430(10) 0.2179(5)
H4 H -0.1188 0.4900 0.1963
C11 C -0.1291(3) 0.55043(10) 0.1514(4)
C12 C -0.0614(3) 0.58687(10) 0.1857(4)
C13 C -0.1250(3) 0.62616(10) 0.1293(4)
C14 C -0.0480(3) 0.66423(10) 0.1556(4)
C15 C -0.2339(3) 0.70400(9) -0.0196(4)
C16 C 0.2730(3) 0.70258(9) 0.4093(4)
C17 C 0.2497(3) 0.54681(10) 0.4588(5)
C18 C -0.2582(3) 0.54709(9) 0.0358(4)
O1 O 0.2584(2) 0.62229(7) 0.3400(3)
O2 O -0.2391(2) 0.62746(7) 0.0712(4)
O3 O -0.3224(2) 0.71804(7) 0.0560(3)
O4 O -0.2464(2) 0.69549(8) -0.1738(3)
O5 O 0.3621(2) 0.71745(7) 0.3374(3)
O6 O 0.2848(2) 0.69334(7) 0.5628(3)
O7 O 0.2654(2) 0.55941(7) 0.6092(3)
O8 O 0.3339(2) 0.52821(7) 0.3889(3)
O9 O -0.2658(2) 0.55153(8) -0.1199(3)
O10 O -0.3518(2) 0.53595(7) 0.1095(3)
O11 O -0.4808(2) 0.77842(7) 0.1963(3)
H5 H -0.5453 0.7941 0.1715
H6 H -0.4106 0.7913 0.2263
O12 O -0.3604(2) 0.79493(7) -0.1181(3)
H7 H -0.3505 0.7917 -0.2218
H8 H -0.3819 0.8195 -0.1049
O13 O -0.6064(2) 0.70665(7) 0.0123(3)
H9 H -0.5989 0.6816 -0.0110
H10 H -0.6229 0.7092 0.1135
O14 O 0.6082(2) 0.54806(7) 0.4247(3)
H11 H 0.6755 0.5536 0.4962
H12 H 0.6248 0.5457 0.3235
O15 O 0.4946(2) 0.52865(7) 0.7476(3)
H13 H 0.5624 0.5431 0.7685
H14 H 0.4272 0.5430 0.7192
O16 O 0.3663(2) 0.54133(8) 1.0615(3)
H15 H 0.3717 0.5666 1.0401
H16 H 0.3536 0.5376 1.1638
Co1B Co 0.48049(4) 0.250183(13) 1.05326(6)
C1B C 0.1028(3) 0.29894(10) 0.9076(4)
C2B C 0.0343(3) 0.26291(10) 0.8704(5)
H1B H 0.0699 0.2384 0.9138
C3B C -0.0862(3) 0.26333(10) 0.7694(5)
H2B H -0.1300 0.2389 0.7435
C4B C -0.1430(3) 0.29971(10) 0.7058(4)
C5B C -0.0767(3) 0.33628(10) 0.7467(4)
C6B C -0.1414(3) 0.37567(10) 0.7014(4)
C7B C -0.0637(3) 0.41366(10) 0.7187(4)
C8B C -0.1185(3) 0.45018(10) 0.6515(4)
C9B C -0.0483(3) 0.48603(10) 0.6838(5)
H3B H -0.0836 0.5105 0.6389
C10B C 0.0737(3) 0.48570(10) 0.7821(5)
H4B H 0.1188 0.5100 0.8037
C11B C 0.1291(3) 0.44957(10) 0.8486(4)
C12B C 0.0614(3) 0.41313(10) 0.8143(4)
C13B C 0.1250(3) 0.37384(10) 0.8707(4)
C14B C 0.0480(3) 0.33577(10) 0.8444(4)
C15B C 0.2339(3) 0.29600(9) 1.0196(4)
C16B C -0.2730(3) 0.29742(9) 0.5907(4)
C17B C -0.2497(3) 0.45319(10) 0.5412(5)
C18B C 0.2582(3) 0.45291(9) 0.9642(4)
O1B O -0.2584(2) 0.37771(7) 0.6600(3)
O2B O 0.2391(2) 0.37254(7) 0.9288(4)
O3B O 0.3224(2) 0.28196(7) 0.9440(3)
O4B O 0.2464(2) 0.30451(8) 1.1738(3)
O5B O -0.3621(2) 0.28255(7) 0.6626(3)
O6B O -0.2848(2) 0.30666(7) 0.4372(3)
O7B O -0.2654(2) 0.44059(7) 0.3908(3)
O8B O -0.3339(2) 0.47179(7) 0.6111(3)
O9B O 0.2658(2) 0.44847(8) 1.1199(3)
O10B O 0.3518(2) 0.46405(7) 0.8905(3)
O11B O 0.4808(2) 0.22158(7) 0.8037(3)
H5B H 0.5453 0.2059 0.8285
H6B H 0.4106 0.2087 0.7737
O12B O 0.3604(2) 0.20507(7) 1.1181(3)
H7B H 0.3505 0.2083 1.2218
H8B H 0.3819 0.1805 1.1049
O13B O 0.6064(2) 0.29335(7) 0.9877(3)
H9B H 0.5989 0.3184 1.0110
H10B H 0.6229 0.2908 0.8865
O14B O 0.3918(2) 0.45194(7) 0.5753(3)
H11B H 0.3245 0.4464 0.5038
H12B H 0.3752 0.4543 0.6765
O15B O 0.5054(2) 0.47135(7) 0.2524(3)
H13B H 0.4376 0.4569 0.2315
H14B H 0.5728 0.4570 0.2808
O16B O 0.6337(2) 0.45867(8) 0.9385(3)
H15B H 0.6283 0.4334 0.9599
H16B H 0.6464 0.4624 0.8362
Co1A Co -0.51951(4) 0.249817(13) 0.55326(6)
Co1A_2 Co 0.48049(4) 0.249817(13) 0.55326(6)
Co1C Co -0.48049(4) 0.750183(13) 0.44674(6)
Co1C_2 Co 0.51951(4) 0.750183(13) 0.44674(6)
Co2_2 Co -0.5000 0.5000 0.5000
Co3_2 Co -0.5000 0.5000 0.0000
Co3_3 Co 0.5000 0.5000 0.0000
O5A O 0.6379(2) 0.21745(7) 1.1626(3)
O5C O -0.6379(2) 0.78255(7) -0.1626(3)
O8B_2 O 0.6661(2) 0.47179(7) 0.6111(3)
O10_2 O 0.6482(2) 0.53595(7) 1.1095(3)
O11A O 0.4808(2) 0.27842(7) 1.3037(3)
O11C O -0.4808(2) 0.72158(7) -0.3037(3)
O15B_2 O 0.5054(2) 0.47135(7) 1.2524(3)
O17 O 0.8247(2) 0.57638(8) 0.5991(3)
H17 H 0.8513 0.6008 0.5968
H18 H 0.8226 0.5700 0.7028
O18 O 0.3752(3) 0.62214(9) 0.9815(4)
H19 H 0.4401 0.6209 0.9309
H20 H 0.3085 0.6219 0.9042
O19 O 0.0963(3) 0.34472(8) 0.3919(4)
H21 H 0.1338 0.3308 0.3240
H22 H 0.0219 0.3490 0.3348
O20 O 0.4723(3) 0.36931(9) 0.5760(4)
H23 H 0.5540 0.3698 0.5998
H24 H 0.4391 0.3920 0.5960
O21 O 0.8370(3) 0.13240(8) 0.7801(4)
H25 H 0.8198 0.1499 0.8520
H26 H 0.8306 0.1084 0.8175
O22 O 0.4485(3) 0.37743(11) 0.2253(5)
H27 H 0.4477 0.3729 0.3310
H28 H 0.3952 0.3597 0.1769
loop_
_geom_bond_atom_site_label_1
_geom_bond_atom_site_label_2
_geom_bond_site_symmetry_1
_geom_bond_site_symmetry_2
Co1 O3 1_555 1_555
Co2 O8 1_555 1_555
Co3 O15 1_555 1_555
C1 C2 1_555 1_555
C2 H1 1_555 1_555
C3 C2 1_555 1_555
H2 C3 1_555 1_555
C4 C3 1_555 1_555
C5 C4 1_555 1_555
C6 C5 1_555 1_555
C7 C6 1_555 1_555
C8 C7 1_555 1_555
C9 C8 1_555 1_555
H3 C9 1_555 1_555
C10 C9 1_555 1_555
H4 C10 1_555 1_555
C11 C10 1_555 1_555
C12 C7 1_555 1_555
C13 C12 1_555 1_555
C14 C1 1_555 1_555
C15 C1 1_555 1_555
C16 C4 1_555 1_555
C17 C8 1_555 1_555
C18 C11 1_555 1_555
O1 C6 1_555 1_555
O2 C13 1_555 1_555
O3 C15 1_555 1_555
O4 C15 1_555 1_555
O5 C16 1_555 1_555
O6 C16 1_555 1_555
O7 C17 1_555 1_555
O8 C17 1_555 1_555
O9 C18 1_555 1_555
O10 C18 1_555 1_555
O11 Co1 1_555 1_555
H5 O11 1_555 1_555
H6 O11 1_555 1_555
O12 Co1 1_555 1_555
H7 O12 1_555 1_555
H8 O12 1_555 1_555
O13 Co1 1_555 1_555
H9 O13 1_555 1_555
H10 O13 1_555 1_555
O14 Co2 1_555 1_555
H11 O14 1_555 1_555
H12 O14 1_555 1_555
O15 Co2 1_555 1_555
H13 O15 1_555 1_555
H14 O15 1_555 1_555
O16 Co3 1_555 1_555
H15 O16 1_555 1_555
H16 O16 1_555 1_555
O17 H17 1_555 1_555
H18 O17 1_555 1_555
O18 H19 1_555 1_555
H20 O18 1_555 1_555
O19 H21 1_555 1_555
H22 O19 1_555 1_555
O20 H23 1_555 1_555
H24 O20 1_555 1_555
O21 H25 1_555 1_555
H26 O21 1_555 1_555
O22 H27 1_555 1_555
H28 O22 1_555 1_555
Co1B O3B 1_555 1_555
C1B C2B 1_555 1_555
C2B H1B 1_555 1_555
C3B C2B 1_555 1_555
H2B C3B 1_555 1_555
C4B C3B 1_555 1_555
C5B C4B 1_555 1_555
C6B C5B 1_555 1_555
C7B C6B 1_555 1_555
C8B C7B 1_555 1_555
C9B C8B 1_555 1_555
H3B C9B 1_555 1_555
C10B C9B 1_555 1_555
H4B C10B 1_555 1_555
C11B C10B 1_555 1_555
C12B C7B 1_555 1_555
C13B C12B 1_555 1_555
C14B C1B 1_555 1_555
C15B C1B 1_555 1_555
C16B C4B 1_555 1_555
C17B C8B 1_555 1_555
C18B C11B 1_555 1_555
O1B C6B 1_555 1_555
O2B C13B 1_555 1_555
O3B C15B 1_555 1_555
O4B C15B 1_555 1_555
O5B C16B 1_555 1_555
O6B C16B 1_555 1_555
O7B C17B 1_555 1_555
O8B C17B 1_555 1_555
O9B C18B 1_555 1_555
O10B Co3 1_555 1_555
O11B Co1B 1_555 1_555
H5B O11B 1_555 1_555
H6B O11B 1_555 1_555
O12B Co1B 1_555 1_555
H7B O12B 1_555 1_555
H8B O12B 1_555 1_555
O13B Co1B 1_555 1_555
H9B O13B 1_555 1_555
H10B O13B 1_555 1_555
O14B Co2 1_555 1_555
H11B O14B 1_555 1_555
H12B O14B 1_555 1_555
O15B Co2 1_555 1_555
H13B O15B 1_555 1_555
H14B O15B 1_555 1_555
O16B Co3 1_555 1_555
H15B O16B 1_555 1_555
H16B O16B 1_555 1_555
Co1A O5B 1_555 1_555
Co1A_2 O11B 1_555 1_555
Co1C O11 1_555 1_555
Co1C_2 O5 1_555 1_555
Co2_2 O8B 1_555 1_555
Co3_2 O10 1_555 1_555
Co3_3 O15B 1_555 1_555
O5A Co1B 1_555 1_555
O5C Co1 1_555 1_555
O8B_2 Co2 1_555 1_555
O10_2 Co3 1_555 1_555
O11A Co1B 1_555 1_555
O11C Co1 1_555 1_555
O15B_2 Co3 1_555 1_555
C5 C14 1_555 1_555
C11 C12 1_555 1_555
C13 C14 1_555 1_555
C5B C14B 1_555 1_555
C11B C12B 1_555 1_555
C13B C14B 1_555 1_555
C18B O10B 1_555 1_555

#END
