
#######################################################################
#
#                 Cambridge Crystallographic Data Centre
#                                CCDC 
#
#######################################################################
#
# If this CIF has been generated from an entry in the Cambridge 
# Structural Database, then it will include bibliographic, chemical, 
# crystal, experimental, refinement or atomic coordinate data resulting 
# from the CCDC's data processing and validation procedures.
#
#######################################################################

data_DEZMUR
_symmetry_cell_setting           triclinic
_symmetry_space_group_name_H-M   'P -1'
_symmetry_Int_Tables_number      2
_space_group_name_Hall           '-P 1'
loop_
_symmetry_equiv_pos_site_id
_symmetry_equiv_pos_as_xyz
1 x,y,z
2 -x,-y,-z
_cell_length_a                   5.7627(18)
_cell_length_b                   7.182(2)
_cell_length_c                   7.509(2)
_cell_angle_alpha                74.042(3)
_cell_angle_beta                 84.766(4)
_cell_angle_gamma                88.162(4)
_cell_volume                     297.55
loop_
_atom_site_label
_atom_site_type_symbol
_atom_site_fract_x
_atom_site_fract_y
_atom_site_fract_z
N1 N 0.1834(4) 0.6810(4) -0.0925(4)
Cd1 Cd 0.5000 0.5000 0.0000
S1 S -0.26341(12) 0.83630(10) -0.06040(11)
O1 O 0.4153(3) 0.5065(3) 0.3083(3)
N2 N 0.2111(4) 0.5012(3) 0.4012(3)
C1 C -0.0010(5) 0.7449(4) -0.0791(4)
C2 C 0.0747(5) 0.6612(4) 0.3732(3)
H1 H 0.1272 0.7734 0.2850
C3 C 0.1380(5) 0.3353(4) 0.5304(3)
C4 C 0.2924(6) 0.1623(4) 0.5589(4)
H2 H 0.3244 0.1293 0.4436
H3 H 0.2167 0.0556 0.6498
H4 H 0.4358 0.1899 0.6019
N1A N 0.8166(4) 0.3190(4) 0.0925(4)
Cd1_2 Cd -0.5000 0.5000 0.0000
Cd1_3 Cd -0.5000 0.5000 1.0000
Cd1_4 Cd 1.5000 0.5000 0.0000
S1A S 1.26341(12) 0.16370(10) 0.06040(11)
S1_2 S 0.73659(12) 0.83630(10) -0.06040(11)
S1A_2 S 0.26341(12) 0.16370(10) 0.06040(11)
O1A O -0.4153(3) 0.4935(3) 0.6917(3)
O1A_2 O 0.5847(3) 0.4935(3) -0.3083(3)
N2A N -0.2111(4) 0.4988(3) 0.5988(3)
C1A C 1.0010(5) 0.2551(4) 0.0791(4)
C2A C -0.0747(5) 0.3388(4) 0.6268(3)
H1A H -0.1272 0.2266 0.7150
C3A C -0.1380(5) 0.6647(4) 0.4696(3)
C4A C -0.2924(6) 0.8377(4) 0.4411(4)
H2A H -0.3244 0.8707 0.5564
H3A H -0.2167 0.9444 0.3502
H4A H -0.4358 0.8101 0.3981
loop_
_geom_bond_atom_site_label_1
_geom_bond_atom_site_label_2
_geom_bond_site_symmetry_1
_geom_bond_site_symmetry_2
N1 Cd1 1_555 1_555
Cd1 O1 1_555 1_555
S1 C1 1_555 1_555
O1 N2 1_555 1_555
N2 C2 1_555 1_555
C1 N1 1_555 1_555
C2 H1 1_555 1_555
C3 N2 1_555 1_555
C4 C3 1_555 1_555
H2 C4 1_555 1_555
H3 C4 1_555 1_555
H4 C4 1_555 1_555
N1A Cd1 1_555 1_555
Cd1_2 S1 1_555 1_555
Cd1_3 O1A 1_555 1_555
Cd1_4 S1A 1_555 1_555
S1A C1A 1_555 1_555
S1_2 Cd1 1_555 1_555
S1A_2 Cd1 1_555 1_555
O1A N2A 1_555 1_555
O1A_2 Cd1 1_555 1_555
N2A C2A 1_555 1_555
C1A N1A 1_555 1_555
C2A C3 1_555 1_555
H1A C2A 1_555 1_555
C3A C2 1_555 1_555
C4A C3A 1_555 1_555
H2A C4A 1_555 1_555
H3A C4A 1_555 1_555
H4A C4A 1_555 1_555
N2A C3A 1_555 1_555

#END
