
#######################################################################
#
#                 Cambridge Crystallographic Data Centre
#                                CCDC 
#
#######################################################################
#
# If this CIF has been generated from an entry in the Cambridge 
# Structural Database, then it will include bibliographic, chemical, 
# crystal, experimental, refinement or atomic coordinate data resulting 
# from the CCDC's data processing and validation procedures.
#
#######################################################################

data_DIBQIQ
_symmetry_cell_setting           orthorhombic
_symmetry_space_group_name_H-M   'P n m a'
_symmetry_Int_Tables_number      62
_space_group_name_Hall           '-P 2ac 2n'
loop_
_symmetry_equiv_pos_site_id
_symmetry_equiv_pos_as_xyz
1 x,y,z
2 1/2-x,-y,1/2+z
3 -x,1/2+y,-z
4 1/2+x,1/2-y,1/2-z
5 -x,-y,-z
6 1/2+x,y,1/2-z
7 x,1/2-y,z
8 1/2-x,1/2+y,1/2+z
_cell_length_a                   17.446(4)
_cell_length_b                   27.758(6)
_cell_length_c                   18.762(4)
_cell_angle_alpha                90
_cell_angle_beta                 90
_cell_angle_gamma                90
_cell_volume                     9085.8
loop_
_atom_site_label
_atom_site_type_symbol
_atom_site_fract_x
_atom_site_fract_y
_atom_site_fract_z
Co1 Co 0.49344(3) 0.31713(2) 0.03322(4)
Co2 Co 0.38134(3) 0.2500 0.14526(5)
O1 O 0.4768(3) 0.2995(3) -0.0763(3)
O2 O 0.4745(2) 0.2500 0.0723(3)
O3 O 0.56047(17) 0.38127(16) -0.0041(3)
O4 O 0.61509(17) 0.31294(13) 0.0199(2)
O5 O 1.31656(14) 0.30131(11) 0.09230(19)
O6 O 1.39021(17) 0.34866(18) 0.0279(3)
O7 O 1.06916(16) 0.69600(10) -0.29303(18)
O8 O 0.9868(2) 0.65979(16) -0.3646(3)
C1 C 0.6189(2) 0.3553(2) 0.0008(3)
C2 C 0.6962(2) 0.37792(17) -0.0138(3)
C3 C 0.7606(3) 0.3497(2) -0.0125(4)
H1 H 0.7570 0.3172 -0.0007
C4 C 0.8314(3) 0.3698(2) -0.0290(4)
H2 H 0.8743 0.3500 -0.0296
C5 C 0.8401(2) 0.41721(17) -0.0440(3)
C6 C 0.7766(2) 0.4456(2) -0.0421(4)
H3 H 0.7811 0.4785 -0.0511
C7 C 0.7047(3) 0.4260(2) -0.0268(4)
H4 H 0.6620 0.4460 -0.0255
C8 C 1.3266(2) 0.33492(18) 0.0514(3)
C9 C 1.2579(2) 0.36442(17) 0.0282(3)
C10 C 1.2621(2) 0.3976(2) -0.0247(4)
H5 H 1.3096 0.4048 -0.0446
C11 C 1.1973(3) 0.4210(2) -0.0498(4)
H6 H 1.2014 0.4418 -0.0884
C12 C 1.1268(2) 0.41379(18) -0.0182(3)
C13 C 1.1238(2) 0.38317(18) 0.0404(3)
H7 H 1.0781 0.3796 0.0653
C14 C 1.1877(2) 0.35818(17) 0.0619(3)
H8 H 1.1839 0.3367 0.0997
C15 C 1.0247(2) 0.66265(17) -0.3083(3)
C16 C 1.0153(2) 0.62250(15) -0.2567(3)
C17 C 0.9612(2) 0.58520(17) -0.2700(3)
H9 H 0.9302 0.5867 -0.3102
C18 C 0.9547(2) 0.54744(18) -0.2244(3)
H10 H 0.9179 0.5240 -0.2335
C19 C 1.00069(19) 0.54276(17) -0.1651(3)
C20 C 1.0543(2) 0.57949(17) -0.1516(3)
H11 H 1.0864 0.5772 -0.1122
C21 C 1.0599(2) 0.61872(15) -0.1958(3)
H12 H 1.0942 0.6432 -0.1847
C22 C 0.9174(2) 0.43872(17) -0.0601(3)
C23 C 0.9832(2) 0.41688(17) -0.0348(3)
H13 H 0.9795 0.3881 -0.0096
C24 C 1.0564(2) 0.43786(18) -0.0469(3)
C25 C 1.0606(2) 0.47863(16) -0.0884(3)
H14 H 1.1083 0.4923 -0.0973
C26 C 0.9951(2) 0.50010(15) -0.1178(3)
C27 C 0.9239(2) 0.47932(16) -0.1023(3)
H15 H 0.8797 0.4932 -0.1209
O9 O 0.2936(3) 0.2500 0.2240(3)
N1 N 0.1605(7) 0.2500 0.2457(11)
C28 C 0.2258(5) 0.2500 0.2027(8)
H16 H 0.2181 0.2500 0.1537
C29 C 0.1764(15) 0.2500 0.3291(9)
C30 C 0.0832(11) 0.2500 0.1994(13)
Co1F Co 0.49344(3) 0.18287(2) 0.03322(4)
O1F O 0.4768(3) 0.2005(3) -0.0763(3)
O3F O 0.56047(17) 0.11873(16) -0.0041(3)
O4F O 0.61509(17) 0.18706(13) 0.0199(2)
O5F O 1.31656(14) 0.19869(11) 0.09230(19)
O6F O 1.39021(17) 0.15134(18) 0.0279(3)
O7F O 1.06916(16) -0.19600(10) -0.29303(18)
O8F O 0.9868(2) -0.15979(16) -0.3646(3)
C1F C 0.6189(2) 0.1447(2) 0.0008(3)
C2F C 0.6962(2) 0.12208(17) -0.0138(3)
C3F C 0.7606(3) 0.1503(2) -0.0125(4)
H1F H 0.7570 0.1828 -0.0007
C4F C 0.8314(3) 0.1302(2) -0.0290(4)
H2F H 0.8743 0.1500 -0.0296
C5F C 0.8401(2) 0.08279(17) -0.0440(3)
C6F C 0.7766(2) 0.0544(2) -0.0421(4)
H3F H 0.7811 0.0215 -0.0511
C7F C 0.7047(3) 0.0740(2) -0.0268(4)
H4F H 0.6620 0.0540 -0.0255
C8F C 1.3266(2) 0.16508(18) 0.0514(3)
C9F C 1.2579(2) 0.13558(17) 0.0282(3)
C10F C 1.2621(2) 0.1024(2) -0.0247(4)
H5F H 1.3096 0.0952 -0.0446
C11F C 1.1973(3) 0.0790(2) -0.0498(4)
H6F H 1.2014 0.0582 -0.0884
C12F C 1.1268(2) 0.08621(18) -0.0182(3)
C13F C 1.1238(2) 0.11683(18) 0.0404(3)
H7F H 1.0781 0.1204 0.0653
C14F C 1.1877(2) 0.14182(17) 0.0619(3)
H8F H 1.1839 0.1633 0.0997
C15F C 1.0247(2) -0.16265(17) -0.3083(3)
C16F C 1.0153(2) -0.12250(15) -0.2567(3)
C17F C 0.9612(2) -0.08520(17) -0.2700(3)
H9F H 0.9302 -0.0867 -0.3102
C18F C 0.9547(2) -0.04744(18) -0.2244(3)
H10F H 0.9179 -0.0240 -0.2335
C19F C 1.00069(19) -0.04276(17) -0.1651(3)
C20F C 1.0543(2) -0.07949(17) -0.1516(3)
H11F H 1.0864 -0.0772 -0.1122
C21F C 1.0599(2) -0.11872(15) -0.1958(3)
H12F H 1.0942 -0.1432 -0.1847
C22F C 0.9174(2) 0.06128(17) -0.0601(3)
C23F C 0.9832(2) 0.08312(17) -0.0348(3)
H13F H 0.9795 0.1119 -0.0096
C24F C 1.0564(2) 0.06214(18) -0.0469(3)
C25F C 1.0606(2) 0.02137(16) -0.0884(3)
H14F H 1.1083 0.0077 -0.0973
C26F C 0.9951(2) -0.00010(15) -0.1178(3)
C27F C 0.9239(2) 0.02068(16) -0.1023(3)
H15F H 0.8797 0.0068 -0.1209
Co1_2 Co 1.49344(3) 0.31713(2) 0.03322(4)
Co1A Co 1.00656(3) 0.68287(2) -0.46678(4)
Co1F_2 Co 1.49344(3) 0.18287(2) 0.03322(4)
Co1G Co 1.00656(3) -0.18287(2) -0.46678(4)
Co2_2 Co 1.38134(3) 0.2500 0.14526(5)
Co2A Co 1.11866(3) -0.2500 -0.35474(5)
Co2A_2 Co 1.11866(3) 0.7500 -0.35474(5)
O5_2 O 0.31656(14) 0.30131(11) 0.09230(19)
O5F_2 O 0.31656(14) 0.19869(11) 0.09230(19)
O6_2 O 0.39021(17) 0.34866(18) 0.0279(3)
O6F_2 O 0.39021(17) 0.15134(18) 0.0279(3)
O7A O 0.43084(16) 0.30400(10) 0.20697(18)
O7G O 0.43084(16) 0.19600(10) 0.20697(18)
O8A O 0.5132(2) 0.34021(16) 0.1354(3)
O8G O 0.5132(2) 0.15979(16) 0.1354(3)
loop_
_geom_bond_atom_site_label_1
_geom_bond_atom_site_label_2
_geom_bond_site_symmetry_1
_geom_bond_site_symmetry_2
Co1 O1 1_555 1_555
Co2 O2 1_555 1_555
O2 Co1 1_555 1_555
O3 Co1 1_555 1_555
O4 Co1 1_555 1_555
O5 C8 1_555 1_555
O6 C8 1_555 1_555
O7 C15 1_555 1_555
O8 C15 1_555 1_555
C1 O3 1_555 1_555
C2 C1 1_555 1_555
C3 C2 1_555 1_555
H1 C3 1_555 1_555
C4 C3 1_555 1_555
H2 C4 1_555 1_555
C5 C4 1_555 1_555
C6 C5 1_555 1_555
H3 C6 1_555 1_555
C7 C2 1_555 1_555
H4 C7 1_555 1_555
C8 C9 1_555 1_555
C9 C10 1_555 1_555
C10 H5 1_555 1_555
C11 C10 1_555 1_555
H6 C11 1_555 1_555
C12 C11 1_555 1_555
C13 C12 1_555 1_555
H7 C13 1_555 1_555
C14 C9 1_555 1_555
H8 C14 1_555 1_555
C15 C16 1_555 1_555
C16 C17 1_555 1_555
C17 H9 1_555 1_555
C18 C17 1_555 1_555
H10 C18 1_555 1_555
C19 C18 1_555 1_555
C20 C19 1_555 1_555
H11 C20 1_555 1_555
C21 C16 1_555 1_555
H12 C21 1_555 1_555
C22 C5 1_555 1_555
C23 C22 1_555 1_555
H13 C23 1_555 1_555
C24 C12 1_555 1_555
C25 C24 1_555 1_555
H14 C25 1_555 1_555
C26 C19 1_555 1_555
C27 C22 1_555 1_555
H15 C27 1_555 1_555
O9 Co2 1_555 1_555
N1 C28 1_555 1_555
C28 O9 1_555 1_555
H16 C28 1_555 1_555
C29 N1 1_555 1_555
C30 N1 1_555 1_555
Co1F O2 1_555 1_555
O1F Co1F 1_555 1_555
O3F Co1F 1_555 1_555
O4F Co1F 1_555 1_555
O5F C8F 1_555 1_555
O6F C8F 1_555 1_555
O7F C15F 1_555 1_555
O8F C15F 1_555 1_555
C1F O3F 1_555 1_555
C2F C1F 1_555 1_555
C3F C2F 1_555 1_555
H1F C3F 1_555 1_555
C4F C3F 1_555 1_555
H2F C4F 1_555 1_555
C5F C4F 1_555 1_555
C6F C5F 1_555 1_555
H3F C6F 1_555 1_555
C7F C2F 1_555 1_555
H4F C7F 1_555 1_555
C8F C9F 1_555 1_555
C9F C10F 1_555 1_555
C10F H5F 1_555 1_555
C11F C10F 1_555 1_555
H6F C11F 1_555 1_555
C12F C11F 1_555 1_555
C13F C12F 1_555 1_555
H7F C13F 1_555 1_555
C14F C9F 1_555 1_555
H8F C14F 1_555 1_555
C15F C16F 1_555 1_555
C16F C17F 1_555 1_555
C17F H9F 1_555 1_555
C18F C17F 1_555 1_555
H10F C18F 1_555 1_555
C19F C18F 1_555 1_555
C20F C19F 1_555 1_555
H11F C20F 1_555 1_555
C21F C16F 1_555 1_555
H12F C21F 1_555 1_555
C22F C5F 1_555 1_555
C23F C22F 1_555 1_555
H13F C23F 1_555 1_555
C24F C12F 1_555 1_555
C25F C24F 1_555 1_555
H14F C25F 1_555 1_555
C26F C19F 1_555 1_555
C27F C22F 1_555 1_555
H15F C27F 1_555 1_555
Co1_2 O6 1_555 1_555
Co1A O8 1_555 1_555
Co1F_2 O6F 1_555 1_555
Co1G O8F 1_555 1_555
Co2_2 O5 1_555 1_555
Co2A O7F 1_555 1_555
Co2A_2 O7 1_555 1_555
O5_2 Co2 1_555 1_555
O5F_2 Co2 1_555 1_555
O6_2 Co1 1_555 1_555
O6F_2 Co1F 1_555 1_555
O7A Co2 1_555 1_555
O7G Co2 1_555 1_555
O8A Co1 1_555 1_555
O8G Co1F 1_555 1_555
O4 C1 1_555 1_555
C6 C7 1_555 1_555
C13 C14 1_555 1_555
C20 C21 1_555 1_555
C23 C24 1_555 1_555
C25 C26 1_555 1_555
C26 C27 1_555 1_555
O4F C1F 1_555 1_555
O5F Co2_2 1_555 1_555
C6F C7F 1_555 1_555
C13F C14F 1_555 1_555
C20F C21F 1_555 1_555
C23F C24F 1_555 1_555
C25F C26F 1_555 1_555
C26F C27F 1_555 1_555

#END
