
#######################################################################
#
#                 Cambridge Crystallographic Data Centre
#                                CCDC 
#
#######################################################################
#
# If this CIF has been generated from an entry in the Cambridge 
# Structural Database, then it will include bibliographic, chemical, 
# crystal, experimental, refinement or atomic coordinate data resulting 
# from the CCDC's data processing and validation procedures.
#
#######################################################################

data_DIBQOW
_symmetry_cell_setting           orthorhombic
_symmetry_space_group_name_H-M   'P n m a'
_symmetry_Int_Tables_number      62
_space_group_name_Hall           '-P 2ac 2n'
loop_
_symmetry_equiv_pos_site_id
_symmetry_equiv_pos_as_xyz
1 x,y,z
2 1/2-x,-y,1/2+z
3 -x,1/2+y,-z
4 1/2+x,1/2-y,1/2-z
5 -x,-y,-z
6 1/2+x,y,1/2-z
7 x,1/2-y,z
8 1/2-x,1/2+y,1/2+z
_cell_length_a                   17.5608(10)
_cell_length_b                   25.3474(17)
_cell_length_c                   20.8804(19)
_cell_angle_alpha                90
_cell_angle_beta                 90
_cell_angle_gamma                90
_cell_volume                     9294.3
loop_
_atom_site_label
_atom_site_type_symbol
_atom_site_fract_x
_atom_site_fract_y
_atom_site_fract_z
Co1 Co 1.50386(5) 0.68221(4) 0.06493(6)
Co2 Co 1.61315(6) 0.7500 0.16463(5)
O1 O 1.5133(6) 0.7500 -0.0110(8)
O2 O 1.7044(3) 0.7500 0.2313(3)
O3 O 1.5179(3) 0.7500 0.1057(3)
O4 O 1.4344(4) 0.6239(4) 0.0165(4)
O5 O 1.3802(4) 0.6864(3) 0.0671(4)
O6 O 0.6737(2) 0.69374(18) 0.1156(2)
O7 O 0.6061(3) 0.6607(3) 0.0348(3)
O8 O 0.9367(3) 0.30858(15) -0.2810(2)
O9 O 0.9999(3) 0.3579(2) -0.3502(3)
C1 C 1.3856(7) 0.6548(6) 0.0285(5)
C2 C 1.2986(5) 0.6267(5) 0.0123(6)
C3 C 1.2375(6) 0.6571(5) 0.0149(7)
H1 H 1.2437 0.6915 0.0296
C4 C 1.1656(5) 0.6415(4) -0.0026(6)
H2 H 1.1242 0.6642 0.0009
C5 C 1.1574(4) 0.5936(4) -0.0244(4)
C6 C 1.2200(5) 0.5600(5) -0.0270(6)
H3 H 1.2142 0.5259 -0.0429
C7 C 1.2900(5) 0.5766(7) -0.0064(6)
H4 H 1.3310 0.5534 -0.0055
C8 C 0.6672(4) 0.6696(3) 0.0686(3)
C9 C 0.7386(4) 0.6419(3) 0.0395(4)
C10 C 0.7378(4) 0.6184(3) -0.0180(4)
H5 H 0.6929 0.6166 -0.0415
C11 C 0.8043(4) 0.5968(3) -0.0422(4)
H6 H 0.8041 0.5821 -0.0830
C12 C 0.8715(3) 0.5966(3) -0.0065(4)
C13 C 0.8712(4) 0.6211(3) 0.0499(4)
H7 H 0.9157 0.6224 0.0740
C14 C 0.8061(4) 0.6447(3) 0.0735(4)
H8 H 0.8076 0.6625 0.1124
C15 C 0.9740(4) 0.3480(3) -0.2947(4)
C16 C 0.9845(4) 0.3888(3) -0.2459(3)
C17 C 1.0373(5) 0.4298(3) -0.2526(5)
H9 H 1.0685 0.4305 -0.2887
C18 C 1.0443(4) 0.4675(3) -0.2092(5)
H10 H 1.0796 0.4943 -0.2160
C19 C 0.9988(3) 0.4683(3) -0.1521(4)
C20 C 0.9450(4) 0.4295(3) -0.1451(4)
H11 H 0.9120 0.4299 -0.1103
C21 C 0.9400(4) 0.3889(3) -0.1914(4)
H12 H 0.9057 0.3615 -0.1849
C22 C 1.0787(4) 0.5730(3) -0.0449(4)
C23 C 1.0140(4) 0.5931(3) -0.0205(4)
H13 H 1.0171 0.6209 0.0085
C24 C 0.9438(3) 0.5740(3) -0.0368(4)
C25 C 0.9386(3) 0.5324(3) -0.0788(4)
H14 H 0.8911 0.5189 -0.0897
C26 C 1.0040(3) 0.5105(3) -0.1050(4)
C27 C 1.0749(4) 0.5330(3) -0.0881(4)
H15 H 1.1194 0.5202 -0.1066
Co1F Co 1.50386(5) 0.81779(4) 0.06493(6)
O4F O 1.4344(4) 0.8761(4) 0.0165(4)
O5F O 1.3802(4) 0.8136(3) 0.0671(4)
O6F O 0.6737(2) 0.80626(18) 0.1156(2)
O7F O 0.6061(3) 0.8393(3) 0.0348(3)
O8F O 0.9367(3) 1.19142(15) -0.2810(2)
O9F O 0.9999(3) 1.1421(2) -0.3502(3)
C1F C 1.3856(7) 0.8452(6) 0.0285(5)
C2F C 1.2986(5) 0.8733(5) 0.0123(6)
C3F C 1.2375(6) 0.8429(5) 0.0149(7)
H1F H 1.2437 0.8085 0.0296
C4F C 1.1656(5) 0.8585(4) -0.0026(6)
H2F H 1.1242 0.8358 0.0009
C5F C 1.1574(4) 0.9064(4) -0.0244(4)
C6F C 1.2200(5) 0.9400(5) -0.0270(6)
H3F H 1.2142 0.9741 -0.0429
C7F C 1.2900(5) 0.9234(7) -0.0064(6)
H4F H 1.3310 0.9466 -0.0055
C8F C 0.6672(4) 0.8304(3) 0.0686(3)
C9F C 0.7386(4) 0.8581(3) 0.0395(4)
C10F C 0.7378(4) 0.8816(3) -0.0180(4)
H5F H 0.6929 0.8834 -0.0415
C11F C 0.8043(4) 0.9032(3) -0.0422(4)
H6F H 0.8041 0.9179 -0.0830
C12F C 0.8715(3) 0.9034(3) -0.0065(4)
C13F C 0.8712(4) 0.8789(3) 0.0499(4)
H7F H 0.9157 0.8776 0.0740
C14F C 0.8061(4) 0.8553(3) 0.0735(4)
H8F H 0.8076 0.8375 0.1124
C15F C 0.9740(4) 1.1520(3) -0.2947(4)
C16F C 0.9845(4) 1.1112(3) -0.2459(3)
C17F C 1.0373(5) 1.0702(3) -0.2526(5)
H9F H 1.0685 1.0695 -0.2887
C18F C 1.0443(4) 1.0325(3) -0.2092(5)
H10F H 1.0796 1.0057 -0.2160
C19F C 0.9988(3) 1.0317(3) -0.1521(4)
C20F C 0.9450(4) 1.0705(3) -0.1451(4)
H11F H 0.9120 1.0701 -0.1103
C21F C 0.9400(4) 1.1111(3) -0.1914(4)
H12F H 0.9057 1.1385 -0.1849
C22F C 1.0787(4) 0.9270(3) -0.0449(4)
C23F C 1.0140(4) 0.9069(3) -0.0205(4)
H13F H 1.0171 0.8791 0.0085
C24F C 0.9438(3) 0.9260(3) -0.0368(4)
C25F C 0.9386(3) 0.9676(3) -0.0788(4)
H14F H 0.8911 0.9811 -0.0897
C26F C 1.0040(3) 0.9895(3) -0.1050(4)
C27F C 1.0749(4) 0.9670(3) -0.0881(4)
H15F H 1.1194 0.9798 -0.1066
Co1_2 Co 0.50386(5) 0.68221(4) 0.06493(6)
Co1A Co 0.99614(5) 0.31779(4) -0.43507(6)
Co1F_2 Co 0.50386(5) 0.81779(4) 0.06493(6)
Co1G Co 0.99614(5) 1.18221(4) -0.43507(6)
Co2_2 Co 0.61315(6) 0.7500 0.16463(5)
Co2A Co 0.88685(6) 0.2500 -0.33537(5)
Co2A_2 Co 0.88685(6) 1.2500 -0.33537(5)
O6_2 O 1.6737(2) 0.69374(18) 0.1156(2)
O6F_2 O 1.6737(2) 0.80626(18) 0.1156(2)
O7_2 O 1.6061(3) 0.6607(3) 0.0348(3)
O7F_2 O 1.6061(3) 0.8393(3) 0.0348(3)
O8A O 1.5633(3) 0.69142(15) 0.2190(2)
O8G O 1.5633(3) 0.80858(15) 0.2190(2)
O9A O 1.5001(3) 0.6421(2) 0.1498(3)
O9G O 1.5001(3) 0.8579(2) 0.1498(3)
loop_
_geom_bond_atom_site_label_1
_geom_bond_atom_site_label_2
_geom_bond_site_symmetry_1
_geom_bond_site_symmetry_2
Co1 O1 1_555 1_555
Co2 O2 1_555 1_555
O1 Co1F 1_555 1_555
O3 Co1 1_555 1_555
O4 Co1 1_555 1_555
O5 Co1 1_555 1_555
O6 C8 1_555 1_555
O7 C8 1_555 1_555
O8 C15 1_555 1_555
O9 C15 1_555 1_555
C1 O4 1_555 1_555
C2 C1 1_555 1_555
C3 C2 1_555 1_555
H1 C3 1_555 1_555
C4 C3 1_555 1_555
H2 C4 1_555 1_555
C5 C4 1_555 1_555
C6 C5 1_555 1_555
H3 C6 1_555 1_555
C7 C2 1_555 1_555
H4 C7 1_555 1_555
C8 C9 1_555 1_555
C9 C10 1_555 1_555
C10 H5 1_555 1_555
C11 C10 1_555 1_555
H6 C11 1_555 1_555
C12 C11 1_555 1_555
C13 C12 1_555 1_555
H7 C13 1_555 1_555
C14 C9 1_555 1_555
H8 C14 1_555 1_555
C15 C16 1_555 1_555
C16 C17 1_555 1_555
C17 H9 1_555 1_555
C18 C17 1_555 1_555
H10 C18 1_555 1_555
C19 C18 1_555 1_555
C20 C19 1_555 1_555
H11 C20 1_555 1_555
C21 C16 1_555 1_555
H12 C21 1_555 1_555
C22 C5 1_555 1_555
C23 C22 1_555 1_555
H13 C23 1_555 1_555
C24 C12 1_555 1_555
C25 C24 1_555 1_555
H14 C25 1_555 1_555
C26 C19 1_555 1_555
C27 C22 1_555 1_555
H15 C27 1_555 1_555
Co1F O3 1_555 1_555
O4F Co1F 1_555 1_555
O5F Co1F 1_555 1_555
O6F C8F 1_555 1_555
O7F C8F 1_555 1_555
O8F C15F 1_555 1_555
O9F C15F 1_555 1_555
C1F O4F 1_555 1_555
C2F C1F 1_555 1_555
C3F C2F 1_555 1_555
H1F C3F 1_555 1_555
C4F C3F 1_555 1_555
H2F C4F 1_555 1_555
C5F C4F 1_555 1_555
C6F C5F 1_555 1_555
H3F C6F 1_555 1_555
C7F C2F 1_555 1_555
H4F C7F 1_555 1_555
C8F C9F 1_555 1_555
C9F C10F 1_555 1_555
C10F H5F 1_555 1_555
C11F C10F 1_555 1_555
H6F C11F 1_555 1_555
C12F C11F 1_555 1_555
C13F C12F 1_555 1_555
H7F C13F 1_555 1_555
C14F C9F 1_555 1_555
H8F C14F 1_555 1_555
C15F C16F 1_555 1_555
C16F C17F 1_555 1_555
C17F H9F 1_555 1_555
C18F C17F 1_555 1_555
H10F C18F 1_555 1_555
C19F C18F 1_555 1_555
C20F C19F 1_555 1_555
H11F C20F 1_555 1_555
C21F C16F 1_555 1_555
H12F C21F 1_555 1_555
C22F C5F 1_555 1_555
C23F C22F 1_555 1_555
H13F C23F 1_555 1_555
C24F C12F 1_555 1_555
C25F C24F 1_555 1_555
H14F C25F 1_555 1_555
C26F C19F 1_555 1_555
C27F C22F 1_555 1_555
H15F C27F 1_555 1_555
Co1_2 O7 1_555 1_555
Co1A O9 1_555 1_555
Co1F_2 O7F 1_555 1_555
Co1G O9F 1_555 1_555
Co2_2 O6 1_555 1_555
Co2A O8 1_555 1_555
Co2A_2 O8F 1_555 1_555
O6_2 Co2 1_555 1_555
O6F_2 Co2 1_555 1_555
O7_2 Co1 1_555 1_555
O7F_2 Co1F 1_555 1_555
O8A Co2 1_555 1_555
O8G Co2 1_555 1_555
O9A Co1 1_555 1_555
O9G Co1F 1_555 1_555
Co2 O3 1_555 1_555
O5 C1 1_555 1_555
C6 C7 1_555 1_555
C13 C14 1_555 1_555
C20 C21 1_555 1_555
C23 C24 1_555 1_555
C25 C26 1_555 1_555
C26 C27 1_555 1_555
O5F C1F 1_555 1_555
O6F Co2_2 1_555 1_555
C6F C7F 1_555 1_555
C13F C14F 1_555 1_555
C20F C21F 1_555 1_555
C23F C24F 1_555 1_555
C25F C26F 1_555 1_555
C26F C27F 1_555 1_555

#END
