
#######################################################################
#
#                 Cambridge Crystallographic Data Centre
#                                CCDC 
#
#######################################################################
#
# If this CIF has been generated from an entry in the Cambridge 
# Structural Database, then it will include bibliographic, chemical, 
# crystal, experimental, refinement or atomic coordinate data resulting 
# from the CCDC's data processing and validation procedures.
#
#######################################################################

data_DICVES
_symmetry_cell_setting           monoclinic
_symmetry_space_group_name_H-M   'P 21/c'
_symmetry_Int_Tables_number      14
_space_group_name_Hall           '-P 2ybc'
loop_
_symmetry_equiv_pos_site_id
_symmetry_equiv_pos_as_xyz
1 x,y,z
2 -x,1/2+y,1/2-z
3 -x,-y,-z
4 x,1/2-y,1/2+z
_cell_length_a                   16.5758(13)
_cell_length_b                   26.692(2)
_cell_length_c                   8.2402(6)
_cell_angle_alpha                90
_cell_angle_beta                 100.8480(10)
_cell_angle_gamma                90
_cell_volume                     3580.65
loop_
_atom_site_label
_atom_site_type_symbol
_atom_site_fract_x
_atom_site_fract_y
_atom_site_fract_z
C1 C 0.4938(3) 0.20227(19) 0.6037(7)
H1 H 0.495(3) 0.2192(19) 0.499(7)
C2 C 0.5693(3) 0.2185(2) 0.7278(8)
H2 H 0.5684 0.2546 0.7417
H3 H 0.5682 0.2031 0.8341
C3 C 0.6473(3) 0.20346(18) 0.6701(8)
H4 H 0.6521 0.2225 0.5721
H5 H 0.6943 0.2114 0.7555
C4 C 0.5763(3) 0.1321(2) 0.5152(8)
H6 H 0.5795 0.0960 0.5036
H7 H 0.5757 0.1471 0.4078
C5 C 0.4976(3) 0.14585(19) 0.5757(8)
H8 H 0.4959 0.1283 0.6782
H9 H 0.4504 0.1355 0.4945
C6 C 0.7172(3) 0.12200(19) 0.6758(7)
C7 C 0.8452(3) 0.11275(18) 0.8237(7)
C8 C 0.7876(3) 0.05077(17) 0.6591(7)
C9 C 0.4145(3) 0.21644(18) 0.6605(7)
C10 C 0.9123(3) 0.18219(19) 0.9942(8)
H10 H 0.9219 0.1813 1.1140
H11 H 0.8593 0.1979 0.9558
C11 C 0.9791(3) 0.21309(19) 0.9381(8)
H12 H 0.9822 0.2458 0.9904
H13 H 0.9655 0.2179 0.8195
C12 C 1.0623(3) 0.1867(2) 0.9835(7)
H14 H 1.077(3) 0.1851(18) 1.104(7)
C13 C 1.0561(3) 0.13311(18) 0.9171(8)
H15 H 1.0460 0.1338 0.7973
H16 H 1.1077 0.1159 0.9549
C14 C 0.9875(3) 0.10487(19) 0.9748(8)
H17 H 0.9822 0.0718 0.9248
H18 H 1.0008 0.1007 1.0938
C15 C 0.8714(3) -0.02143(19) 0.6107(8)
H19 H 0.9063 -0.0109 0.7130
H20 H 0.8984 -0.0123 0.5202
C16 C 0.8602(3) -0.07759(18) 0.6126(7)
H21 H 0.8388 -0.0871 0.7099
H22 H 0.9130 -0.0939 0.6183
C17 C 0.7192(3) -0.06796(18) 0.4486(8)
H23 H 0.6818 -0.0781 0.3490
H24 H 0.6951 -0.0772 0.5428
C18 C 0.7314(3) -0.01126(19) 0.4469(8)
H25 H 0.7499 -0.0016 0.3466
H26 H 0.6795 0.0054 0.4482
C19 C 0.7844(3) -0.15147(19) 0.4529(7)
C20 C 1.1290(3) 0.21438(17) 0.9207(7)
C21 C 0.8015(3) -0.09500(18) 0.4586(7)
H27 H 0.825(3) -0.0858(19) 0.361(7)
N1 N 0.6480(3) 0.14997(16) 0.6327(6)
N2 N 0.7797(2) 0.14313(15) 0.7817(6)
N3 N 0.7172(3) 0.07662(15) 0.6090(6)
N4 N 0.8525(3) 0.06613(15) 0.7685(6)
N5 N 0.9107(3) 0.13139(15) 0.9307(6)
N6 N 0.7922(3) 0.00436(15) 0.5916(7)
O1 O 0.3544(2) 0.23341(13) 0.5572(4)
O2 O 0.4088(2) 0.21247(15) 0.8092(5)
O3 O 1.2016(2) 0.21528(12) 1.0122(4)
O4 O 0.3452(2) 0.33451(13) 0.7266(5)
O5 O 0.7917(2) -0.17494(12) 0.5859(5)
O6 O 1.1165(2) 0.23405(14) 0.7817(5)
O7 O 0.7611(2) -0.16997(13) 0.3096(5)
Pr1 Pr 0.268025(16) 0.256155(9) 0.78487(3)
O1C O 0.3544(2) 0.26659(13) 1.0572(4)
O3_2 O 0.2016(2) 0.21528(12) 1.0122(4)
O3C O 0.2016(2) 0.28472(12) 0.5122(4)
O5A O 0.2083(2) 0.32506(12) 0.9141(5)
O6_2 O 0.1165(2) 0.23405(14) 0.7817(5)
O7B O 0.2389(2) 0.16997(13) 0.6904(5)
Pr1_2 Pr 1.268025(16) 0.256155(9) 0.78487(3)
Pr1A Pr 0.731975(16) -0.243845(9) 0.71513(3)
Pr1B Pr 0.731975(16) -0.256155(9) 0.21513(3)
Pr1C Pr 0.268025(16) 0.243845(9) 0.28487(3)
Pr1C_2 Pr 1.268025(16) 0.243845(9) 1.28487(3)
C22 C 0.2197(15) 0.6797(8) 0.188(3)
H28 H 0.1940 0.7019 0.1025
H29 H 0.2748 0.6727 0.1746
H30 H 0.2209 0.6951 0.2940
C23 C 0.1731(15) 0.5999(6) 0.232(3)
H31 H 0.2203 0.5946 0.3115
C24 C 0.0973(16) 0.6458(8) 0.048(2)
H32 H 0.0827 0.6150 -0.0106
H33 H 0.1063 0.6713 -0.0293
H34 H 0.0535 0.6559 0.1018
N7 N 0.1782(9) 0.6380(4) 0.1803(16)
O8 O 0.1321(8) 0.5632(3) 0.2285(13)
O9 O 0.4852(3) 0.33423(17) 0.5977(6)
O10 O 0.2744(3) 0.39955(17) 0.4750(6)
O11 O 0.1619(4) 0.4863(2) 0.4581(8)
C25 C 0.5979(14) 0.5203(6) 0.273(2)
H35 H 0.6517 0.5272 0.3353
H36 H 0.5637 0.5493 0.2731
H37 H 0.6018 0.5120 0.1615
C26 C 0.4786(9) 0.4658(8) 0.327(3)
H38 H 0.4740 0.4300 0.3348
H39 H 0.4498 0.4768 0.2209
H40 H 0.4551 0.4814 0.4122
C27 C 0.6317(16) 0.4633(10) 0.446(2)
H41 H 0.6871 0.4718 0.4676
N8 N 0.5630(6) 0.4793(3) 0.3462(12)
O12 O 0.5691(9) 0.4190(4) 0.5169(15)
loop_
_geom_bond_atom_site_label_1
_geom_bond_atom_site_label_2
_geom_bond_site_symmetry_1
_geom_bond_site_symmetry_2
C1 H1 1_555 1_555
C2 C1 1_555 1_555
H2 C2 1_555 1_555
H3 C2 1_555 1_555
C3 C2 1_555 1_555
H4 C3 1_555 1_555
H5 C3 1_555 1_555
C4 H6 1_555 1_555
H7 C4 1_555 1_555
C5 C1 1_555 1_555
H8 C5 1_555 1_555
H9 C5 1_555 1_555
C6 N1 1_555 1_555
C7 N2 1_555 1_555
C8 N3 1_555 1_555
C9 C1 1_555 1_555
C10 H10 1_555 1_555
H11 C10 1_555 1_555
C11 C10 1_555 1_555
H12 C11 1_555 1_555
H13 C11 1_555 1_555
C12 C11 1_555 1_555
H14 C12 1_555 1_555
C13 C12 1_555 1_555
H15 C13 1_555 1_555
H16 C13 1_555 1_555
C14 C13 1_555 1_555
H17 C14 1_555 1_555
H18 C14 1_555 1_555
C15 H19 1_555 1_555
H20 C15 1_555 1_555
C16 C15 1_555 1_555
H21 C16 1_555 1_555
H22 C16 1_555 1_555
C17 H23 1_555 1_555
H24 C17 1_555 1_555
C18 C17 1_555 1_555
H25 C18 1_555 1_555
H26 C18 1_555 1_555
C19 C21 1_555 1_555
C20 C12 1_555 1_555
C21 C16 1_555 1_555
H27 C21 1_555 1_555
N1 C3 1_555 1_555
N2 C6 1_555 1_555
N3 C6 1_555 1_555
N4 C7 1_555 1_555
N5 C7 1_555 1_555
N6 C8 1_555 1_555
O1 C9 1_555 1_555
O2 C9 1_555 1_555
O3 C20 1_555 1_555
O4 Pr1 1_555 1_555
O5 C19 1_555 1_555
O6 C20 1_555 1_555
O7 C19 1_555 1_555
Pr1 O1 1_555 1_555
C22 H28 1_555 1_555
H29 C22 1_555 1_555
H30 C22 1_555 1_555
C23 H31 1_555 1_555
C24 H32 1_555 1_555
H33 C24 1_555 1_555
H34 C24 1_555 1_555
N7 C22 1_555 1_555
O8 C23 1_555 1_555
C25 H35 1_555 1_555
H36 C25 1_555 1_555
H37 C25 1_555 1_555
C26 H38 1_555 1_555
H39 C26 1_555 1_555
H40 C26 1_555 1_555
C27 H41 1_555 1_555
N8 C25 1_555 1_555
O12 C27 1_555 1_555
O1C Pr1 1_555 1_555
O3_2 Pr1 1_555 1_555
O3C Pr1 1_555 1_555
O5A Pr1 1_555 1_555
O6_2 Pr1 1_555 1_555
O7B Pr1 1_555 1_555
Pr1_2 O3 1_555 1_555
Pr1A O5 1_555 1_555
Pr1B O7 1_555 1_555
Pr1C O1 1_555 1_555
Pr1C_2 O3 1_555 1_555
C4 C5 1_555 1_555
C4 N1 1_555 1_555
C8 N4 1_555 1_555
C10 N5 1_555 1_555
C14 N5 1_555 1_555
C15 N6 1_555 1_555
C17 C21 1_555 1_555
C18 N6 1_555 1_555
O2 Pr1 1_555 1_555
O6 Pr1_2 1_555 1_555
C23 N7 1_555 1_555
C24 N7 1_555 1_555
C26 N8 1_555 1_555
C27 N8 1_555 1_555
O3C Pr1C 1_555 1_555

#END
