
#######################################################################
#
#                 Cambridge Crystallographic Data Centre
#                                CCDC 
#
#######################################################################
#
# If this CIF has been generated from an entry in the Cambridge 
# Structural Database, then it will include bibliographic, chemical, 
# crystal, experimental, refinement or atomic coordinate data resulting 
# from the CCDC's data processing and validation procedures.
#
#######################################################################

data_DICVAO
_symmetry_cell_setting           monoclinic
_symmetry_space_group_name_H-M   'P 21/c'
_symmetry_Int_Tables_number      14
_space_group_name_Hall           '-P 2ybc'
loop_
_symmetry_equiv_pos_site_id
_symmetry_equiv_pos_as_xyz
1 x,y,z
2 -x,1/2+y,1/2-z
3 -x,-y,-z
4 x,1/2-y,1/2+z
_cell_length_a                   16.5888(7)
_cell_length_b                   26.7362(10)
_cell_length_c                   8.1881(3)
_cell_angle_alpha                90
_cell_angle_beta                 100.939(4)
_cell_angle_gamma                90
_cell_volume                     3565.61
loop_
_atom_site_label
_atom_site_type_symbol
_atom_site_fract_x
_atom_site_fract_y
_atom_site_fract_z
O8 O 0.0113(6) 0.3339(3) 0.4020(11)
O9 O 0.2220(7) 0.3984(3) 0.5220(11)
O10 O 0.3338(9) 0.4849(4) 0.5385(17)
C1 C 0.3694(6) 0.2149(3) 0.0778(11)
C2 C 1.0840(6) 0.2158(4) 0.3399(12)
C3 C 0.4356(6) 0.1874(3) 0.0183(12)
H1 H 0.421(6) 0.186(3) -0.103(11)
C4 C 0.5175(6) 0.2126(3) 0.0639(13)
H2 H 0.5311 0.2172 0.1836
H3 H 0.5148 0.2454 0.0123
C5 C 0.5846(7) 0.1816(4) 0.0071(14)
H4 H 0.5741 0.1800 -0.1134
H5 H 0.6374 0.1977 0.0436
C6 C 0.5103(6) 0.1050(4) 0.0286(15)
H6 H 0.5155 0.0721 0.0794
H7 H 0.4975 0.1007 -0.0911
C7 C 0.4415(6) 0.1334(3) 0.0852(13)
H8 H 0.4511 0.1340 0.2058
H9 H 0.3898 0.1163 0.0461
C8 C 0.6540(6) 0.1123(3) 0.1774(12)
C9 C 1.0079(7) 0.2014(4) 0.3900(13)
H10 H 1.007(6) 0.218(4) 0.497(13)
C10 C 1.0031(7) 0.1442(4) 0.4192(14)
H11 H 1.0040 0.1266 0.3159
H12 H 1.0507 0.1336 0.5000
C11 C 0.9237(7) 0.1304(4) 0.4831(16)
H13 H 0.9198 0.0944 0.4928
H14 H 0.9256 0.1449 0.5924
C12 C 0.7811(6) 0.1215(3) 0.3236(13)
C13 C 0.7171(6) -0.1523(4) 0.5504(14)
C14 C 0.8525(7) 0.2030(4) 0.3297(16)
H15 H 0.8486 0.2219 0.4292
H16 H 0.8050 0.2112 0.2452
C15 C 0.9302(6) 0.2186(4) 0.2688(13)
H17 H 0.9311 0.2547 0.2578
H18 H 0.9298 0.2042 0.1600
C16 C 0.7122(7) 0.0502(3) 0.3377(14)
C17 C 0.7008(7) -0.0954(3) 0.5418(13)
H19 H 0.678(6) -0.086(3) 0.639(12)
C18 C 0.6413(7) -0.0774(4) 0.3848(15)
H20 H 0.6633 -0.0860 0.2868
H21 H 0.5888 -0.0942 0.3771
C19 C 0.7824(7) -0.0681(4) 0.5493(16)
H22 H 0.8204 -0.0781 0.6491
H23 H 0.8060 -0.0776 0.4540
C20 C 0.7703(7) -0.0116(4) 0.5499(15)
H24 H 0.7534 -0.0016 0.6522
H25 H 0.8218 0.0050 0.5449
C21 C 0.6292(7) -0.0221(3) 0.3903(16)
H26 H 0.5933 -0.0112 0.2890
H27 H 0.6033 -0.0136 0.4835
N1 N 0.5870(5) 0.1316(3) 0.0744(12)
N2 N 0.7176(5) 0.1426(3) 0.2187(11)
N3 N 0.6472(5) 0.0665(3) 0.2321(10)
N4 N 0.8513(6) 0.1495(3) 0.3668(12)
N5 N 0.7825(5) 0.0761(3) 0.3891(11)
N6 N 0.7081(5) 0.0034(3) 0.4077(13)
Nd1 Nd 0.23036(3) 0.255902(16) 0.21489(6)
O1 O 0.3809(4) 0.2350(2) 0.2210(8)
O2 O 0.2954(4) 0.2155(2) -0.0127(7)
O3 O 1.0903(5) 0.2123(3) 0.1895(8)
O4 O 0.7088(4) -0.1755(2) 0.4128(9)
O5 O 1.1444(4) 0.2337(2) 0.4425(8)
O6 O 0.7400(5) -0.1708(2) 0.6910(8)
O7 O 0.1534(5) 0.3334(2) 0.2706(8)
Nd1_2 Nd 1.23036(3) 0.255902(16) 0.21489(6)
Nd1A Nd 0.76964(3) -0.244098(16) 0.28511(6)
Nd1B Nd 0.76964(3) -0.255902(16) 0.78511(6)
Nd1C Nd 0.23036(3) 0.244098(16) -0.28511(6)
Nd1C_2 Nd 1.23036(3) 0.244098(16) 0.71489(6)
O2C O 0.2954(4) 0.2845(2) 0.4873(7)
O3_2 O 0.0903(5) 0.2123(3) 0.1895(8)
O4A O 0.2912(4) 0.3245(2) 0.0872(9)
O5_2 O 0.1444(4) 0.2337(2) 0.4425(8)
O5C O 0.1444(4) 0.2663(2) -0.0575(8)
O6B O 0.2600(5) 0.1708(2) 0.3090(8)
loop_
_geom_bond_atom_site_label_1
_geom_bond_atom_site_label_2
_geom_bond_site_symmetry_1
_geom_bond_site_symmetry_2
C1 C3 1_555 1_555
C2 C9 1_555 1_555
C3 H1 1_555 1_555
C4 C3 1_555 1_555
H2 C4 1_555 1_555
H3 C4 1_555 1_555
C5 C4 1_555 1_555
H4 C5 1_555 1_555
H5 C5 1_555 1_555
C6 H6 1_555 1_555
H7 C6 1_555 1_555
C7 C3 1_555 1_555
H8 C7 1_555 1_555
H9 C7 1_555 1_555
C8 N1 1_555 1_555
C9 H10 1_555 1_555
C10 C9 1_555 1_555
H11 C10 1_555 1_555
H12 C10 1_555 1_555
C11 C10 1_555 1_555
H13 C11 1_555 1_555
H14 C11 1_555 1_555
C12 N2 1_555 1_555
C13 C17 1_555 1_555
C14 H15 1_555 1_555
H16 C14 1_555 1_555
C15 C9 1_555 1_555
H17 C15 1_555 1_555
H18 C15 1_555 1_555
C16 N3 1_555 1_555
C17 H19 1_555 1_555
C18 C17 1_555 1_555
H20 C18 1_555 1_555
H21 C18 1_555 1_555
C19 C17 1_555 1_555
H22 C19 1_555 1_555
H23 C19 1_555 1_555
C20 C19 1_555 1_555
H24 C20 1_555 1_555
H25 C20 1_555 1_555
C21 C18 1_555 1_555
H26 C21 1_555 1_555
H27 C21 1_555 1_555
N1 C5 1_555 1_555
N2 C8 1_555 1_555
N3 C8 1_555 1_555
N4 C11 1_555 1_555
N5 C12 1_555 1_555
N6 C16 1_555 1_555
Nd1 O1 1_555 1_555
O1 C1 1_555 1_555
O2 C1 1_555 1_555
O3 C2 1_555 1_555
O4 C13 1_555 1_555
O5 C2 1_555 1_555
O6 C13 1_555 1_555
O7 Nd1 1_555 1_555
Nd1_2 O3 1_555 1_555
Nd1A O4 1_555 1_555
Nd1B O6 1_555 1_555
Nd1C O2 1_555 1_555
Nd1C_2 O5 1_555 1_555
O2C Nd1 1_555 1_555
O3_2 Nd1 1_555 1_555
O4A Nd1 1_555 1_555
O5_2 Nd1 1_555 1_555
O5C Nd1 1_555 1_555
O6B Nd1 1_555 1_555
C6 C7 1_555 1_555
C6 N1 1_555 1_555
C12 N4 1_555 1_555
C14 C15 1_555 1_555
C14 N4 1_555 1_555
C16 N5 1_555 1_555
C20 N6 1_555 1_555
C21 N6 1_555 1_555
Nd1 O2 1_555 1_555
O5 Nd1_2 1_555 1_555
Nd1C O5C 1_555 1_555

#END
