
#######################################################################
#
#                 Cambridge Crystallographic Data Centre
#                                CCDC 
#
#######################################################################
#
# If this CIF has been generated from an entry in the Cambridge 
# Structural Database, then it will include bibliographic, chemical, 
# crystal, experimental, refinement or atomic coordinate data resulting 
# from the CCDC's data processing and validation procedures.
#
#######################################################################

data_DIMQEX
_symmetry_cell_setting           orthorhombic
_symmetry_space_group_name_H-M   'P b c n'
_symmetry_Int_Tables_number      60
_space_group_name_Hall           '-P 2n 2ab'
loop_
_symmetry_equiv_pos_site_id
_symmetry_equiv_pos_as_xyz
1 x,y,z
2 1/2-x,1/2-y,1/2+z
3 1/2+x,1/2-y,-z
4 -x,y,1/2-z
5 -x,-y,-z
6 1/2+x,1/2+y,1/2-z
7 1/2-x,1/2+y,z
8 x,-y,1/2+z
_cell_length_a                   16.4070(8)
_cell_length_b                   22.5138(15)
_cell_length_c                   30.5117(19)
_cell_angle_alpha                90
_cell_angle_beta                 90
_cell_angle_gamma                90
_cell_volume                     11270.5
loop_
_atom_site_label
_atom_site_type_symbol
_atom_site_fract_x
_atom_site_fract_y
_atom_site_fract_z
Zn1 Zn 0.06913(3) 0.53080(3) 0.218219(18)
F1 F 0.3564(4) 0.7633(3) 0.46429(15)
F2 F 0.3754(4) 0.7112(3) 0.4065(2)
F3 F 0.2780(4) 0.6885(3) 0.4483(2)
F4 F 0.1723(4) 0.7792(3) 0.46668(15)
F5 F 0.1481(4) 0.8387(3) 0.4151(2)
F6 F 0.2502(4) 0.8535(4) 0.4560(2)
N1 N 0.1619(2) 0.52867(18) 0.17380(13)
N2 N 0.3515(3) 0.5165(2) 0.08291(17)
O1 O 0.3597(3) 0.4162(3) 0.09747(19)
O2 O 0.3444(3) 0.6129(3) 0.06891(18)
O3 O 0.4977(2) 0.96791(19) 0.30952(15)
O4 O 0.3945(2) 0.96819(19) 0.26322(14)
O5 O 0.1138(2) 0.59295(18) 0.25906(13)
O6 O 0.0097(2) 0.59234(19) 0.30650(13)
C1 C 0.1522(4) 0.4982(3) 0.1368(2)
H1 H 0.1018 0.4787 0.1314
C2 C 0.2138(4) 0.4944(4) 0.1060(2)
H2 H 0.2053 0.4732 0.0795
C3 C 0.2876(3) 0.5216(3) 0.11403(18)
C4 C 0.2954(3) 0.5526(4) 0.1503(2)
H3 H 0.3458 0.5717 0.1565
C5 C 0.2307(3) 0.5580(4) 0.1801(2)
H4 H 0.2364 0.5829 0.2050
C6 C 0.3832(4) 0.4570(4) 0.0745(2)
C7 C 0.4437(4) 0.4523(4) 0.0398(2)
C8 C 0.4711(3) 0.5029(3) 0.0167(2)
C9 C 0.4388(4) 0.5599(3) 0.0261(2)
C10 C 0.3765(4) 0.5668(4) 0.0609(2)
C11 C 0.4745(4) 0.3968(4) 0.0292(3)
H5 H 0.4568 0.3627 0.0448
C12 C 0.4678(4) 0.6086(3) 0.0049(2)
H6 H 0.4489 0.6469 0.0131
C13 C 0.4295(3) 0.9512(2) 0.29646(19)
C14 C 0.3873(3) 0.9057(2) 0.32414(17)
C15 C 0.4239(3) 0.8832(3) 0.36195(19)
H7 H 0.4760 0.8973 0.3706
C16 C 0.3841(3) 0.8395(3) 0.3875(2)
H8 H 0.4102 0.8237 0.4127
C17 C 0.3077(3) 0.8200(3) 0.37582(19)
C18 C 0.2702(3) 0.8430(3) 0.3392(2)
H9 H 0.2171 0.8298 0.3315
C19 C 0.3097(3) 0.8865(3) 0.31256(18)
H10 H 0.2834 0.9020 0.2873
C20 C 0.0766(3) 0.6096(2) 0.29419(19)
C21 C 0.1236(3) 0.6531(2) 0.32186(17)
C22 C 0.0889(3) 0.6757(3) 0.35858(19)
H11 H 0.0353 0.6636 0.3662
C23 C 0.1292(4) 0.7162(3) 0.38549(19)
H12 H 0.1026 0.7325 0.4104
C24 C 0.2083(4) 0.7324(3) 0.37555(19)
C25 C 0.2442(3) 0.7086(3) 0.3378(2)
H13 H 0.2983 0.7195 0.3301
C26 C 0.2022(3) 0.6703(3) 0.31207(19)
H14 H 0.2276 0.6548 0.2866
C27 C 0.2610(4) 0.7749(3) 0.4037(2)
C28 C 0.3170(7) 0.7355(5) 0.4320(3)
C29 C 0.2036(6) 0.8109(5) 0.4347(3)
N1D N 0.8381(2) 0.47133(18) -0.17380(13)
N2D N 0.6485(3) 0.4835(2) -0.08291(17)
O1D O 0.6403(3) 0.5838(3) -0.09747(19)
O2D O 0.6556(3) 0.3871(3) -0.06891(18)
C1D C 0.8478(4) 0.5018(3) -0.1368(2)
H1D H 0.8982 0.5213 -0.1314
C2D C 0.7862(4) 0.5056(4) -0.1060(2)
H2D H 0.7947 0.5268 -0.0795
C3D C 0.7124(3) 0.4784(3) -0.11403(18)
C4D C 0.7046(3) 0.4474(4) -0.1503(2)
H3D H 0.6542 0.4283 -0.1565
C5D C 0.7693(3) 0.4420(4) -0.1801(2)
H4D H 0.7636 0.4171 -0.2050
C6D C 0.6168(4) 0.5430(4) -0.0745(2)
C7D C 0.5563(4) 0.5477(4) -0.0398(2)
C8D C 0.5289(3) 0.4971(3) -0.0167(2)
C9D C 0.5612(4) 0.4401(3) -0.0261(2)
C10D C 0.6235(4) 0.4332(4) -0.0609(2)
C11D C 0.5255(4) 0.6032(4) -0.0292(3)
H5D H 0.5432 0.6373 -0.0448
C12D C 0.5322(4) 0.3914(3) -0.0049(2)
H6D H 0.5511 0.3531 -0.0131
Zn1C Zn -0.06913(3) 0.53080(3) 0.281781(18)
F1C F -0.3564(4) 0.7633(3) 0.03571(15)
F2C F -0.3754(4) 0.7112(3) 0.0935(2)
F3C F -0.2780(4) 0.6885(3) 0.0517(2)
F4C F -0.1723(4) 0.7792(3) 0.03332(15)
F5C F -0.1481(4) 0.8387(3) 0.0849(2)
F6C F -0.2502(4) 0.8535(4) 0.0440(2)
O3C O -0.4977(2) 0.96791(19) 0.19048(15)
O4C O -0.3945(2) 0.96819(19) 0.23678(14)
O5C O -0.1138(2) 0.59295(18) 0.24094(13)
O6C O -0.0097(2) 0.59234(19) 0.19350(13)
C13C C -0.4295(3) 0.9512(2) 0.20354(19)
C14C C -0.3873(3) 0.9057(2) 0.17586(17)
C15C C -0.4239(3) 0.8832(3) 0.13805(19)
H7C H -0.4760 0.8973 0.1294
C16C C -0.3841(3) 0.8395(3) 0.1125(2)
H8C H -0.4102 0.8237 0.0873
C17C C -0.3077(3) 0.8200(3) 0.12418(19)
C18C C -0.2702(3) 0.8430(3) 0.1608(2)
H9C H -0.2171 0.8298 0.1685
C19C C -0.3097(3) 0.8865(3) 0.18744(18)
H10C H -0.2834 0.9020 0.2127
C20C C -0.0766(3) 0.6096(2) 0.20581(19)
C21C C -0.1236(3) 0.6531(2) 0.17814(17)
C22C C -0.0889(3) 0.6757(3) 0.14142(19)
H11C H -0.0353 0.6636 0.1338
C23C C -0.1292(4) 0.7162(3) 0.11451(19)
H12C H -0.1026 0.7325 0.0896
C24C C -0.2083(4) 0.7324(3) 0.12445(19)
C25C C -0.2442(3) 0.7086(3) 0.1622(2)
H13C H -0.2983 0.7195 0.1699
C26C C -0.2022(3) 0.6703(3) 0.18793(19)
H14C H -0.2276 0.6548 0.2134
C27C C -0.2610(4) 0.7749(3) 0.0963(2)
C28C C -0.3170(7) 0.7355(5) 0.0680(3)
C29C C -0.2036(6) 0.8109(5) 0.0653(3)
Zn1D Zn 0.93087(3) 0.46920(3) -0.218219(18)
Zn1E Zn -0.43087(3) 1.03080(3) 0.281781(18)
Zn1E_2 Zn 0.56913(3) 1.03080(3) 0.281781(18)
Zn1F Zn -0.56913(3) 1.03080(3) 0.218219(18)
Zn1F_2 Zn 0.43087(3) 1.03080(3) 0.218219(18)
N1C N -0.1619(2) 0.52867(18) 0.32620(13)
O3E O -0.0023(2) 0.46791(19) 0.19048(15)
O3F O 0.0023(2) 0.46791(19) 0.30952(15)
O4E O -0.1055(2) 0.46819(19) 0.23678(14)
O4F O 0.1055(2) 0.46819(19) 0.26322(14)
loop_
_geom_bond_atom_site_label_1
_geom_bond_atom_site_label_2
_geom_bond_site_symmetry_1
_geom_bond_site_symmetry_2
Zn1 N1 1_555 1_555
F1 C28 1_555 1_555
F2 C28 1_555 1_555
F3 C28 1_555 1_555
F4 C29 1_555 1_555
F5 C29 1_555 1_555
F6 C29 1_555 1_555
N1 C1 1_555 1_555
N2 C3 1_555 1_555
O1 C6 1_555 1_555
O2 C10 1_555 1_555
O3 C13 1_555 1_555
O4 C13 1_555 1_555
O5 Zn1 1_555 1_555
O6 C20 1_555 1_555
C1 H1 1_555 1_555
C2 C1 1_555 1_555
H2 C2 1_555 1_555
C3 C2 1_555 1_555
C4 C3 1_555 1_555
H3 C4 1_555 1_555
C5 N1 1_555 1_555
H4 C5 1_555 1_555
C6 N2 1_555 1_555
C7 C6 1_555 1_555
C8 C7 1_555 1_555
C9 C8 1_555 1_555
C10 N2 1_555 1_555
C11 C7 1_555 1_555
H5 C11 1_555 1_555
C12 C9 1_555 1_555
H6 C12 1_555 1_555
C13 C14 1_555 1_555
C14 C15 1_555 1_555
C15 H7 1_555 1_555
C16 C15 1_555 1_555
H8 C16 1_555 1_555
C17 C16 1_555 1_555
C18 C17 1_555 1_555
H9 C18 1_555 1_555
C19 C14 1_555 1_555
H10 C19 1_555 1_555
C20 O5 1_555 1_555
C21 C20 1_555 1_555
C22 C21 1_555 1_555
H11 C22 1_555 1_555
C23 C22 1_555 1_555
H12 C23 1_555 1_555
C24 C23 1_555 1_555
C25 C24 1_555 1_555
H13 C25 1_555 1_555
C26 C21 1_555 1_555
H14 C26 1_555 1_555
C27 C17 1_555 1_555
C28 C27 1_555 1_555
C29 C27 1_555 1_555
N1D C1D 1_555 1_555
N2D C3D 1_555 1_555
O1D C6D 1_555 1_555
O2D C10D 1_555 1_555
C1D H1D 1_555 1_555
C2D C1D 1_555 1_555
H2D C2D 1_555 1_555
C3D C2D 1_555 1_555
C4D C3D 1_555 1_555
H3D C4D 1_555 1_555
C5D N1D 1_555 1_555
H4D C5D 1_555 1_555
C6D N2D 1_555 1_555
C7D C6D 1_555 1_555
C8D C8 1_555 1_555
C9D C8D 1_555 1_555
C10D N2D 1_555 1_555
C11D C12 1_555 1_555
H5D C11D 1_555 1_555
C12D C11 1_555 1_555
H6D C12D 1_555 1_555
Zn1C O6 1_555 1_555
F1C C28C 1_555 1_555
F2C C28C 1_555 1_555
F3C C28C 1_555 1_555
F4C C29C 1_555 1_555
F5C C29C 1_555 1_555
F6C C29C 1_555 1_555
O3C C13C 1_555 1_555
O4C C13C 1_555 1_555
O5C Zn1C 1_555 1_555
O6C Zn1 1_555 1_555
C13C C14C 1_555 1_555
C14C C15C 1_555 1_555
C15C H7C 1_555 1_555
C16C C15C 1_555 1_555
H8C C16C 1_555 1_555
C17C C16C 1_555 1_555
C18C C17C 1_555 1_555
H9C C18C 1_555 1_555
C19C C14C 1_555 1_555
H10C C19C 1_555 1_555
C20C O5C 1_555 1_555
C21C C20C 1_555 1_555
C22C C21C 1_555 1_555
H11C C22C 1_555 1_555
C23C C22C 1_555 1_555
H12C C23C 1_555 1_555
C24C C23C 1_555 1_555
C25C C24C 1_555 1_555
H13C C25C 1_555 1_555
C26C C21C 1_555 1_555
H14C C26C 1_555 1_555
C27C C17C 1_555 1_555
C28C C27C 1_555 1_555
C29C C27C 1_555 1_555
Zn1D N1D 1_555 1_555
Zn1E O4C 1_555 1_555
Zn1E_2 O3 1_555 1_555
Zn1F O3C 1_555 1_555
Zn1F_2 O4 1_555 1_555
N1C Zn1C 1_555 1_555
O3E Zn1 1_555 1_555
O3F Zn1C 1_555 1_555
O4E Zn1C 1_555 1_555
O4F Zn1 1_555 1_555
C4 C5 1_555 1_555
C9 C10 1_555 1_555
C18 C19 1_555 1_555
C24 C27 1_555 1_555
C25 C26 1_555 1_555
C4D C5D 1_555 1_555
C7D C8D 1_555 1_555
C7D C11D 1_555 1_555
C9D C10D 1_555 1_555
C9D C12D 1_555 1_555
O6C C20C 1_555 1_555
C18C C19C 1_555 1_555
C24C C27C 1_555 1_555
C25C C26C 1_555 1_555

#END
