
#######################################################################
#
#                 Cambridge Crystallographic Data Centre
#                                CCDC 
#
#######################################################################
#
# If this CIF has been generated from an entry in the Cambridge 
# Structural Database, then it will include bibliographic, chemical, 
# crystal, experimental, refinement or atomic coordinate data resulting 
# from the CCDC's data processing and validation procedures.
#
#######################################################################

data_DIMQOH
_symmetry_cell_setting           orthorhombic
_symmetry_space_group_name_H-M   'C m c a'
_symmetry_Int_Tables_number      64
_space_group_name_Hall           '-C 2ac 2'
loop_
_symmetry_equiv_pos_site_id
_symmetry_equiv_pos_as_xyz
1 x,y,z
2 -x,1/2-y,1/2+z
3 -x,1/2+y,1/2-z
4 x,-y,-z
5 1/2+x,1/2+y,z
6 1/2-x,-y,1/2+z
7 1/2-x,y,1/2-z
8 1/2+x,1/2-y,-z
9 -x,-y,-z
10 x,1/2+y,1/2-z
11 x,1/2-y,1/2+z
12 -x,y,z
13 1/2-x,1/2-y,-z
14 1/2+x,y,1/2-z
15 1/2+x,-y,1/2+z
16 1/2-x,1/2+y,z
_cell_length_a                   11.7060(6)
_cell_length_b                   17.6369(9)
_cell_length_c                   12.2246(6)
_cell_angle_alpha                90
_cell_angle_beta                 90
_cell_angle_gamma                90
_cell_volume                     2523.86
loop_
_atom_site_label
_atom_site_type_symbol
_atom_site_fract_x
_atom_site_fract_y
_atom_site_fract_z
C1 C 0.798(3) 0.2239(17) 0.492(3)
Cl1 Cl 0.7092(8) 0.1811(5) 0.3998(8)
Cl2 Cl 0.7355(9) 0.2325(8) 0.6218(8)
Cl3 Cl 0.8481(12) 0.3113(6) 0.4471(13)
H1 H 0.870(15) 0.201(17) 0.52(3)
Ag1 Ag 1.0000 0.24571(7) 0.24211(12)
C2 C 1.0000 0.3510(9) 0.1689(14)
C3 C 1.0000 0.1414(9) 0.3169(14)
C4 C 0.7442(13) 0.4929(14) 0.0895(11)
H2 H 0.7838 0.4830 0.1558
C5 C 0.6242(12) 0.4989(15) 0.0940(11)
H3 H 0.5868 0.5022 0.1627
C6 C 0.5618(11) 0.5000 0.0000
Mn1 Mn 1.0000 0.5000 0.0000
N1 N 1.0000 0.4072(8) 0.1235(11)
N2 N 1.0000 0.0858(8) 0.3674(12)
N3 N 0.8044(10) 0.5000 0.0000
C4C C 0.7442(13) 0.5071(14) -0.0895(11)
H2C H 0.7838 0.5170 -0.1558
C5C C 0.6242(12) 0.5011(15) -0.0940(11)
H3C H 0.5868 0.4978 -0.1627
C4H C 0.2558(13) 0.5071(14) -0.0895(11)
H2H H 0.2162 0.5170 -0.1558
C5H C 0.3758(12) 0.5011(15) -0.0940(11)
H3H H 0.4132 0.4978 -0.1627
C6H C 0.4382(11) 0.5000 0.0000
N3H N 0.1956(10) 0.5000 0.0000
C4K C 0.2558(13) 0.4929(14) 0.0895(11)
H2K H 0.2162 0.4830 0.1558
C5K C 0.3758(12) 0.4989(15) 0.0940(11)
H3K H 0.4132 0.5022 0.1627
Ag1C Ag 1.0000 0.75429(7) -0.24211(12)
C2C C 1.0000 0.6490(9) -0.1689(14)
C3C C 1.0000 0.8586(9) -0.3169(14)
N1C N 1.0000 0.5928(8) -0.1235(11)
N2C N 1.0000 0.9142(8) -0.3674(12)
Mn1_2 Mn 0.0000 0.5000 0.0000
Mn1A Mn 1.0000 0.0000 0.5000
Mn1A_2 Mn 1.0000 1.0000 -0.5000
N2A N 1.0000 0.4142(8) -0.1326(12)
N2B N 1.0000 0.5858(8) 0.1326(12)
N3H_2 N 1.1956(10) 0.5000 0.0000
C1L C 0.702(3) 0.2761(17) 0.508(3)
Cl1L Cl 0.7908(8) 0.3189(5) 0.6002(8)
Cl2L Cl 0.7645(9) 0.2675(8) 0.3782(8)
Cl3L Cl 0.6519(12) 0.1887(6) 0.5529(13)
H1L H 0.630(15) 0.299(17) 0.48(3)
loop_
_geom_bond_atom_site_label_1
_geom_bond_atom_site_label_2
_geom_bond_site_symmetry_1
_geom_bond_site_symmetry_2
C1 Cl1 1_555 1_555
Cl2 C1 1_555 1_555
Cl3 C1 1_555 1_555
H1 C1 1_555 1_555
Ag1 C2 1_555 1_555
C2 N1 1_555 1_555
C3 Ag1 1_555 1_555
C4 H2 1_555 1_555
C5 C4 1_555 1_555
H3 C5 1_555 1_555
C6 C5 1_555 1_555
Mn1 N1 1_555 1_555
N2 C3 1_555 1_555
N3 C4 1_555 1_555
C1L Cl1L 1_555 1_555
Cl2L C1L 1_555 1_555
Cl3L C1L 1_555 1_555
H1L C1L 1_555 1_555
C4C N3 1_555 1_555
H2C C4C 1_555 1_555
C5C C6 1_555 1_555
H3C C5C 1_555 1_555
C4H H2H 1_555 1_555
C5H C4H 1_555 1_555
H3H C5H 1_555 1_555
C6H C6 1_555 1_555
N3H C4H 1_555 1_555
C4K N3H 1_555 1_555
H2K C4K 1_555 1_555
C5K C6H 1_555 1_555
H3K C5K 1_555 1_555
Ag1C C2C 1_555 1_555
C2C N1C 1_555 1_555
C3C Ag1C 1_555 1_555
N1C Mn1 1_555 1_555
N2C C3C 1_555 1_555
Mn1_2 N3H 1_555 1_555
Mn1A N2 1_555 1_555
Mn1A_2 N2C 1_555 1_555
N2A Mn1 1_555 1_555
N2B Mn1 1_555 1_555
N3H_2 Mn1 1_555 1_555
Mn1 N3 1_555 1_555
C4C C5C 1_555 1_555
C5H C6H 1_555 1_555
C4K C5K 1_555 1_555

#END
