
#######################################################################
#
#                 Cambridge Crystallographic Data Centre
#                                CCDC 
#
#######################################################################
#
# If this CIF has been generated from an entry in the Cambridge 
# Structural Database, then it will include bibliographic, chemical, 
# crystal, experimental, refinement or atomic coordinate data resulting 
# from the CCDC's data processing and validation procedures.
#
#######################################################################

data_DIXGIC
_symmetry_cell_setting           monoclinic
_symmetry_space_group_name_H-M   'P 2/n'
_symmetry_Int_Tables_number      13
_space_group_name_Hall           '-P 2yac'
loop_
_symmetry_equiv_pos_site_id
_symmetry_equiv_pos_as_xyz
1 x,y,z
2 1/2-x,y,1/2-z
3 -x,-y,-z
4 1/2+x,-y,1/2+z
_cell_length_a                   21.8054(12)
_cell_length_b                   9.0383(3)
_cell_length_c                   49.995(3)
_cell_angle_alpha                90
_cell_angle_beta                 96.591(4)
_cell_angle_gamma                90
_cell_volume                     9788.08
loop_
_atom_site_label
_atom_site_type_symbol
_atom_site_fract_x
_atom_site_fract_y
_atom_site_fract_z
Eu1 Eu -0.41152(2) 0.36698(5) 0.848653(11)
Eu2 Eu 0.44644(2) -0.93392(6) 1.091400(12)
N1 N 0.1262(3) 0.0188(9) 0.94817(19)
N2 N 0.0095(3) 1.3094(10) 0.8189(2)
O1 O -0.3641(3) 0.0818(8) 0.90407(18)
O2 O -0.3415(3) 0.2879(8) 0.88383(16)
O3 O -0.3569(3) 0.5987(7) 0.85515(18)
O4 O -0.3159(4) 0.4374(8) 0.83012(18)
O5 O -0.4454(3) 0.4820(7) 0.88844(15)
H1 H -0.4663 0.5552 0.8840
O6 O -0.4881(5) 0.5430(10) 0.8260(2)
H2 H -0.5228 0.5078 0.8256
O7 O -0.0700(4) 2.2711(8) 0.69624(16)
O8 O 0.3828(4) -0.8520(9) 1.04914(16)
O9 O 0.4183(3) -0.8690(7) 1.13587(12)
H3 H 0.4011 -0.7883 1.1351
O10 O 0.3809(4) -0.7164(8) 1.08453(17)
O11 O 0.4630(4) -1.1361(9) 1.0599(2)
H4 H 0.4874 -1.1962 1.0674
O12 O 0.4825(3) 1.0612(10) 0.88111(19)
O13 O 0.4986(3) 1.2419(10) 0.8540(2)
O14 O -0.1124(3) 2.1157(7) 0.66663(17)
O15 O 0.4834(3) 0.7285(8) 0.89488(16)
O16 O 0.4594(4) 0.8541(9) 0.92937(19)
C1 C -0.1074(6) 1.8935(13) 0.7049(3)
H5 H -0.1321 1.8824 0.6886
C2 C -0.2172(6) 0.6360(14) 0.8236(3)
H6 H -0.2207 0.5522 0.8127
C3 C -0.2140(4) 0.2388(11) 0.8947(2)
H7 H -0.2264 0.3155 0.8829
C4 C 0.3957(5) 1.1669(11) 0.8560(2)
C5 C 0.3944(5) 0.6488(13) 0.9153(3)
C6 C 0.2021(5) 1.2294(13) 0.8363(3)
C7 C -0.1516(4) 0.2135(10) 0.9025(2)
H8 H -0.1223 0.2749 0.8961
C8 C -0.2599(5) 0.6674(11) 0.8417(2)
C9 C 0.2986(5) 0.4526(12) 0.9222(2)
C10 C -0.0655(4) 0.0715(12) 0.9275(2)
C11 C 0.4647(5) 1.1551(13) 0.8640(3)
C12 C 0.2279(4) 0.0925(11) 0.9370(2)
H9 H 0.2409 -0.0055 0.9386
C13 C 0.0619(4) 0.0301(11) 0.9408(2)
C14 C 0.3895(5) 0.5222(13) 0.9008(2)
H10 H 0.4166 0.5006 0.8882
C15 C 0.1494(4) 0.2750(11) 0.9368(2)
H11 H 0.1090 0.3036 0.9385
C16 C -0.2102(5) 0.8917(11) 0.8547(2)
H12 H -0.2079 0.9758 0.8655
C17 C 0.2674(4) 1.2045(12) 0.8429(2)
C18 C -0.0088(5) 1.4354(13) 0.8018(2)
C19 C -0.1323(4) 0.0971(10) 0.9197(2)
C20 C -0.0922(5) 1.2394(12) 0.8298(2)
H13 H -0.1030 1.3388 0.8303
C21 C 0.1327(5) -0.2398(12) 0.9627(2)
H14 H 0.1021 -0.2624 0.9488
C22 C -0.2399(4) 0.0328(11) 0.9217(2)
H15 H -0.2691 -0.0285 0.9282
C23 C -0.1671(5) 0.8713(13) 0.8365(2)
C24 C -0.1779(5) 0.0065(12) 0.9292(2)
H16 H -0.1661 -0.0720 0.9407
C25 C -0.1682(5) 0.7385(17) 0.8227(3)
H17 H -0.1361 0.7160 0.8126
C26 C -0.0325(4) 1.2007(12) 0.8248(2)
C27 C 0.0740(5) 1.2855(12) 0.8250(3)
C28 C 0.1665(5) 0.1241(11) 0.9412(2)
C29 C -0.0242(4) 0.0873(12) 0.9079(2)
H18 H -0.0387 0.1108 0.8902
C30 C 0.3433(5) 0.4281(14) 0.9053(2)
H19 H 0.3415 0.3386 0.8960
C31 C -0.0157(5) 1.0535(13) 0.8261(3)
H20 H 0.0247 1.0264 0.8241
C32 C 0.3616(6) -0.7478(13) 1.0602(3)
C33 C 0.3118(5) 1.2939(14) 0.8310(2)
H21 H 0.2977 1.3684 0.8190
C34 C -0.2554(5) 0.7919(11) 0.8569(2)
H22 H -0.2838 0.8088 0.8691
C35 C 0.1937(5) -0.0615(12) 0.9888(3)
H23 H 0.2040 0.0366 0.9927
C36 C 0.0202(4) 0.0055(12) 0.9602(2)
H24 H 0.0348 -0.0235 0.9776
C37 C -0.1341(5) 1.1357(13) 0.8339(2)
H25 H -0.1742 1.1634 0.8363
C38 C 0.1908(5) 0.3790(11) 0.9301(2)
H26 H 0.1776 0.4761 0.9271
C39 C -0.3138(5) 0.5585(13) 0.8417(3)
C40 C -0.0430(5) 0.0254(13) 0.9528(2)
H27 H -0.0704 0.0068 0.9653
C41 C -0.0829(5) 2.0203(12) 0.7101(2)
C42 C 0.1593(5) -0.3508(12) 0.9789(2)
H28 H 0.1476 -0.4483 0.9753
C43 C 0.2920(5) 1.0959(11) 0.8604(2)
H29 H 0.2649 1.0331 0.8679
C44 C 0.0991(4) 1.2538(12) 0.8508(2)
H30 H 0.0737 1.2518 0.8645
C45 C 0.0392(5) 0.0667(12) 0.9158(2)
H31 H 0.0665 0.0792 0.9030
C46 C -0.0586(5) 0.9462(12) 0.8304(2)
H32 H -0.0473 0.8469 0.8306
C47 C 0.0222(5) 1.5651(12) 0.8036(2)
H33 H 0.0562 1.5773 0.8165
C48 C -0.3280(5) 0.1719(13) 0.8972(2)
C49 C 0.1511(5) -0.0971(12) 0.9670(2)
C50 C 0.2028(5) -0.3212(11) 1.0003(2)
C51 C 0.2582(6) -0.4209(12) 1.0430(2)
H34 H 0.2455 -0.3370 1.0516
C52 C 0.3508(5) 0.6885(12) 0.9321(2)
H35 H 0.3526 0.7800 0.9407
C53 C -0.0459(5) 1.6648(11) 0.7664(2)
C54 C 0.2697(4) 0.1953(13) 0.9307(2)
H36 H 0.3097 0.1663 0.9285
C55 C -0.2592(4) 0.1461(10) 0.9050(2)
C56 C 0.4497(5) 0.7529(12) 0.9130(2)
C57 C 0.2531(5) 0.3425(12) 0.9277(2)
C58 C 0.3553(5) 1.0750(11) 0.8673(2)
H37 H 0.3698 1.0007 0.8793
C59 C 0.1777(5) 1.2604(14) 0.8118(3)
H38 H 0.2036 1.2624 0.7982
C60 C 0.2925(5) -0.6692(12) 1.0192(3)
H39 H 0.3019 -0.7579 1.0111
C61 C 0.1622(4) 1.2244(11) 0.8569(2)
H40 H 0.1780 1.2015 0.8745
C62 C 0.3165(5) -0.6434(12) 1.0457(2)
C63 C 0.2549(5) -0.5678(13) 1.0042(3)
H41 H 0.2414 -0.5858 0.9861
C64 C 0.3748(5) 1.2722(12) 0.8369(2)
H42 H 0.4026 1.3272 0.8282
C65 C 0.1128(5) 1.2919(15) 0.8045(3)
H43 H 0.0973 1.3154 0.7868
C66 C 0.2382(6) -0.4427(13) 1.0163(3)
C67 C -0.1176(5) 0.9850(11) 0.8345(2)
C68 C -0.0578(6) 1.4184(15) 0.7813(3)
H44 H -0.0790 1.3292 0.7789
C69 C 0.3051(5) 0.5889(12) 0.9356(2)
H45 H 0.2768 0.6131 0.9474
C70 C -0.0739(6) 1.5389(14) 0.7646(3)
H46 H -0.1070 1.5279 0.7513
C71 C 0.2202(5) -0.1729(14) 1.0045(3)
H47 H 0.2508 -0.1499 1.0184
C72 C 0.0036(5) 1.6777(13) 0.7865(2)
H48 H 0.0248 1.7670 0.7883
C73 C 0.2971(6) -0.5221(13) 1.0574(2)
H49 H 0.3099 -0.5048 1.0755
C74 C -0.0895(6) 2.1417(14) 0.6901(3)
C75 C -0.1003(6) 1.7766(12) 0.7210(3)
H50 H -0.1206 1.6884 0.7162
C76 C -0.0595(6) 1.7892(13) 0.7467(3)
C77 C -0.0339(9) 1.9351(14) 0.7532(3)
H51 H -0.0101 1.9543 0.7695
C78 C -0.0468(9) 2.0438(15) 0.7339(3)
H52 H -0.0302 2.1375 0.7373
Eu1_2 Eu 0.58848(2) 1.36698(5) 0.848653(11)
Eu1A Eu -0.08848(2) 2.36698(5) 0.651347(11)
Eu2B Eu -0.44644(2) -0.06608(6) 0.908600(12)
Eu2B_2 Eu 0.55356(2) 0.93392(6) 0.908600(12)
O1B O 0.3641(3) -1.0818(8) 1.09593(18)
O7A O -0.4300(4) 0.2711(8) 0.80376(16)
O12B O 0.5175(3) -1.0612(10) 1.11889(19)
O13_2 O -0.5014(3) 0.2419(10) 0.8540(2)
O14A O -0.3876(3) 0.1157(7) 0.83337(17)
O15B O 0.5166(3) -0.7285(8) 1.10512(16)
O16B O 0.5406(4) -0.8541(9) 1.07063(19)
loop_
_geom_bond_atom_site_label_1
_geom_bond_atom_site_label_2
_geom_bond_site_symmetry_1
_geom_bond_site_symmetry_2
Eu1 O2 1_555 1_555
Eu2 O8 1_555 1_555
N1 C13 1_555 1_555
N2 C18 1_555 1_555
O1 C48 1_555 1_555
O2 C48 1_555 1_555
O3 Eu1 1_555 1_555
O4 Eu1 1_555 1_555
O5 Eu1 1_555 1_555
H1 O5 1_555 1_555
O6 Eu1 1_555 1_555
H2 O6 1_555 1_555
O7 C74 1_555 1_555
O8 C32 1_555 1_555
O9 Eu2 1_555 1_555
H3 O9 1_555 1_555
O10 Eu2 1_555 1_555
O11 Eu2 1_555 1_555
H4 O11 1_555 1_555
O12 C11 1_555 1_555
O13 C11 1_555 1_555
O14 C74 1_555 1_555
O15 C56 1_555 1_555
O16 C56 1_555 1_555
C1 H5 1_555 1_555
C2 H6 1_555 1_555
C3 H7 1_555 1_555
C4 C11 1_555 1_555
C5 C14 1_555 1_555
C6 C17 1_555 1_555
C7 C3 1_555 1_555
H8 C7 1_555 1_555
C8 C2 1_555 1_555
C9 C30 1_555 1_555
C10 C19 1_555 1_555
C12 H9 1_555 1_555
C13 C36 1_555 1_555
C14 H10 1_555 1_555
C15 H11 1_555 1_555
C16 H12 1_555 1_555
C17 C33 1_555 1_555
C18 C47 1_555 1_555
C19 C7 1_555 1_555
C20 H13 1_555 1_555
C21 H14 1_555 1_555
C22 H15 1_555 1_555
C23 C16 1_555 1_555
C24 C19 1_555 1_555
H16 C24 1_555 1_555
C25 C2 1_555 1_555
H17 C25 1_555 1_555
C26 N2 1_555 1_555
C27 N2 1_555 1_555
C28 N1 1_555 1_555
C29 C10 1_555 1_555
H18 C29 1_555 1_555
C30 C14 1_555 1_555
H19 C30 1_555 1_555
C31 C26 1_555 1_555
H20 C31 1_555 1_555
C32 O10 1_555 1_555
C33 H21 1_555 1_555
C34 C8 1_555 1_555
H22 C34 1_555 1_555
C35 H23 1_555 1_555
C36 H24 1_555 1_555
C37 C20 1_555 1_555
H25 C37 1_555 1_555
C38 C15 1_555 1_555
H26 C38 1_555 1_555
C39 O3 1_555 1_555
C40 C10 1_555 1_555
H27 C40 1_555 1_555
C41 C1 1_555 1_555
C42 C21 1_555 1_555
H28 C42 1_555 1_555
C43 C17 1_555 1_555
H29 C43 1_555 1_555
C44 C27 1_555 1_555
H30 C44 1_555 1_555
C45 C13 1_555 1_555
H31 C45 1_555 1_555
C46 C31 1_555 1_555
H32 C46 1_555 1_555
C47 H33 1_555 1_555
C48 C55 1_555 1_555
C49 N1 1_555 1_555
C50 C42 1_555 1_555
C51 H34 1_555 1_555
C52 C5 1_555 1_555
H35 C52 1_555 1_555
C53 C70 1_555 1_555
C54 C12 1_555 1_555
H36 C54 1_555 1_555
C55 C3 1_555 1_555
C56 C5 1_555 1_555
C57 C9 1_555 1_555
C58 C4 1_555 1_555
H37 C58 1_555 1_555
C59 C6 1_555 1_555
H38 C59 1_555 1_555
C60 H39 1_555 1_555
C61 C6 1_555 1_555
H40 C61 1_555 1_555
C62 C32 1_555 1_555
C63 C60 1_555 1_555
H41 C63 1_555 1_555
C64 C4 1_555 1_555
H42 C64 1_555 1_555
C65 C27 1_555 1_555
H43 C65 1_555 1_555
C66 C50 1_555 1_555
C67 C23 1_555 1_555
C68 C18 1_555 1_555
H44 C68 1_555 1_555
C69 C9 1_555 1_555
H45 C69 1_555 1_555
C70 C68 1_555 1_555
H46 C70 1_555 1_555
C71 C35 1_555 1_555
H47 C71 1_555 1_555
C72 C47 1_555 1_555
H48 C72 1_555 1_555
C73 C51 1_555 1_555
H49 C73 1_555 1_555
C74 C41 1_555 1_555
C75 C1 1_555 1_555
H50 C75 1_555 1_555
C76 C53 1_555 1_555
C77 C76 1_555 1_555
H51 C77 1_555 1_555
C78 C41 1_555 1_555
H52 C78 1_555 1_555
Eu1_2 O13 1_555 1_555
Eu1A O7 1_555 1_555
Eu2B O1 1_555 1_555
Eu2B_2 O12 1_555 1_555
O1B Eu2 1_555 1_555
O7A Eu1 1_555 1_555
O12B Eu2 1_555 1_555
O13_2 Eu1 1_555 1_555
O14A Eu1 1_555 1_555
O15B Eu2 1_555 1_555
O16B Eu2 1_555 1_555
O4 C39 1_555 1_555
O14 Eu1A 1_555 1_555
O15 Eu2B_2 1_555 1_555
O16 Eu2B_2 1_555 1_555
C8 C39 1_555 1_555
C12 C28 1_555 1_555
C15 C28 1_555 1_555
C16 C34 1_555 1_555
C20 C26 1_555 1_555
C21 C49 1_555 1_555
C22 C24 1_555 1_555
C22 C55 1_555 1_555
C23 C25 1_555 1_555
C29 C45 1_555 1_555
C33 C64 1_555 1_555
C35 C49 1_555 1_555
C36 C40 1_555 1_555
C37 C67 1_555 1_555
C38 C57 1_555 1_555
C43 C58 1_555 1_555
C44 C61 1_555 1_555
C46 C67 1_555 1_555
C50 C71 1_555 1_555
C51 C66 1_555 1_555
C52 C69 1_555 1_555
C53 C72 1_555 1_555
C54 C57 1_555 1_555
C59 C65 1_555 1_555
C60 C62 1_555 1_555
C62 C73 1_555 1_555
C63 C66 1_555 1_555
C75 C76 1_555 1_555
C77 C78 1_555 1_555

#END
