
#######################################################################
#
#                 Cambridge Crystallographic Data Centre
#                                CCDC 
#
#######################################################################
#
# If this CIF has been generated from an entry in the Cambridge 
# Structural Database, then it will include bibliographic, chemical, 
# crystal, experimental, refinement or atomic coordinate data resulting 
# from the CCDC's data processing and validation procedures.
#
#######################################################################

data_DIXNUV01
_symmetry_cell_setting           monoclinic
_symmetry_space_group_name_H-M   'P 21/n'
_symmetry_Int_Tables_number      14
_space_group_name_Hall           '-P 2yn'
loop_
_symmetry_equiv_pos_site_id
_symmetry_equiv_pos_as_xyz
1 x,y,z
2 1/2-x,1/2+y,1/2-z
3 -x,-y,-z
4 1/2+x,1/2-y,1/2+z
_cell_length_a                   8.0203(19)
_cell_length_b                   20.455(5)
_cell_length_c                   8.612(2)
_cell_angle_alpha                90
_cell_angle_beta                 90.650(4)
_cell_angle_gamma                90
_cell_volume                     1412.75
loop_
_atom_site_label
_atom_site_type_symbol
_atom_site_fract_x
_atom_site_fract_y
_atom_site_fract_z
Cu1 Cu 0.0000 0.5000 0.5000
N1 N 0.1542(2) 0.50163(8) 0.68784(19)
N2 N 0.0781(2) 0.50271(12) 0.8319(2)
N3 N 0.3473(2) 0.50042(8) 0.8641(2)
N4 N 0.5050(2) 0.50004(8) 0.9278(2)
N5 N 0.1256(2) 0.57402(8) 0.4030(2)
N6 N 0.2983(2) 0.57788(9) 0.4017(2)
N7 N 0.1894(2) 0.66724(9) 0.3046(2)
N8 N 0.1567(2) 0.73034(9) 0.2511(2)
N9 N 0.3250(2) 0.92095(9) 0.1191(2)
N10 N 0.1525(2) 0.91426(9) 0.1004(2)
N11 N 0.2569(2) 0.82424(9) 0.1980(2)
N12 N 0.2887(2) 0.76140(9) 0.2502(2)
C1 C 0.3155(2) 0.50034(9) 0.7091(2)
H1 H 0.3968 0.4995 0.6297
C2 C 0.1968(3) 0.50194(14) 0.9360(3)
H2 H 0.1810 0.5024 1.0451
C3 C 0.0622(3) 0.62727(10) 0.3434(3)
H3 H -0.0532 0.6364 0.3297
C4 C 0.3341(3) 0.63496(11) 0.3432(3)
H4 H 0.4435 0.6516 0.3295
C5 C 0.3837(3) 0.86723(11) 0.1780(3)
H5 H 0.4975 0.8592 0.2031
C6 C 0.1148(3) 0.85549(10) 0.1482(3)
H6 H 0.0058 0.8373 0.1485
N1B N 0.8458(2) 0.49837(8) 1.31216(19)
N2B N 0.9219(2) 0.49729(12) 1.1681(2)
N3B N 0.6527(2) 0.49958(8) 1.1359(2)
N4B N 0.4950(2) 0.49996(8) 1.0722(2)
C1B C 0.6845(2) 0.49966(9) 1.2909(2)
H1B H 0.6032 0.5005 1.3703
C2B C 0.8032(3) 0.49806(14) 1.0640(3)
H2B H 0.8190 0.4976 0.9549
N5B N -0.1256(2) 0.42598(8) 0.5970(2)
N6B N -0.2983(2) 0.42212(9) 0.5983(2)
N7B N -0.1894(2) 0.33276(9) 0.6954(2)
N8B N -0.1567(2) 0.26966(9) 0.7489(2)
N9B N -0.3250(2) 0.07905(9) 0.8809(2)
N10B N -0.1525(2) 0.08574(9) 0.8996(2)
N11B N -0.2569(2) 0.17576(9) 0.8020(2)
N12B N -0.2887(2) 0.23860(9) 0.7498(2)
C3B C -0.0622(3) 0.37273(10) 0.6566(3)
H3B H 0.0532 0.3636 0.6703
C4B C -0.3341(3) 0.36504(11) 0.6568(3)
H4B H -0.4435 0.3484 0.6705
C5B C -0.3837(3) 0.13277(11) 0.8220(3)
H5B H -0.4975 0.1408 0.7969
C6B C -0.1148(3) 0.14451(10) 0.8518(3)
H6B H -0.0058 0.1627 0.8515
Cu1_2 Cu 1.0000 0.5000 1.5000
Cu1A Cu -0.5000 0.0000 1.0000
Cu1A_2 Cu 0.5000 1.0000 0.0000
N1B_2 N -0.1542(2) 0.49837(8) 0.31216(19)
N9A N 0.1750(2) 0.42095(9) 0.3809(2)
N9C N -0.1750(2) 0.57905(9) 0.6191(2)
N13 N 0.2771(5) 0.27019(15) 0.7839(4)
O1 O 0.2783(3) 0.21975(13) 0.8617(3)
O2 O 0.2493(4) 0.26905(18) 0.6422(3)
O3 O 0.3037(4) 0.32518(14) 0.8437(5)
O7 O 0.6029(4) 0.35364(13) 1.0273(3)
H7 H 0.5040 0.3444 0.9993
H8 H 0.6442 0.3213 1.0733
N14? N 0.300(7) 0.2621(10) 0.792(3)
O4? O 0.262(3) 0.2041(9) 0.779(3)
O5? O 0.291(5) 0.2999(12) 0.680(3)
O6? O 0.340(4) 0.2868(14) 0.921(3)
loop_
_geom_bond_atom_site_label_1
_geom_bond_atom_site_label_2
_geom_bond_site_symmetry_1
_geom_bond_site_symmetry_2
Cu1 N1 1_555 1_555
N1 N2 1_555 1_555
N2 C2 1_555 1_555
N3 N4 1_555 1_555
N4 N4B 1_555 1_555
N5 Cu1 1_555 1_555
N6 N5 1_555 1_555
N7 N8 1_555 1_555
N8 N12 1_555 1_555
N9 N10 1_555 1_555
N10 C6 1_555 1_555
N11 N12 1_555 1_555
C1 N1 1_555 1_555
H1 C1 1_555 1_555
C2 N3 1_555 1_555
H2 C2 1_555 1_555
C3 N5 1_555 1_555
H3 C3 1_555 1_555
C4 N6 1_555 1_555
H4 C4 1_555 1_555
C5 N9 1_555 1_555
H5 C5 1_555 1_555
C6 N11 1_555 1_555
H6 C6 1_555 1_555
N13 O1 1_555 1_555
O2 N13 1_555 1_555
O3 N13 1_555 1_555
O7 H7 1_555 1_555
H8 O7 1_555 1_555
N1B N2B 1_555 1_555
N2B C2B 1_555 1_555
N3B N4B 1_555 1_555
C1B N1B 1_555 1_555
H1B C1B 1_555 1_555
C2B N3B 1_555 1_555
H2B C2B 1_555 1_555
N5B Cu1 1_555 1_555
N6B N5B 1_555 1_555
N7B N8B 1_555 1_555
N8B N12B 1_555 1_555
N9B N10B 1_555 1_555
N10B C6B 1_555 1_555
N11B N12B 1_555 1_555
C3B N5B 1_555 1_555
H3B C3B 1_555 1_555
C4B N6B 1_555 1_555
H4B C4B 1_555 1_555
C5B N9B 1_555 1_555
H5B C5B 1_555 1_555
C6B N11B 1_555 1_555
H6B C6B 1_555 1_555
Cu1_2 N1B 1_555 1_555
Cu1A N9B 1_555 1_555
Cu1A_2 N9 1_555 1_555
N1B_2 Cu1 1_555 1_555
N9A Cu1 1_555 1_555
N9C Cu1 1_555 1_555
N3 C1 1_555 1_555
N7 C3 1_555 1_555
N7 C4 1_555 1_555
N11 C5 1_555 1_555
N3B C1B 1_555 1_555
N7B C3B 1_555 1_555
N7B C4B 1_555 1_555
N11B C5B 1_555 1_555

#END
