
#######################################################################
#
#                 Cambridge Crystallographic Data Centre
#                                CCDC 
#
#######################################################################
#
# If this CIF has been generated from an entry in the Cambridge 
# Structural Database, then it will include bibliographic, chemical, 
# crystal, experimental, refinement or atomic coordinate data resulting 
# from the CCDC's data processing and validation procedures.
#
#######################################################################

data_DIXNUV
_symmetry_cell_setting           monoclinic
_symmetry_space_group_name_H-M   'P 21/n'
_symmetry_Int_Tables_number      14
_space_group_name_Hall           '-P 2yn'
loop_
_symmetry_equiv_pos_site_id
_symmetry_equiv_pos_as_xyz
1 x,y,z
2 1/2-x,1/2+y,1/2-z
3 -x,-y,-z
4 1/2+x,1/2-y,1/2+z
_cell_length_a                   8.0107(17)
_cell_length_b                   20.461(5)
_cell_length_c                   8.6435(19)
_cell_angle_alpha                90
_cell_angle_beta                 90.643(2)
_cell_angle_gamma                90
_cell_volume                     1416.64
loop_
_atom_site_label
_atom_site_type_symbol
_atom_site_fract_x
_atom_site_fract_y
_atom_site_fract_z
Cu1 Cu 1.5000 0.0000 1.0000
N1 N 1.3736(2) 0.07490(8) 1.0930(2)
N2 N 1.2005(2) 0.07854(8) 1.0948(2)
N3 N 1.3095(2) 0.16830(9) 1.1893(2)
N4 N 1.3422(2) 0.23176(9) 1.2431(2)
N5 N 1.1740(2) 0.42163(9) 1.3776(2)
N6 N 1.3471(2) 0.41474(9) 1.3964(2)
N7 N 1.2422(2) 0.32501(9) 1.2980(2)
N8 N 1.2101(2) 0.26208(9) 1.2449(2)
C1 C 1.4361(3) 0.12831(10) 1.1511(3)
H1 H 1.5516 0.1376 1.1644
C2 C 1.1648(3) 0.13576(11) 1.1520(3)
H2 H 1.0552 0.1524 1.1658
C3 C 1.1159(3) 0.36800(11) 1.3181(3)
H3 H 1.0020 0.3601 1.2924
C4 C 1.3844(3) 0.35637(10) 1.3481(3)
H4 H 1.4935 0.3382 1.3476
C5 C 1.1844(3) -0.00018(9) 0.7908(2)
H5 H 1.1028 0.0036 0.8692
N9 N 1.3457(2) -0.00013(7) 0.8119(2)
N10 N 1.4222(3) -0.0058(10) 0.6686(3)
C6 C 1.3037(4) -0.0081(12) 0.5647(4)
H6 H 1.3197 -0.0104 0.4561
N11 N 1.1533(3) -0.0066(11) 0.6357(3)
N12 N 0.9946(3) -0.0014(9) 0.5717(3)
C5B C 0.8156(3) 0.00018(9) 0.2092(2)
H5B H 0.8972 -0.0036 0.1308
N9B N 0.6543(2) 0.00013(7) 0.1881(2)
N10B N 0.5778(3) 0.0058(10) 0.3314(3)
C6B C 0.6963(4) 0.0081(12) 0.4353(4)
H6B H 0.6803 0.0104 0.5439
N11B N 0.8467(3) 0.0066(11) 0.3643(3)
N12B N 1.0054(3) 0.0014(9) 0.4283(3)
N1B N 1.6264(2) -0.07490(8) 0.9070(2)
N2B N 1.7995(2) -0.07854(8) 0.9052(2)
N3B N 1.6905(2) -0.16830(9) 0.8107(2)
N4B N 1.6578(2) -0.23176(9) 0.7569(2)
N5B N 1.8260(2) -0.42163(9) 0.6224(2)
N6B N 1.6529(2) -0.41474(9) 0.6036(2)
N7B N 1.7578(2) -0.32501(9) 0.7020(2)
N8B N 1.7899(2) -0.26208(9) 0.7551(2)
C1B C 1.5639(3) -0.12831(10) 0.8489(3)
H1B H 1.4484 -0.1376 0.8356
C2B C 1.8352(3) -0.13576(11) 0.8480(3)
H2B H 1.9448 -0.1524 0.8342
C3B C 1.8841(3) -0.36800(11) 0.6819(3)
H3B H 1.9980 -0.3601 0.7076
C4B C 1.6156(3) -0.35637(10) 0.6519(3)
H4B H 1.5065 -0.3382 0.6524
Cu1_2 Cu 0.5000 0.0000 0.0000
Cu1A Cu 1.0000 0.5000 1.5000
Cu1A_2 Cu 2.0000 -0.5000 0.5000
N5A N 1.3260(2) -0.07837(9) 1.1224(2)
N5C N 1.6740(2) 0.07837(9) 0.8776(2)
N9B_2 N 1.6543(2) 0.00013(7) 1.1881(2)
O1 O 0.6037(6) 0.35352(17) 1.0244(4)
N17 N 0.7782(4) 0.23002(14) 1.2822(4)
O5 O 0.7507 0.2284(3) 1.1416(5)
O6 O 0.7793(12) 0.2819(2) 1.3546(5)
O7 O 0.8019(5) 0.17576(16) 1.3423(6)
O7C O 0.3019(5) 0.32424(16) 0.8423(6)
H7? H 1.1029 -0.0044 0.8691
N13? N 1.4222(3) 0.0056 0.6685(3)
C7? C 1.3036(4) 0.0080(16) 0.5648(4)
H8? H 1.3196 0.0103 0.4562
N14? N 1.1532(3) 0.0069(11) 0.6359(3)
N15? N 0.9944(4) 0.0018(11) 0.5719(3)
N16? N 0.7658(15) 0.2720(6) 1.2054(17)
O2? O 0.785(3) 0.2194(10) 1.139(3)
O3? O 0.767(6) 0.2702(13) 1.3477(17)
O4? O 0.741(2) 0.3226(7) 1.132(2)
O8? O 0.431(3) 0.3568(9) 0.972(2)
loop_
_geom_bond_atom_site_label_1
_geom_bond_atom_site_label_2
_geom_bond_site_symmetry_1
_geom_bond_site_symmetry_2
Cu1 N1 1_555 1_555
N1 N2 1_555 1_555
N2 C2 1_555 1_555
N3 N4 1_555 1_555
N4 N8 1_555 1_555
N5 N6 1_555 1_555
N6 C4 1_555 1_555
N7 N8 1_555 1_555
C1 N1 1_555 1_555
H1 C1 1_555 1_555
C2 N3 1_555 1_555
H2 C2 1_555 1_555
C3 N5 1_555 1_555
H3 C3 1_555 1_555
C4 N7 1_555 1_555
H4 C4 1_555 1_555
C5 H5 1_555 1_555
N9 Cu1 1_555 1_555
N10 N9 1_555 1_555
C6 N10 1_555 1_555
H6 C6 1_555 1_555
N11 C5 1_555 1_555
N12 N11 1_555 1_555
N17 O5 1_555 1_555
O6 N17 1_555 1_555
O7 N17 1_555 1_555
C5B H5B 1_555 1_555
N9B C5B 1_555 1_555
N10B N9B 1_555 1_555
C6B N10B 1_555 1_555
H6B C6B 1_555 1_555
N11B C5B 1_555 1_555
N12B N12 1_555 1_555
N1B Cu1 1_555 1_555
N2B N1B 1_555 1_555
N3B N4B 1_555 1_555
N4B N8B 1_555 1_555
N5B N6B 1_555 1_555
N6B C4B 1_555 1_555
N7B N8B 1_555 1_555
C1B N1B 1_555 1_555
H1B C1B 1_555 1_555
C2B N2B 1_555 1_555
H2B C2B 1_555 1_555
C3B N5B 1_555 1_555
H3B C3B 1_555 1_555
C4B N7B 1_555 1_555
H4B C4B 1_555 1_555
Cu1_2 N9B 1_555 1_555
Cu1A N5 1_555 1_555
Cu1A_2 N5B 1_555 1_555
N5A Cu1 1_555 1_555
N5C Cu1 1_555 1_555
N9B_2 Cu1 1_555 1_555
N3 C1 1_555 1_555
N7 C3 1_555 1_555
C5 N9 1_555 1_555
C6 N11 1_555 1_555
C6B N11B 1_555 1_555
N11B N12B 1_555 1_555
N3B C1B 1_555 1_555
N3B C2B 1_555 1_555
N7B C3B 1_555 1_555

#END
