
#######################################################################
#
#                 Cambridge Crystallographic Data Centre
#                                CCDC 
#
#######################################################################
#
# If this CIF has been generated from an entry in the Cambridge 
# Structural Database, then it will include bibliographic, chemical, 
# crystal, experimental, refinement or atomic coordinate data resulting 
# from the CCDC's data processing and validation procedures.
#
#######################################################################

data_DOGJUF01
_symmetry_cell_setting           monoclinic
_symmetry_space_group_name_H-M   'P 2/n'
_symmetry_Int_Tables_number      13
_space_group_name_Hall           '-P 2yac'
loop_
_symmetry_equiv_pos_site_id
_symmetry_equiv_pos_as_xyz
1 x,y,z
2 1/2-x,y,1/2-z
3 -x,-y,-z
4 1/2+x,-y,1/2+z
_cell_length_a                   10.767(3)
_cell_length_b                   11.145(3)
_cell_length_c                   10.847(3)
_cell_angle_alpha                90
_cell_angle_beta                 103.011(5)
_cell_angle_gamma                90
_cell_volume                     1268.2
loop_
_atom_site_label
_atom_site_type_symbol
_atom_site_fract_x
_atom_site_fract_y
_atom_site_fract_z
Cu1 Cu 0.2500 0.34771(5) 0.2500
S1 S 0.33140(9) 0.32389(9) 0.55085(9)
O1 O 0.3909(3) 0.3354(2) 0.4430(3)
O2 O 0.3546(3) 0.2096(3) 0.6135(3)
O3 O 0.3557(3) 0.4260(3) 0.6350(3)
N1 N 0.1227(3) 0.3491(3) 0.3618(3)
N2 N 0.2500 0.5308(4) 0.2500
N3 N 0.2500 1.1637(4) 0.2500
C1 C 0.1625(4) 0.3301(4) 0.4861(4)
C2 C 0.0818(5) 0.3231(5) 0.5678(5)
H1 H 0.1132 0.3068 0.6552
C3 C -0.0460(5) 0.3405(6) 0.5181(5)
H2 H -0.1050 0.3370 0.5712
C4 C -0.0881(5) 0.3634(6) 0.3899(5)
H3 H -0.1760 0.3774 0.3547
C5 C -0.0025(4) 0.3657(4) 0.3147(4)
H4 H -0.0322 0.3793 0.2265
C6 C 0.1694(4) 0.5925(3) 0.1595(4)
H5 H 0.1121 0.5497 0.0951
C7 C 0.1676(4) 0.7164(3) 0.1575(4)
H6 H 0.1094 0.7575 0.0923
C8 C 0.2500 0.7810(4) 0.2500
C9 C 0.2500 0.9153(5) 0.2500
C10 C 0.1394(4) 0.9779(3) 0.2064(4)
H7 H 0.0615 0.9366 0.1753
C11 C 0.1427(4) 1.1018(4) 0.2082(4)
H8 H 0.0655 1.1447 0.1786
C7A C 0.3324(4) 0.7164(3) 0.3425(4)
C6A C 0.3306(4) 0.5925(3) 0.3405(4)
H5A H 0.3879 0.5497 0.4049
H6A H 0.3906 0.7575 0.4077
C11A C 0.3573(4) 1.1018(4) 0.2918(4)
C10A C 0.3606(4) 0.9779(3) 0.2936(4)
H7A H 0.4385 0.9366 0.3247
H8A H 0.4345 1.1447 0.3214
S1A S 0.16860(9) 0.32389(9) -0.05085(9)
O1A O 0.1091(3) 0.3354(2) 0.0570(3)
O2A O 0.1454(3) 0.2096(3) -0.1135(3)
O3A O 0.1443(3) 0.4260(3) -0.1350(3)
N1A N 0.3773(3) 0.3491(3) 0.1382(3)
C1A C 0.3375(4) 0.3301(4) 0.0139(4)
C2A C 0.4182(5) 0.3231(5) -0.0678(5)
H1A H 0.3868 0.3068 -0.1552
C3A C 0.5460(5) 0.3405(6) -0.0181(5)
H2A H 0.6050 0.3370 -0.0712
C4A C 0.5881(5) 0.3634(6) 0.1101(5)
H3A H 0.6760 0.3774 0.1453
C5A C 0.5025(4) 0.3657(4) 0.1853(4)
H4A H 0.5322 0.3793 0.2735
N3_2 N 0.2500 0.1637(4) 0.2500
Cu1_2 Cu 0.2500 1.34771(5) 0.2500
O4 O 0.3001(14) -0.0529(13) 0.6171(16)
H9 H 0.3395 0.0137 0.6268
H10 H 0.2731 -0.0529 0.6850
loop_
_geom_bond_atom_site_label_1
_geom_bond_atom_site_label_2
_geom_bond_site_symmetry_1
_geom_bond_site_symmetry_2
Cu1 O1 1_555 1_555
S1 O1 1_555 1_555
O2 S1 1_555 1_555
O3 S1 1_555 1_555
N1 Cu1 1_555 1_555
N2 Cu1 1_555 1_555
N3 C11 1_555 1_555
C1 S1 1_555 1_555
C2 C1 1_555 1_555
H1 C2 1_555 1_555
C3 C2 1_555 1_555
H2 C3 1_555 1_555
C4 C3 1_555 1_555
H3 C4 1_555 1_555
C5 N1 1_555 1_555
H4 C5 1_555 1_555
C6 N2 1_555 1_555
H5 C6 1_555 1_555
C7 C6 1_555 1_555
H6 C7 1_555 1_555
C8 C7 1_555 1_555
C9 C8 1_555 1_555
C10 C9 1_555 1_555
H7 C10 1_555 1_555
C11 C10 1_555 1_555
H8 C11 1_555 1_555
O4 H9 1_555 1_555
H10 O4 1_555 1_555
C7A C8 1_555 1_555
C6A N2 1_555 1_555
H5A C6A 1_555 1_555
H6A C7A 1_555 1_555
C11A N3 1_555 1_555
C10A C9 1_555 1_555
H7A C10A 1_555 1_555
H8A C11A 1_555 1_555
S1A O1A 1_555 1_555
O1A Cu1 1_555 1_555
O2A S1A 1_555 1_555
O3A S1A 1_555 1_555
N1A Cu1 1_555 1_555
C1A S1A 1_555 1_555
C2A C1A 1_555 1_555
H1A C2A 1_555 1_555
C3A C2A 1_555 1_555
H2A C3A 1_555 1_555
C4A C3A 1_555 1_555
H3A C4A 1_555 1_555
C5A N1A 1_555 1_555
H4A C5A 1_555 1_555
N3_2 Cu1 1_555 1_555
Cu1_2 N3 1_555 1_555
N1 C1 1_555 1_555
C4 C5 1_555 1_555
C7A C6A 1_555 1_555
C11A C10A 1_555 1_555
N1A C1A 1_555 1_555
C4A C5A 1_555 1_555

#END
