
#######################################################################
#
#                 Cambridge Crystallographic Data Centre
#                                CCDC 
#
#######################################################################
#
# If this CIF has been generated from an entry in the Cambridge 
# Structural Database, then it will include bibliographic, chemical, 
# crystal, experimental, refinement or atomic coordinate data resulting 
# from the CCDC's data processing and validation procedures.
#
#######################################################################

data_DOGZIJ
_symmetry_cell_setting           triclinic
_symmetry_space_group_name_H-M   'P -1'
_symmetry_Int_Tables_number      2
_space_group_name_Hall           '-P 1'
loop_
_symmetry_equiv_pos_site_id
_symmetry_equiv_pos_as_xyz
1 x,y,z
2 -x,-y,-z
_cell_length_a                   8.473(3)
_cell_length_b                   10.154(3)
_cell_length_c                   13.397(3)
_cell_angle_alpha                68.21(3)
_cell_angle_beta                 78.64(3)
_cell_angle_gamma                77.46(4)
_cell_volume                     1036.08
loop_
_atom_site_label
_atom_site_type_symbol
_atom_site_fract_x
_atom_site_fract_y
_atom_site_fract_z
Zn1 Zn 0.05663(3) 0.56485(2) 0.841776(19)
N1 N -0.1657(2) 0.65753(19) 0.80511(14)
C1 C -0.2735(3) 0.7338(3) 0.8562(2)
H1 H -0.2552 0.7477 0.9175
N2 N -0.4083(2) 0.7880(2) 0.81237(15)
C2 C -0.3872(4) 0.7478(5) 0.7252(3)
H2 H -0.4615 0.7709 0.6763
C3 C -0.2385(4) 0.6679(4) 0.7218(3)
H3 H -0.1930 0.6261 0.6694
C4 C -0.5566(3) 0.8738(3) 0.8504(2)
H4 H -0.6388 0.8136 0.8855
H5 H -0.5980 0.9500 0.7891
C5 C -0.5230(3) 0.9374(2) 0.92895(19)
C6 C -0.4759(3) 1.0729(3) 0.88778(19)
C7 C -0.5456(3) 0.8627(2) 1.0404(2)
C8 C -0.4435(4) 1.1486(3) 0.7671(2)
H6 H -0.4331 1.0813 0.7304
H7 H -0.3445 1.1882 0.7502
H8 H -0.5325 1.2245 0.7438
C9 C -0.5865(4) 0.7113(3) 1.0857(2)
H9 H -0.5863 0.6786 1.0270
H10 H -0.6923 0.7112 1.1276
H11 H -0.5065 0.6485 1.1310
O1 O 0.10287(18) 0.68771(14) 0.91435(11)
C10 C 0.0135(2) 0.71804(19) 0.99246(15)
O2 O -0.07341(19) 0.63648(14) 1.06617(12)
C11 C 0.0061(2) 0.86516(18) 0.99596(15)
C12 C 0.0463(2) 0.97632(19) 0.90227(15)
H12 H 0.0764 0.9600 0.8367
C13 C -0.0418(3) 0.8886(2) 1.09445(15)
H13 H -0.0704 0.8141 1.1572
O3 O 0.24455(18) 0.57106(15) 0.73216(11)
C14 C 0.2278(3) 0.5116(2) 0.66656(16)
O4 O 0.1040(2) 0.46161(18) 0.67306(12)
C15 C 0.3685(3) 0.5065(2) 0.57965(15)
C16 C 0.3491(3) 0.4807(2) 0.48900(17)
H14 H 0.2477 0.4674 0.4811
C17 C 0.5199(3) 0.5253(2) 0.59011(16)
H15 H 0.5342 0.5423 0.6511
Zn1A Zn -1.05663(3) 1.43515(2) 1.158224(19)
Zn1A_2 Zn -0.05663(3) 0.43515(2) 1.158224(19)
Zn1A_3 Zn -0.05663(3) 1.43515(2) 1.158224(19)
Zn1_2 Zn 0.05663(3) 1.56485(2) 0.841776(19)
Zn1A_4 Zn 0.94337(3) 0.43515(2) 0.158224(19)
N1A N -0.8343(2) 1.34247(19) 1.19489(14)
C1A C -0.7265(3) 1.2662(3) 1.1438(2)
H1A H -0.7448 1.2523 1.0825
N2A N -0.5917(2) 1.2120(2) 1.18763(15)
C2A C -0.6128(4) 1.2522(5) 1.2748(3)
H2A H -0.5385 1.2291 1.3237
C3A C -0.7615(4) 1.3321(4) 1.2782(3)
H3A H -0.8070 1.3739 1.3306
C4A C -0.4434(3) 1.1262(3) 1.1496(2)
H4A H -0.3612 1.1864 1.1145
H5A H -0.4020 1.0500 1.2109
C5A C -0.4770(3) 1.0626(2) 1.07105(19)
C6A C -0.5241(3) 0.9271(3) 1.11222(19)
C7A C -0.4544(3) 1.1373(2) 0.9596(2)
C8A C -0.5565(4) 0.8514(3) 1.2329(2)
H6A H -0.5669 0.9187 1.2696
H7A H -0.6555 0.8118 1.2498
H8A H -0.4675 0.7755 1.2562
C9A C -0.4135(4) 1.2887(3) 0.9143(2)
H9A H -0.4137 1.3214 0.9730
H10A H -0.3077 1.2888 0.8724
H11A H -0.4935 1.3515 0.8690
O1A O -0.10287(18) 1.31229(14) 1.08565(11)
O1A_2 O -1.10287(18) 1.31229(14) 1.08565(11)
C10A C -0.0135(2) 1.28196(19) 1.00754(15)
O2A O 0.07341(19) 1.36352(14) 0.93383(12)
O2A_2 O 0.07341(19) 0.36352(14) 0.93383(12)
O2_2 O -1.07341(19) 1.63648(14) 1.06617(12)
C11A C -0.0061(2) 1.13484(18) 1.00404(15)
C12A C -0.0463(2) 1.02368(19) 1.09773(15)
H12A H -0.0764 1.0400 1.1633
C13A C 0.0418(3) 1.1114(2) 0.90555(15)
H13A H 0.0704 1.1859 0.8428
O3A O 0.75545(18) 0.42894(15) 0.26784(11)
O3A_2 O -1.24455(18) 1.42894(15) 1.26784(11)
C14A C 0.7722(3) 0.4884(2) 0.33344(16)
O4A O 0.8960(2) 0.53839(18) 0.32694(12)
C15A C 0.6315(3) 0.4935(2) 0.42035(15)
C16A C 0.6509(3) 0.5193(2) 0.51100(17)
H14A H 0.7523 0.5326 0.5189
C17A C 0.4801(3) 0.4747(2) 0.40989(16)
H15A H 0.4658 0.4577 0.3489
O5 O -0.0193(3) 0.7148(2) 0.40352(17)
H16 H -0.058(4) 0.668(3) 0.378(2)
C18 C -0.1156(4) 0.8361(3) 0.40132(19)
O6 O -0.2406(3) 0.8756(2) 0.36328(18)
C19 C -0.0529(3) 0.9202(2) 0.45201(19)
C20 C 0.0948(4) 0.8749(3) 0.4912(2)
H17 H 0.1598 0.7912 0.4849
C21 C -0.1471(4) 1.0467(3) 0.4602(3)
H18 H -0.2464 1.0790 0.4326
O5A O 0.0193(3) 1.2852(2) 0.59648(17)
H16A H 0.058(4) 1.332(3) 0.622(2)
C18A C 0.1156(4) 1.1639(3) 0.59868(19)
O6A O 0.2406(3) 1.1244(2) 0.63672(18)
C19A C 0.0529(3) 1.0798(2) 0.54799(19)
C20A C -0.0948(4) 1.1251(3) 0.5088(2)
H17A H -0.1598 1.2088 0.5151
C21A C 0.1471(4) 0.9533(3) 0.5398(3)
H18A H 0.2464 0.9210 0.5674
loop_
_geom_bond_atom_site_label_1
_geom_bond_atom_site_label_2
_geom_bond_site_symmetry_1
_geom_bond_site_symmetry_2
Zn1 N1 1_555 1_555
N1 C1 1_555 1_555
C1 H1 1_555 1_555
N2 C1 1_555 1_555
C2 N2 1_555 1_555
H2 C2 1_555 1_555
C3 N1 1_555 1_555
H3 C3 1_555 1_555
C4 N2 1_555 1_555
H4 C4 1_555 1_555
H5 C4 1_555 1_555
C5 C4 1_555 1_555
C6 C5 1_555 1_555
C7 C5 1_555 1_555
C8 C6 1_555 1_555
H6 C8 1_555 1_555
H7 C8 1_555 1_555
H8 C8 1_555 1_555
C9 C7 1_555 1_555
H9 C9 1_555 1_555
H10 C9 1_555 1_555
H11 C9 1_555 1_555
O1 Zn1 1_555 1_555
C10 O1 1_555 1_555
O2 C10 1_555 1_555
C11 C10 1_555 1_555
C12 C11 1_555 1_555
H12 C12 1_555 1_555
C13 C11 1_555 1_555
H13 C13 1_555 1_555
O3 Zn1 1_555 1_555
C14 O3 1_555 1_555
O4 C14 1_555 1_555
C15 C14 1_555 1_555
C16 C15 1_555 1_555
H14 C16 1_555 1_555
C17 C15 1_555 1_555
H15 C17 1_555 1_555
O5 H16 1_555 1_555
C18 O5 1_555 1_555
O6 C18 1_555 1_555
C19 C18 1_555 1_555
C20 C19 1_555 1_555
H17 C20 1_555 1_555
C21 C19 1_555 1_555
H18 C21 1_555 1_555
Zn1A N1A 1_555 1_555
Zn1A_2 O2 1_555 1_555
Zn1A_3 O1A 1_555 1_555
Zn1_2 O2A 1_555 1_555
Zn1A_4 O3A 1_555 1_555
N1A C1A 1_555 1_555
C1A H1A 1_555 1_555
N2A C1A 1_555 1_555
C2A N2A 1_555 1_555
H2A C2A 1_555 1_555
C3A N1A 1_555 1_555
H3A C3A 1_555 1_555
C4A N2A 1_555 1_555
H4A C4A 1_555 1_555
H5A C4A 1_555 1_555
C5A C4A 1_555 1_555
C6A C7 1_555 1_555
C7A C6 1_555 1_555
C8A C6A 1_555 1_555
H6A C8A 1_555 1_555
H7A C8A 1_555 1_555
H8A C8A 1_555 1_555
C9A C7A 1_555 1_555
H9A C9A 1_555 1_555
H10A C9A 1_555 1_555
H11A C9A 1_555 1_555
O1A C10A 1_555 1_555
O1A_2 Zn1A 1_555 1_555
C10A O2A 1_555 1_555
O2A_2 Zn1 1_555 1_555
O2_2 Zn1A 1_555 1_555
C11A C10A 1_555 1_555
C12A C13 1_555 1_555
H12A C12A 1_555 1_555
C13A C12 1_555 1_555
H13A C13A 1_555 1_555
O3A C14A 1_555 1_555
O3A_2 Zn1A 1_555 1_555
C14A O4A 1_555 1_555
C15A C14A 1_555 1_555
C16A C17 1_555 1_555
H14A C16A 1_555 1_555
C17A C16 1_555 1_555
H15A C17A 1_555 1_555
O5A H16A 1_555 1_555
C18A O5A 1_555 1_555
O6A C18A 1_555 1_555
C19A C18A 1_555 1_555
C20A C21 1_555 1_555
H17A C20A 1_555 1_555
C21A C20 1_555 1_555
H18A C21A 1_555 1_555
C2 C3 1_555 1_555
C2A C3A 1_555 1_555
C5A C6A 1_555 1_555
C5A C7A 1_555 1_555
C11A C12A 1_555 1_555
C11A C13A 1_555 1_555
C15A C16A 1_555 1_555
C15A C17A 1_555 1_555
C19A C20A 1_555 1_555
C19A C21A 1_555 1_555

#END
