
#######################################################################
#
#                 Cambridge Crystallographic Data Centre
#                                CCDC 
#
#######################################################################
#
# If this CIF has been generated from an entry in the Cambridge 
# Structural Database, then it will include bibliographic, chemical, 
# crystal, experimental, refinement or atomic coordinate data resulting 
# from the CCDC's data processing and validation procedures.
#
#######################################################################

data_DOJXIL
_symmetry_cell_setting           monoclinic
_symmetry_space_group_name_H-M   'C 2/c'
_symmetry_Int_Tables_number      15
_space_group_name_Hall           '-C 2yn'
loop_
_symmetry_equiv_pos_site_id
_symmetry_equiv_pos_as_xyz
1 x,y,z
2 -x,y,1/2-z
3 1/2+x,1/2+y,z
4 1/2-x,1/2+y,1/2-z
5 -x,-y,-z
6 x,-y,1/2+z
7 1/2-x,1/2-y,-z
8 1/2+x,1/2-y,1/2+z
_cell_length_a                   27.4601(15)
_cell_length_b                   14.8337(7)
_cell_length_c                   15.0974(7)
_cell_angle_alpha                90
_cell_angle_beta                 112.024(7)
_cell_angle_gamma                90
_cell_volume                     5700.93
loop_
_atom_site_label
_atom_site_type_symbol
_atom_site_fract_x
_atom_site_fract_y
_atom_site_fract_z
Ni1 Ni 0.93152(2) 0.75331(4) -0.30153(4)
O1 O 0.95785(14) 0.6513(2) -0.2046(2)
O2 O 1.03918(13) 0.6918(2) -0.1080(2)
O3 O 1.0000 0.8316(3) -0.2500
O4 O 0.89739(13) 0.8453(2) 0.5898(2)
O5 O 0.96879(14) 0.9219(3) 0.5953(3)
N1 N 0.90039(17) 0.8126(3) -0.2103(3)
N2 N 0.78965(18) 0.9637(3) -0.0541(3)
N3 N 0.63590(16) 1.1748(3) -0.1339(3)
C1 C 0.9290(2) 0.8190(4) -0.1162(4)
H1 H 0.9638 0.8001 -0.0939
C2 C 0.9094(2) 0.8524(4) -0.0509(4)
H2 H 0.9308 0.8565 0.0134
C3 C 0.8574(2) 0.8796(3) -0.0819(4)
C4 C 0.8276(2) 0.8731(4) -0.1796(4)
H3 H 0.7926 0.8909 -0.2036
C5 C 0.8505(2) 0.8402(4) -0.2400(4)
H4 H 0.8302 0.8370 -0.3049
C6 C 0.8342(2) 0.9176(4) -0.0149(4)
C7 C 0.8584(2) 0.9050(4) 0.0835(4)
H5 H 0.8905 0.8753 0.1094
C8 C 0.8339(2) 0.9375(4) 0.1419(4)
C9 C 0.7878(2) 0.9852(4) 0.1008(4)
H6 H 0.7704 1.0072 0.1385
C10 C 0.7676(2) 1.0002(4) 0.0038(4)
C11 C 0.7212(2) 1.0589(4) -0.0430(4)
C12 C 0.7004(2) 1.0693(4) -0.1419(4)
H7 H 0.7148 1.0380 -0.1796
C13 C 0.6982(2) 1.1089(4) 0.0086(4)
H8 H 0.7109 1.1046 0.0749
C14 C 0.8573(2) 0.9229(4) 0.2470(4)
C15 C 0.8270(2) 0.8895(4) 0.2961(4)
H9 H 0.7918 0.8755 0.2625
C16 C 0.9101(2) 0.9445(4) 0.2985(4)
H10 H 0.9310 0.9655 0.2667
C17 C 0.9547(3) 0.5268(6) -0.0692(6)
H11 H 0.9231 0.5443 -0.1162
C18 C 1.0450(3) 0.5424(6) 0.0066(6)
H12 H 1.0763 0.5707 0.0126
C19 C 0.9992(2) 0.5687(4) -0.0633(4)
C20 C 0.99898(19) 0.6431(3) -0.1311(3)
C21 C 0.9239(2) 0.8886(3) 0.5513(4)
C22 C 0.9003(2) 0.9004(3) 0.4450(4)
C23 C 0.9312(2) 0.9344(4) 0.3969(4)
H13 H 0.9659 0.9503 0.4311
C24 C 0.8484(2) 0.8769(4) 0.3934(4)
H14 H 0.8281 0.8527 0.4248
C25 C 0.6558(2) 1.1658(4) -0.0397(4)
H15 H 0.6408 1.1988 -0.0039
C26 C 0.6582(2) 1.1267(4) -0.1838(4)
H16 H 0.6445 1.1321 -0.2500
O1D O 1.04215(14) 0.3487(2) 0.2046(2)
C17D C 1.0453(3) 0.4732(6) 0.0692(6)
H11D H 1.0769 0.4557 0.1162
C18D C 0.9550(3) 0.4576(6) -0.0066(6)
H12D H 0.9237 0.4293 -0.0126
C19D C 1.0008(2) 0.4313(4) 0.0633(4)
C20D C 1.00102(19) 0.3569(3) 0.1311(3)
O2D O 0.96082(13) 0.3082(2) 0.1080(2)
Ni1A Ni 1.06848(2) 0.75331(4) -0.19847(4)
O4A O 1.10261(13) 0.8453(2) -1.0898(2)
O5A O 1.03121(14) 0.9219(3) -1.0953(3)
N1A N 1.09961(17) 0.8126(3) -0.2897(3)
N2A N 1.21035(18) 0.9637(3) -0.4459(3)
N3A N 1.36410(16) 1.1748(3) -0.3661(3)
C1A C 1.0710(2) 0.8190(4) -0.3838(4)
H1A H 1.0362 0.8001 -0.4061
C2A C 1.0906(2) 0.8524(4) -0.4491(4)
H2A H 1.0692 0.8565 -0.5134
C3A C 1.1426(2) 0.8796(3) -0.4181(4)
C4A C 1.1724(2) 0.8731(4) -0.3204(4)
H3A H 1.2074 0.8909 -0.2964
C5A C 1.1495(2) 0.8402(4) -0.2600(4)
H4A H 1.1698 0.8370 -0.1951
C6A C 1.1658(2) 0.9176(4) -0.4851(4)
C7A C 1.1416(2) 0.9050(4) -0.5835(4)
H5A H 1.1095 0.8753 -0.6094
C8A C 1.1661(2) 0.9375(4) -0.6419(4)
C9A C 1.2122(2) 0.9852(4) -0.6008(4)
H6A H 1.2296 1.0072 -0.6385
C10A C 1.2324(2) 1.0002(4) -0.5038(4)
C11A C 1.2788(2) 1.0589(4) -0.4570(4)
C12A C 1.2996(2) 1.0693(4) -0.3581(4)
H7A H 1.2852 1.0380 -0.3204
C13A C 1.3018(2) 1.1089(4) -0.5086(4)
H8A H 1.2891 1.1046 -0.5749
C14A C 1.1427(2) 0.9229(4) -0.7470(4)
C15A C 1.1730(2) 0.8895(4) -0.7961(4)
H9A H 1.2082 0.8755 -0.7625
C16A C 1.0899(2) 0.9445(4) -0.7985(4)
H10A H 1.0690 0.9655 -0.7667
C21A C 1.0761(2) 0.8886(3) -1.0513(4)
C22A C 1.0997(2) 0.9004(3) -0.9450(4)
C23A C 1.0688(2) 0.9344(4) -0.8969(4)
H13A H 1.0341 0.9503 -0.9311
C24A C 1.1516(2) 0.8769(4) -0.8934(4)
H14A H 1.1719 0.8527 -0.9248
C25A C 1.3442(2) 1.1658(4) -0.4603(4)
H15A H 1.3592 1.1988 -0.4961
C26A C 1.3418(2) 1.1267(4) -0.3162(4)
H16A H 1.3555 1.1321 -0.2500
Ni1_2 Ni 0.93152(2) 0.75331(4) 0.69847(4)
Ni1A_2 Ni 1.06848(2) 0.75331(4) -1.19847(4)
Ni1B Ni 1.43152(2) 1.25331(4) -0.30153(4)
Ni1C Ni 0.56848(2) 1.25331(4) -0.19847(4)
Ni1D Ni 1.06848(2) 0.24669(4) 0.30153(4)
Ni1E Ni 0.93152(2) 0.24669(4) 0.19847(4)
O1A O 1.04215(14) 0.6513(2) -0.2954(2)
O2A O 0.96082(13) 0.6918(2) -0.3920(2)
O4_2 O 0.89739(13) 0.8453(2) -0.4102(2)
O4A_2 O 1.10261(13) 0.8453(2) -0.0898(2)
N3B N 1.13590(16) 0.6748(3) -0.1339(3)
N3C N 0.86410(16) 0.6748(3) -0.3661(3)
loop_
_geom_bond_atom_site_label_1
_geom_bond_atom_site_label_2
_geom_bond_site_symmetry_1
_geom_bond_site_symmetry_2
Ni1 O1 1_555 1_555
O1 C20 1_555 1_555
O2 C20 1_555 1_555
O3 Ni1 1_555 1_555
O4 C21 1_555 1_555
O5 C21 1_555 1_555
N1 Ni1 1_555 1_555
N2 C6 1_555 1_555
N3 C25 1_555 1_555
C1 N1 1_555 1_555
H1 C1 1_555 1_555
C2 C1 1_555 1_555
H2 C2 1_555 1_555
C3 C2 1_555 1_555
C4 C3 1_555 1_555
H3 C4 1_555 1_555
C5 N1 1_555 1_555
H4 C5 1_555 1_555
C6 C3 1_555 1_555
C7 C6 1_555 1_555
H5 C7 1_555 1_555
C8 C7 1_555 1_555
C9 C8 1_555 1_555
H6 C9 1_555 1_555
C10 N2 1_555 1_555
C11 C10 1_555 1_555
C12 C11 1_555 1_555
H7 C12 1_555 1_555
C13 C11 1_555 1_555
H8 C13 1_555 1_555
C14 C8 1_555 1_555
C15 C14 1_555 1_555
H9 C15 1_555 1_555
C16 C14 1_555 1_555
H10 C16 1_555 1_555
C17 H11 1_555 1_555
C18 H12 1_555 1_555
C19 C17 1_555 1_555
C20 C19 1_555 1_555
C21 C22 1_555 1_555
C22 C23 1_555 1_555
C23 C16 1_555 1_555
H13 C23 1_555 1_555
C24 C15 1_555 1_555
H14 C24 1_555 1_555
C25 C13 1_555 1_555
H15 C25 1_555 1_555
C26 N3 1_555 1_555
H16 C26 1_555 1_555
O1D C20D 1_555 1_555
C17D C18 1_555 1_555
H11D C17D 1_555 1_555
C18D C17 1_555 1_555
H12D C18D 1_555 1_555
C19D C17D 1_555 1_555
C20D C19D 1_555 1_555
O2D C20D 1_555 1_555
Ni1A O2 1_555 1_555
O4A C21A 1_555 1_555
O5A C21A 1_555 1_555
N1A Ni1A 1_555 1_555
N2A C6A 1_555 1_555
N3A C25A 1_555 1_555
C1A N1A 1_555 1_555
H1A C1A 1_555 1_555
C2A C1A 1_555 1_555
H2A C2A 1_555 1_555
C3A C2A 1_555 1_555
C4A C3A 1_555 1_555
H3A C4A 1_555 1_555
C5A N1A 1_555 1_555
H4A C5A 1_555 1_555
C6A C3A 1_555 1_555
C7A C6A 1_555 1_555
H5A C7A 1_555 1_555
C8A C7A 1_555 1_555
C9A C8A 1_555 1_555
H6A C9A 1_555 1_555
C10A N2A 1_555 1_555
C11A C10A 1_555 1_555
C12A C11A 1_555 1_555
H7A C12A 1_555 1_555
C13A C11A 1_555 1_555
H8A C13A 1_555 1_555
C14A C8A 1_555 1_555
C15A C14A 1_555 1_555
H9A C15A 1_555 1_555
C16A C14A 1_555 1_555
H10A C16A 1_555 1_555
C21A C22A 1_555 1_555
C22A C23A 1_555 1_555
C23A C16A 1_555 1_555
H13A C23A 1_555 1_555
C24A C15A 1_555 1_555
H14A C24A 1_555 1_555
C25A C13A 1_555 1_555
H15A C25A 1_555 1_555
C26A N3A 1_555 1_555
H16A C26A 1_555 1_555
Ni1_2 O4 1_555 1_555
Ni1A_2 O4A 1_555 1_555
Ni1B N3A 1_555 1_555
Ni1C N3 1_555 1_555
Ni1D O1D 1_555 1_555
Ni1E O2D 1_555 1_555
O1A Ni1A 1_555 1_555
O2A Ni1 1_555 1_555
O4_2 Ni1 1_555 1_555
O4A_2 Ni1A 1_555 1_555
N3B Ni1A 1_555 1_555
N3C Ni1 1_555 1_555
O3 Ni1A 1_555 1_555
C4 C5 1_555 1_555
C9 C10 1_555 1_555
C12 C26 1_555 1_555
C18 C19 1_555 1_555
C22 C24 1_555 1_555
C18D C19D 1_555 1_555
C4A C5A 1_555 1_555
C9A C10A 1_555 1_555
C12A C26A 1_555 1_555
C22A C24A 1_555 1_555

#END
