
#######################################################################
#
#                 Cambridge Crystallographic Data Centre
#                                CCDC 
#
#######################################################################
#
# If this CIF has been generated from an entry in the Cambridge 
# Structural Database, then it will include bibliographic, chemical, 
# crystal, experimental, refinement or atomic coordinate data resulting 
# from the CCDC's data processing and validation procedures.
#
#######################################################################

data_DOLRAZ
_symmetry_cell_setting           monoclinic
_symmetry_space_group_name_H-M   'P 21/c'
_symmetry_Int_Tables_number      14
_space_group_name_Hall           '-P 2ybc'
loop_
_symmetry_equiv_pos_site_id
_symmetry_equiv_pos_as_xyz
1 x,y,z
2 -x,1/2+y,1/2-z
3 -x,-y,-z
4 x,1/2-y,1/2+z
_cell_length_a                   11.3593(4)
_cell_length_b                   22.5823(8)
_cell_length_c                   16.5923(5)
_cell_angle_alpha                90
_cell_angle_beta                 92.129(2)
_cell_angle_gamma                90
_cell_volume                     4253.3
loop_
_atom_site_label
_atom_site_type_symbol
_atom_site_fract_x
_atom_site_fract_y
_atom_site_fract_z
C35 C 0.151(2) 0.1576(12) 0.8123(15)
H21 H 0.1716 0.1916 0.8434
C36 C 0.214(2) 0.0749(10) 0.7307(14)
H22 H 0.1420 0.0860 0.6995
H23 H 0.2035 0.0354 0.7539
H24 H 0.2807 0.0746 0.6953
C37 C 0.3518(13) 0.1235(7) 0.8267(9)
H25 H 0.4000 0.1434 0.7870
H26 H 0.3846 0.0842 0.8387
H27 H 0.3517 0.1471 0.8763
N1 N 0.2350(14) 0.1176(7) 0.7951(9)
O16 O 0.036(2) 0.1491(9) 0.7848(13)
C38 C 0.0301(13) 0.2741(11) 0.7374(9)
H28 H 0.0869 0.2832 0.7816
H29 H 0.0172 0.3095 0.7040
H30 H 0.0610 0.2421 0.7044
C39 C -0.1188(14) 0.2687(11) 0.8425(9)
H31 H -0.0530 0.2793 0.8796
H32 H -0.1593 0.2339 0.8633
H33 H -0.1741 0.3019 0.8380
N2 N -0.0774(10) 0.2563(7) 0.7694(7)
H34 H -0.1347 0.2693 0.7330
H35 H -0.0778 0.2156 0.7659
O17 O 0.103(3) 0.0364(17) 0.239(2)
O18 O -0.010(5) 0.055(2) 0.307(3)
O19 O 0.2394(15) 0.3713(8) 0.6257(10)
C1 C 0.4140(6) 0.1169(3) 0.5151(4)
C2 C 0.4206(7) 0.0597(3) 0.5647(4)
C3 C 0.3538(7) 0.0135(3) 0.5384(4)
H1 H 0.3087 0.0176 0.4894
C4 C 0.3487(7) -0.0399(3) 0.5804(5)
H2 H 0.2986 -0.0708 0.5608
C5 C 0.4149(7) -0.0479(3) 0.6493(4)
C6 C 0.4893(8) -0.0008(3) 0.6807(5)
C7 C 0.4925(7) 0.0539(3) 0.6375(5)
C8 C 0.5674(8) 0.0989(4) 0.6704(5)
H3 H 0.5738 0.1351 0.6418
C9 C 0.6291(10) 0.0924(4) 0.7399(6)
H4 H 0.6773 0.1239 0.7599
C10 C 0.6230(11) 0.0386(5) 0.7840(6)
H5 H 0.6661 0.0340 0.8337
C11 C 0.5540(9) -0.0065(4) 0.7537(5)
H6 H 0.5501 -0.0426 0.7829
C12 C 0.4118(7) -0.1060(3) 0.6923(4)
C13 C 0.5285(6) 0.3793(3) 0.5606(4)
C14 C 0.4029(8) 0.4631(4) 0.5075(6)
C15 C 0.5139(7) 0.4421(3) 0.5291(4)
C16 C 0.6109(9) 0.4777(4) 0.5233(6)
C17 C 0.7324(19) 0.4571(9) 0.5419(16)
H7 H 0.7422 0.4182 0.5629
C18 C 0.836(2) 0.4915(12) 0.5305(19)
H8 H 0.9102 0.4751 0.5476
C19 C 0.2086(6) 0.2384(3) 0.4777(4)
C20 C 0.0861(6) 0.2402(3) 0.5095(4)
C21 C 0.0313(7) 0.2920(4) 0.5207(5)
H9 H 0.0732 0.3276 0.5113
C22 C -0.0851(7) 0.2961(4) 0.5454(5)
H10 H -0.1210 0.3337 0.5516
C23 C -0.1470(6) 0.2452(3) 0.5608(4)
C24 C -0.0936(7) 0.1893(3) 0.5523(5)
C25 C 0.0254(7) 0.1861(3) 0.5264(5)
C26 C 0.0804(8) 0.1298(4) 0.5194(7)
H11 H 0.1585 0.1272 0.5012
C27 C 0.0209(9) 0.0793(5) 0.5388(8)
H12 H 0.0582 0.0419 0.5340
C28 C -0.0958(9) 0.0823(4) 0.5659(7)
H13 H -0.1354 0.0471 0.5805
C29 C -0.1514(8) 0.1355(4) 0.5712(6)
H14 H -0.2305 0.1366 0.5878
C30 C -0.2699(6) 0.2506(3) 0.5911(4)
C31 C 0.5620(7) 0.2622(3) 0.3728(4)
H15 H 0.5984 0.2937 0.4024
C32 C 0.3556(7) 0.2492(3) 0.6950(4)
H16 H 0.3049 0.2214 0.6682
O1 O 0.4334(5) 0.1642(2) 0.5522(3)
O2 O 0.3845(5) 0.1124(2) 0.4429(3)
O3 O 0.2404(5) 0.1176(3) 0.2966(3)
H17 H 0.2361 0.0943 0.2525
H18 H 0.1769 0.1038 0.3218
O4 O 0.5080(4) -0.1338(2) 0.7101(3)
O5 O 0.3149(5) -0.1267(2) 0.7135(3)
O6 O 0.5781(5) 0.3732(2) 0.6278(3)
O7 O 0.4865(4) 0.3392(2) 0.5164(3)
O8 O 0.2857(4) 0.2665(2) 0.5178(3)
O9 O 0.2224(4) 0.2111(2) 0.4142(3)
O10 O -0.2757(4) 0.2693(2) 0.6625(3)
O11 O -0.3547(4) 0.2376(2) 0.5455(3)
O12 O 0.4827(4) 0.2348(2) 0.4077(3)
O13 O 0.5992(4) 0.2532(2) 0.3039(3)
O14 O 0.4471(4) 0.2650(2) 0.6583(3)
O15 O 0.3271(4) 0.2664(2) 0.7611(3)
Mg1 Mg 0.4641(2) 0.25056(10) 0.53215(13)
Mg2 Mg 0.5857(2) 0.30844(10) 0.71407(13)
Mg3 Mg 0.3602(2) 0.17429(10) 0.35431(13)
H19 H 0.2975 0.3912 0.5372
C33 C 0.2884(14) 0.4308(8) 0.5187(16)
H20 H 0.0966 0.4276 0.5192
C34 C 0.1642(17) 0.4499(11) 0.5059(19)
C13B C 0.4715(6) 0.6207(3) 0.4394(4)
C14B C 0.5971(8) 0.5369(4) 0.4925(6)
C15B C 0.4861(7) 0.5579(3) 0.4709(4)
C16B C 0.3891(9) 0.5223(4) 0.4767(6)
C17B C 0.2676(19) 0.5429(9) 0.4581(16)
H7B H 0.2578 0.5818 0.4371
C18B C 0.164(2) 0.5085(12) 0.4695(19)
H8B H 0.0898 0.5249 0.4524
O6B O 0.4219(5) 0.6268(2) 0.3722(3)
O7B O 0.5135(4) 0.6608(2) 0.4836(3)
H19B H 0.7025 0.6088 0.4628
C33B C 0.7116(14) 0.5692(8) 0.4813(16)
H20B H 0.9034 0.5724 0.4808
C34B C 0.8358(17) 0.5501(11) 0.4941(19)
C1B C 0.5860(6) -0.1169(3) 0.4849(4)
C2B C 0.5794(7) -0.0597(3) 0.4353(4)
C3B C 0.6462(7) -0.0135(3) 0.4616(4)
H1B H 0.6913 -0.0176 0.5106
C4B C 0.6513(7) 0.0399(3) 0.4196(5)
H2B H 0.7014 0.0708 0.4392
C5B C 0.5851(7) 0.0479(3) 0.3507(4)
C6B C 0.5107(8) 0.0008(3) 0.3193(5)
C7B C 0.5075(7) -0.0539(3) 0.3625(5)
C8B C 0.4326(8) -0.0989(4) 0.3296(5)
H3B H 0.4262 -0.1351 0.3582
C9B C 0.3709(10) -0.0924(4) 0.2601(6)
H4B H 0.3227 -0.1239 0.2401
C10B C 0.3770(11) -0.0386(5) 0.2160(6)
H5B H 0.3339 -0.0340 0.1663
C11B C 0.4460(9) 0.0065(4) 0.2463(5)
H6B H 0.4499 0.0426 0.2171
C12B C 0.5882(7) 0.1060(3) 0.3077(4)
C19B C 0.7914(6) -0.2384(3) 0.5223(4)
C20B C 0.9139(6) -0.2402(3) 0.4905(4)
C21B C 0.9687(7) -0.2920(4) 0.4793(5)
H9B H 0.9268 -0.3276 0.4887
C22B C 1.0851(7) -0.2961(4) 0.4546(5)
H10B H 1.1210 -0.3337 0.4484
C23B C 1.1470(6) -0.2452(3) 0.4392(4)
C24B C 1.0936(7) -0.1893(3) 0.4477(5)
C25B C 0.9746(7) -0.1861(3) 0.4736(5)
C26B C 0.9196(8) -0.1298(4) 0.4806(7)
H11B H 0.8415 -0.1272 0.4988
C27B C 0.9791(9) -0.0793(5) 0.4612(8)
H12B H 0.9418 -0.0419 0.4660
C28B C 1.0958(9) -0.0823(4) 0.4341(7)
H13B H 1.1354 -0.0471 0.4195
C29B C 1.1514(8) -0.1355(4) 0.4288(6)
H14B H 1.2305 -0.1366 0.4122
C30B C 1.2699(6) -0.2506(3) 0.4089(4)
C31B C 0.4380(7) -0.2622(3) 0.6272(4)
H15B H 0.4016 -0.2937 0.5976
C32B C 0.6444(7) -0.2492(3) 0.3050(4)
H16B H 0.6951 -0.2214 0.3318
O1B O 0.5666(5) -0.1642(2) 0.4478(3)
O2B O 0.6155(5) -0.1124(2) 0.5571(3)
O3B O 0.7596(5) -0.1176(3) 0.7034(3)
H17B H 0.7639 -0.0943 0.7475
H18B H 0.8231 -0.1038 0.6782
O4B O 0.4920(4) 0.1338(2) 0.2899(3)
O5B O 0.6851(5) 0.1267(2) 0.2865(3)
O8B O 0.7143(4) -0.2665(2) 0.4822(3)
O9B O 0.7776(4) -0.2111(2) 0.5858(3)
O10B O 1.2757(4) -0.2693(2) 0.3375(3)
O11B O 1.3547(4) -0.2376(2) 0.4545(3)
O12B O 0.5173(4) -0.2348(2) 0.5923(3)
O13B O 0.4008(4) -0.2532(2) 0.6961(3)
O14B O 0.5529(4) -0.2650(2) 0.3417(3)
O15B O 0.6729(4) -0.2664(2) 0.2389(3)
Mg1B Mg 0.5359(2) -0.25056(10) 0.46785(13)
Mg2B Mg 0.4143(2) -0.30844(10) 0.28593(13)
Mg3B Mg 0.6398(2) -0.17429(10) 0.64569(13)
O4A O 0.4920(4) 0.3662(2) 0.7899(3)
O4C O 0.5080(4) -0.3662(2) 0.2101(3)
O5A O 0.6851(5) 0.3733(2) 0.7865(3)
O5C O 0.3149(5) -0.3733(2) 0.2135(3)
O6B_2 O 0.4219(5) -0.3732(2) 0.3722(3)
O7B_2 O 0.5135(4) -0.3392(2) 0.4836(3)
O10_2 O 0.7243(4) 0.2693(2) 0.6625(3)
O10B_2 O 0.2757(4) -0.2693(2) 0.3375(3)
O11_2 O 0.6453(4) 0.2376(2) 0.5455(3)
O11B_2 O 0.3547(4) -0.2376(2) 0.4545(3)
O13A O 0.4008(4) -0.2468(2) 0.1961(3)
O13C O 0.5992(4) 0.2468(2) 0.8039(3)
O15A O 0.6729(4) -0.2336(2) 0.7389(3)
O15C O 0.3271(4) 0.2336(2) 0.2611(3)
Mg1_2 Mg -0.5359(2) 0.25056(10) 0.53215(13)
Mg1B_2 Mg 0.5359(2) 0.74944(10) 0.46785(13)
Mg1B_3 Mg 1.5359(2) -0.25056(10) 0.46785(13)
Mg2_2 Mg -0.4143(2) 0.30844(10) 0.71407(13)
Mg2A Mg 0.4143(2) -0.19156(10) 0.78593(13)
Mg2B_2 Mg 0.4143(2) 0.69156(10) 0.28593(13)
Mg2B_3 Mg 1.4143(2) -0.30844(10) 0.28593(13)
Mg2C Mg 0.5857(2) 0.19156(10) 0.21407(13)
Mg3A Mg 0.6398(2) -0.32571(10) 0.14569(13)
Mg3C Mg 0.3602(2) 0.32571(10) 0.85431(13)
loop_
_geom_bond_atom_site_label_1
_geom_bond_atom_site_label_2
_geom_bond_site_symmetry_1
_geom_bond_site_symmetry_2
C1 C2 1_555 1_555
C2 C3 1_555 1_555
C3 H1 1_555 1_555
C4 C3 1_555 1_555
H2 C4 1_555 1_555
C5 C4 1_555 1_555
C6 C5 1_555 1_555
C7 C2 1_555 1_555
C8 C7 1_555 1_555
H3 C8 1_555 1_555
C9 C8 1_555 1_555
H4 C9 1_555 1_555
C10 C9 1_555 1_555
H5 C10 1_555 1_555
C11 C6 1_555 1_555
H6 C11 1_555 1_555
C12 C5 1_555 1_555
C13 C15 1_555 1_555
C14 C15 1_555 1_555
C15 C16 1_555 1_555
C16 C17 1_555 1_555
C17 H7 1_555 1_555
C18 C17 1_555 1_555
H8 C18 1_555 1_555
C19 C20 1_555 1_555
C20 C21 1_555 1_555
C21 H9 1_555 1_555
C22 C21 1_555 1_555
H10 C22 1_555 1_555
C23 C22 1_555 1_555
C24 C23 1_555 1_555
C25 C20 1_555 1_555
C26 C25 1_555 1_555
H11 C26 1_555 1_555
C27 C26 1_555 1_555
H12 C27 1_555 1_555
C28 C27 1_555 1_555
H13 C28 1_555 1_555
C29 C24 1_555 1_555
H14 C29 1_555 1_555
C30 C23 1_555 1_555
C31 H15 1_555 1_555
C32 H16 1_555 1_555
O1 C1 1_555 1_555
O2 C1 1_555 1_555
O3 H17 1_555 1_555
H18 O3 1_555 1_555
O4 C12 1_555 1_555
O5 C12 1_555 1_555
O6 C13 1_555 1_555
O7 C13 1_555 1_555
O8 C19 1_555 1_555
O9 C19 1_555 1_555
O10 C30 1_555 1_555
O11 C30 1_555 1_555
O12 C31 1_555 1_555
O13 C31 1_555 1_555
O14 C32 1_555 1_555
O15 C32 1_555 1_555
Mg1 O1 1_555 1_555
Mg2 O6 1_555 1_555
Mg3 O2 1_555 1_555
H19 C33 1_555 1_555
C33 C14 1_555 1_555
H20 C34 1_555 1_555
C34 C33 1_555 1_555
C35 H21 1_555 1_555
C36 H22 1_555 1_555
H23 C36 1_555 1_555
H24 C36 1_555 1_555
C37 H25 1_555 1_555
H26 C37 1_555 1_555
H27 C37 1_555 1_555
N1 C35 1_555 1_555
O16 C35 1_555 1_555
C38 H28 1_555 1_555
H29 C38 1_555 1_555
H30 C38 1_555 1_555
C39 H31 1_555 1_555
H32 C39 1_555 1_555
H33 C39 1_555 1_555
N2 C38 1_555 1_555
H34 N2 1_555 1_555
H35 N2 1_555 1_555
C13B C15B 1_555 1_555
C14B C16 1_555 1_555
C15B C14B 1_555 1_555
C16B C14 1_555 1_555
C17B C16B 1_555 1_555
H7B C17B 1_555 1_555
C18B C34 1_555 1_555
H8B C18B 1_555 1_555
O6B C13B 1_555 1_555
O7B C13B 1_555 1_555
H19B C33B 1_555 1_555
C33B C14B 1_555 1_555
H20B C34B 1_555 1_555
C34B C18 1_555 1_555
C1B C2B 1_555 1_555
C2B C3B 1_555 1_555
C3B H1B 1_555 1_555
C4B C3B 1_555 1_555
H2B C4B 1_555 1_555
C5B C4B 1_555 1_555
C6B C5B 1_555 1_555
C7B C2B 1_555 1_555
C8B C7B 1_555 1_555
H3B C8B 1_555 1_555
C9B C8B 1_555 1_555
H4B C9B 1_555 1_555
C10B C9B 1_555 1_555
H5B C10B 1_555 1_555
C11B C6B 1_555 1_555
H6B C11B 1_555 1_555
C12B C5B 1_555 1_555
C19B C20B 1_555 1_555
C20B C21B 1_555 1_555
C21B H9B 1_555 1_555
C22B C21B 1_555 1_555
H10B C22B 1_555 1_555
C23B C22B 1_555 1_555
C24B C23B 1_555 1_555
C25B C20B 1_555 1_555
C26B C25B 1_555 1_555
H11B C26B 1_555 1_555
C27B C26B 1_555 1_555
H12B C27B 1_555 1_555
C28B C27B 1_555 1_555
H13B C28B 1_555 1_555
C29B C24B 1_555 1_555
H14B C29B 1_555 1_555
C30B C23B 1_555 1_555
C31B H15B 1_555 1_555
C32B H16B 1_555 1_555
O1B C1B 1_555 1_555
O2B C1B 1_555 1_555
O3B H17B 1_555 1_555
H18B O3B 1_555 1_555
O4B Mg3 1_555 1_555
O5B C12B 1_555 1_555
O8B C19B 1_555 1_555
O9B C19B 1_555 1_555
O10B C30B 1_555 1_555
O11B C30B 1_555 1_555
O12B C31B 1_555 1_555
O13B C31B 1_555 1_555
O14B C32B 1_555 1_555
O15B C32B 1_555 1_555
Mg1B O1B 1_555 1_555
Mg2B O14B 1_555 1_555
Mg3B O4 1_555 1_555
O4A Mg2 1_555 1_555
O4C Mg2B 1_555 1_555
O5A Mg2 1_555 1_555
O5C Mg2B 1_555 1_555
O6B_2 Mg2B 1_555 1_555
O7B_2 Mg1B 1_555 1_555
O10_2 Mg2 1_555 1_555
O10B_2 Mg2B 1_555 1_555
O11_2 Mg1 1_555 1_555
O11B_2 Mg1B 1_555 1_555
O13A Mg2B 1_555 1_555
O13C Mg2 1_555 1_555
O15A Mg3B 1_555 1_555
O15C Mg3 1_555 1_555
Mg1_2 O11 1_555 1_555
Mg1B_2 O7B 1_555 1_555
Mg1B_3 O11B 1_555 1_555
Mg2_2 O10 1_555 1_555
Mg2A O4 1_555 1_555
Mg2B_2 O6B 1_555 1_555
Mg2B_3 O10B 1_555 1_555
Mg2C O13 1_555 1_555
Mg3A O15B 1_555 1_555
Mg3C O15 1_555 1_555
C6 C7 1_555 1_555
C10 C11 1_555 1_555
C24 C25 1_555 1_555
C28 C29 1_555 1_555
O3 Mg3 1_555 1_555
O5 Mg2A 1_555 1_555
O7 Mg1 1_555 1_555
O8 Mg1 1_555 1_555
O9 Mg3 1_555 1_555
O12 Mg1 1_555 1_555
O12 Mg3 1_555 1_555
O14 Mg1 1_555 1_555
O14 Mg2 1_555 1_555
C36 N1 1_555 1_555
C37 N1 1_555 1_555
C39 N2 1_555 1_555
C15B C16B 1_555 1_555
C17B C18B 1_555 1_555
C33B C34B 1_555 1_555
C6B C7B 1_555 1_555
C10B C11B 1_555 1_555
C12B O4B 1_555 1_555
C24B C25B 1_555 1_555
C28B C29B 1_555 1_555
O2B Mg3B 1_555 1_555
O3B Mg3B 1_555 1_555
O4B Mg2C 1_555 1_555
O5B Mg2C 1_555 1_555
O8B Mg1B 1_555 1_555
O9B Mg3B 1_555 1_555
O12B Mg1B 1_555 1_555
O12B Mg3B 1_555 1_555
O13B Mg2A 1_555 1_555
O14B Mg1B 1_555 1_555
O4A Mg3C 1_555 1_555
O4C Mg3A 1_555 1_555

#END
