
#######################################################################
#
#                 Cambridge Crystallographic Data Centre
#                                CCDC 
#
#######################################################################
#
# If this CIF has been generated from an entry in the Cambridge 
# Structural Database, then it will include bibliographic, chemical, 
# crystal, experimental, refinement or atomic coordinate data resulting 
# from the CCDC's data processing and validation procedures.
#
#######################################################################

data_DOMKEX
_symmetry_cell_setting           triclinic
_symmetry_space_group_name_H-M   'P -1'
_symmetry_Int_Tables_number      2
_space_group_name_Hall           '-P 1'
loop_
_symmetry_equiv_pos_site_id
_symmetry_equiv_pos_as_xyz
1 x,y,z
2 -x,-y,-z
_cell_length_a                   6.4059(2)
_cell_length_b                   16.3502(5)
_cell_length_c                   17.8196(5)
_cell_angle_alpha                98.1090(10)
_cell_angle_beta                 94.0560(10)
_cell_angle_gamma                95.6510(10)
_cell_volume                     1831.95
loop_
_atom_site_label
_atom_site_type_symbol
_atom_site_fract_x
_atom_site_fract_y
_atom_site_fract_z
Na1 Na 0.57075(19) 0.39640(8) 0.51929(7)
Na2 Na 0.87431(19) 0.50879(8) 0.41351(7)
Na3 Na 0.8496(2) 0.41205(9) -0.27141(8)
Na4 Na 1.2734(2) 0.31100(10) 0.64102(8)
O1 O 0.2193(4) 0.51455(14) 0.37420(13)
O2 O 0.5123(3) 0.46547(15) 0.41404(13)
O3 O 0.9061(4) 0.39056(15) 0.46913(14)
O4 O 1.2011(4) 0.35814(16) 0.52434(14)
O5 O 0.1956(4) 0.45561(16) -0.29239(14)
O6 O 0.4910(4) 0.40385(17) -0.26124(16)
O7 O 0.9202(4) 0.27910(17) -0.32035(17)
O8 O 0.9231(5) 0.4205(2) -0.14234(17)
O9 O 1.1485(5) 0.1894(2) -0.3027(2)
O10 O 0.5782(4) 0.27503(16) 0.57860(15)
H1 H 0.6921 0.2798 0.6121
H2 H 0.5456 0.2271 0.5466
N1 N 0.1333(2) -0.04631(8) -0.09859(8)
H3 H 0.0757 -0.0263 -0.0573
N2 N 0.2346(2) 0.09506(8) 0.02316(8)
C1 C 0.3437(2) 0.45905(8) 0.37258(8)
C2 C 0.2869(2) 0.38064(8) 0.31548(8)
C3 C 1.0360(2) 0.34001(8) 0.47952(8)
C4 C 0.4249(2) 0.32026(8) 0.30693(8)
H4 H 0.5534 0.3270 0.3383
C5 C 0.0469(6) 0.2984(2) 0.2168(2)
H5 H -0.0841 0.2907 0.1868
C6 C 0.1870(5) 0.2389(2) 0.2064(2)
C7 C 0.2982(6) -0.0048(2) -0.1281(2)
C8 C 0.0968(6) 0.3693(2) 0.2709(2)
H6 H 0.0005 0.4098 0.2773
C9 C 0.3640(5) 0.4569(2) -0.2511(2)
C10 C 0.3895(6) 0.1137(2) -0.0230(2)
C11 C 0.4181(6) 0.0687(2) -0.0937(2)
C12 C 0.0458(6) -0.1123(2) -0.1516(2)
C13 C 0.1338(6) 0.1657(2) 0.1451(2)
C14 C 0.3756(6) 0.2503(2) 0.2528(2)
H7 H 0.4713 0.2094 0.2472
C15 C 0.1650(6) -0.1137(2) -0.2160(2)
H8 H 0.1415 -0.1534 -0.2610
C16 C 0.2643(6) 0.1572(2) 0.0847(2)
C17 C 0.5724(6) 0.1077(2) -0.1415(2)
C18 C 0.3191(6) -0.0482(2) -0.2023(2)
H9 H 0.4213 -0.0341 -0.2358
C19 C 0.9803(6) 0.2187(2) -0.2907(2)
C20 C 0.8401(6) 0.1799(2) -0.2377(2)
C21 C 0.5211(6) 0.1878(2) 0.0109(2)
H10 H 0.6403 0.2127 -0.0096
C22 C 0.4444(6) 0.2153(2) 0.0768(2)
H11 H 0.4980 0.2635 0.1116
C23 C 0.9947(7) 0.2535(3) 0.4358(3)
H12 H 0.8442 0.2344 0.4333
H13 H 1.0753 0.2159 0.4615
H14 H 1.0379 0.2537 0.3841
C24 C 0.4114(7) 0.5267(3) -0.1846(2)
H15 H 0.3229 0.5155 -0.1438
H16 H 0.3820 0.5793 -0.2013
H17 H 0.5601 0.5304 -0.1658
C25 C 0.7637(7) 0.0778(3) -0.1554(3)
H18 H 0.8042 0.0323 -0.1322
C26 C 0.8959(7) 0.1137(3) -0.2029(3)
H19 H 1.0264 0.0926 -0.2117
C27 C 0.6516(7) 0.2113(3) -0.2221(3)
H20 H 0.6130 0.2582 -0.2436
C28 C 0.5202(7) 0.1745(3) -0.1753(3)
H21 H 0.3901 0.1959 -0.1662
N3 N 0.8912(9) 0.3817(3) -0.0259(3)
C29 C 0.7187(9) 0.4332(4) -0.0234(4)
H22 H 0.7727 0.4905 -0.0021
H23 H 0.6138 0.4120 0.0086
H24 H 0.6531 0.4318 -0.0750
C30 C 1.1688(9) 0.3248(4) -0.0986(4)
H25 H 1.2208 0.3198 -0.1493
H26 H 1.1170 0.2696 -0.0879
H27 H 1.2835 0.3496 -0.0604
C31 C 0.9901(10) 0.3474(4) 0.0367(3)
H28 H 1.0504 0.2968 0.0168
H29 H 0.8846 0.3341 0.0717
H30 H 1.1020 0.3883 0.0639
C32 C 0.9922(9) 0.3793(4) -0.0958(3)
O1A O -0.2193(4) -0.51455(14) -0.37420(13)
O2A O -0.5123(3) -0.46547(15) -0.41404(13)
O7A O -0.9202(4) -0.27910(17) 0.32035(17)
O9A O -1.1485(5) -0.1894(2) 0.3027(2)
N1A N -0.1333(2) 0.04631(8) 0.09859(8)
H3A H -0.0757 0.0263 0.0573
N2A N -0.2346(2) -0.09506(8) -0.02316(8)
C1A C -0.3437(2) -0.45905(8) -0.37258(8)
C2A C -0.2869(2) -0.38064(8) -0.31548(8)
C4A C -0.4249(2) -0.32026(8) -0.30693(8)
H4A H -0.5534 -0.3270 -0.3383
C5A C -0.0469(6) -0.2984(2) -0.2168(2)
H5A H 0.0841 -0.2907 -0.1868
C6A C -0.1870(5) -0.2389(2) -0.2064(2)
C7A C -0.2982(6) 0.0048(2) 0.1281(2)
C8A C -0.0968(6) -0.3693(2) -0.2709(2)
H6A H -0.0005 -0.4098 -0.2773
C10A C -0.3895(6) -0.1137(2) 0.0230(2)
C11A C -0.4181(6) -0.0687(2) 0.0937(2)
C12A C -0.0458(6) 0.1123(2) 0.1516(2)
C13A C -0.1338(6) -0.1657(2) -0.1451(2)
C14A C -0.3756(6) -0.2503(2) -0.2528(2)
H7A H -0.4713 -0.2094 -0.2472
C15A C -0.1650(6) 0.1137(2) 0.2160(2)
H8A H -0.1415 0.1534 0.2610
C16A C -0.2643(6) -0.1572(2) -0.0847(2)
C17A C -0.5724(6) -0.1077(2) 0.1415(2)
C18A C -0.3191(6) 0.0482(2) 0.2023(2)
H9A H -0.4213 0.0341 0.2358
C19A C -0.9803(6) -0.2187(2) 0.2907(2)
C20A C -0.8401(6) -0.1799(2) 0.2377(2)
C21A C -0.5211(6) -0.1878(2) -0.0109(2)
H10A H -0.6403 -0.2127 0.0096
C22A C -0.4444(6) -0.2153(2) -0.0768(2)
H11A H -0.4980 -0.2635 -0.1116
C25A C -0.7637(7) -0.0778(3) 0.1554(3)
H18A H -0.8042 -0.0323 0.1322
C26A C -0.8959(7) -0.1137(3) 0.2029(3)
H19A H -1.0264 -0.0926 0.2117
C27A C -0.6516(7) -0.2113(3) 0.2221(3)
H20A H -0.6130 -0.2582 0.2436
C28A C -0.5202(7) -0.1745(3) 0.1753(3)
H21A H -0.3901 -0.1959 0.1662
Na1A Na -0.57075(19) -0.39640(8) -0.51929(7)
Na2A Na -0.87431(19) -0.50879(8) -0.41351(7)
Na3A Na -0.8496(2) -0.41205(9) 0.27141(8)
Na4A Na -1.2734(2) -0.31100(10) -0.64102(8)
O3A O -0.9061(4) -0.39056(15) -0.46913(14)
O4A O -1.2011(4) -0.35814(16) -0.52434(14)
O5A O -0.1956(4) -0.45561(16) 0.29239(14)
O6A O -0.4910(4) -0.40385(17) 0.26124(16)
O8A O -0.9231(5) -0.4205(2) 0.14234(17)
O10A O -0.5782(4) -0.27503(16) -0.57860(15)
H1A H -0.6921 -0.2798 -0.6121
H2A H -0.5456 -0.2271 -0.5466
C3A C -1.0360(2) -0.34001(8) -0.47952(8)
C9A C -0.3640(5) -0.4569(2) 0.2511(2)
C23A C -0.9947(7) -0.2535(3) -0.4358(3)
H12A H -0.8442 -0.2344 -0.4333
H13A H -1.0753 -0.2159 -0.4615
H14A H -1.0379 -0.2537 -0.3841
C24A C -0.4114(7) -0.5267(3) 0.1846(2)
H15A H -0.3229 -0.5155 0.1438
H16A H -0.3820 -0.5793 0.2013
H17A H -0.5601 -0.5304 0.1658
N3A N -0.8912(9) -0.3817(3) 0.0259(3)
C29A C -0.7187(9) -0.4332(4) 0.0234(4)
H22A H -0.7727 -0.4905 0.0021
H23A H -0.6138 -0.4120 -0.0086
H24A H -0.6531 -0.4318 0.0750
C30A C -1.1688(9) -0.3248(4) 0.0986(4)
H25A H -1.2208 -0.3198 0.1493
H26A H -1.1170 -0.2696 0.0879
H27A H -1.2835 -0.3496 0.0604
C31A C -0.9901(10) -0.3474(4) -0.0367(3)
H28A H -1.0504 -0.2968 -0.0168
H29A H -0.8846 -0.3341 -0.0717
H30A H -1.1020 -0.3883 -0.0639
C32A C -0.9922(9) -0.3793(4) 0.0958(3)
Na1_2 Na -0.42925(19) -0.60360(8) -0.48071(7)
Na1_3 Na 1.57075(19) 0.39640(8) 0.51929(7)
Na1A_2 Na -1.57075(19) -0.39640(8) -0.51929(7)
Na1A_3 Na 0.42925(19) 0.60360(8) 0.48071(7)
Na2_2 Na -1.12569(19) -0.49121(8) -0.58649(7)
Na2_3 Na -0.12569(19) -0.49121(8) 0.41351(7)
Na2_4 Na -0.12569(19) 0.50879(8) 0.41351(7)
Na2A_2 Na 0.12569(19) -0.50879(8) -0.41351(7)
Na2A_3 Na 0.12569(19) 0.49121(8) -0.41351(7)
Na2A_4 Na 1.12569(19) 0.49121(8) 0.58649(7)
Na3_2 Na -0.1504(2) -0.58795(9) -0.27141(8)
Na3_3 Na -0.1504(2) 0.41205(9) -0.27141(8)
Na3A_2 Na 0.1504(2) -0.41205(9) 0.27141(8)
Na3A_3 Na 0.1504(2) 0.58795(9) 0.27141(8)
Na4_2 Na 0.2734(2) 0.31100(10) -0.35898(8)
Na4_3 Na 0.2734(2) 0.31100(10) 0.64102(8)
Na4_4 Na 1.2734(2) 0.31100(10) -0.35898(8)
Na4A_2 Na -1.2734(2) -0.31100(10) 0.35898(8)
Na4A_3 Na -0.2734(2) -0.31100(10) -0.64102(8)
Na4A_4 Na -0.2734(2) -0.31100(10) 0.35898(8)
O1_2 O -0.7807(4) -0.48545(14) -0.62580(13)
O1_3 O -0.7807(4) -0.48545(14) 0.37420(13)
O1_4 O 1.2193(4) 0.51455(14) 0.37420(13)
O1A_2 O -1.2193(4) -0.51455(14) -0.37420(13)
O1A_3 O 0.7807(4) 0.48545(14) -0.37420(13)
O1A_4 O 0.7807(4) 0.48545(14) 0.62580(13)
O2_2 O -0.4877(3) -0.53453(15) -0.58596(13)
O2A_2 O 0.4877(3) 0.53453(15) 0.58596(13)
O3_2 O -1.0939(4) -0.60944(15) -0.53087(14)
O3A_2 O 1.0939(4) 0.60944(15) 0.53087(14)
O4_2 O -0.7989(4) -0.64186(16) -0.47566(14)
O4_3 O 0.2011(4) 0.35814(16) 0.52434(14)
O4A_2 O -0.2011(4) -0.35814(16) -0.52434(14)
O4A_3 O 0.7989(4) 0.64186(16) 0.47566(14)
O5_2 O -0.8044(4) -0.54439(16) -0.29239(14)
O5_3 O 1.1956(4) 0.45561(16) -0.29239(14)
O5_4 O 1.1956(4) 0.45561(16) 0.70761(14)
O5A_2 O -1.1956(4) -0.45561(16) -0.70761(14)
O5A_3 O -1.1956(4) -0.45561(16) 0.29239(14)
O5A_4 O 0.8044(4) 0.54439(16) 0.29239(14)
O6_2 O 1.4910(4) 0.40385(17) 0.73876(16)
O6A_2 O -1.4910(4) -0.40385(17) -0.73876(16)
O7_2 O 0.9202(4) 0.27910(17) 0.67965(17)
O7A_2 O -0.9202(4) -0.27910(17) -0.67965(17)
O9_2 O 1.1485(5) 0.1894(2) 0.6973(2)
O9A_2 O -1.1485(5) -0.1894(2) -0.6973(2)
O10_2 O 1.5782(4) 0.27503(16) 0.57860(15)
O10A_2 O -1.5782(4) -0.27503(16) -0.57860(15)
loop_
_geom_bond_atom_site_label_1
_geom_bond_atom_site_label_2
_geom_bond_site_symmetry_1
_geom_bond_site_symmetry_2
Na1 O2 1_555 1_555
Na2 O2 1_555 1_555
Na3 O6 1_555 1_555
Na4 O4 1_555 1_555
O1 C1 1_555 1_555
O2 C1 1_555 1_555
O3 Na1 1_555 1_555
O4 C3 1_555 1_555
O5 C9 1_555 1_555
O6 C9 1_555 1_555
O7 Na3 1_555 1_555
O8 Na3 1_555 1_555
O9 C19 1_555 1_555
O10 Na1 1_555 1_555
H1 O10 1_555 1_555
H2 O10 1_555 1_555
N1 H3 1_555 1_555
N2 C10 1_555 1_555
C1 C2 1_555 1_555
C2 C4 1_555 1_555
C3 O3 1_555 1_555
C4 H4 1_555 1_555
C5 H5 1_555 1_555
C6 C5 1_555 1_555
C7 N1 1_555 1_555
C8 C2 1_555 1_555
H6 C8 1_555 1_555
C9 C24 1_555 1_555
C10 C11 1_555 1_555
C11 C7 1_555 1_555
C12 N1 1_555 1_555
C13 C6 1_555 1_555
C14 C4 1_555 1_555
H7 C14 1_555 1_555
C15 C12 1_555 1_555
H8 C15 1_555 1_555
C16 N2 1_555 1_555
C17 C11 1_555 1_555
C18 C7 1_555 1_555
H9 C18 1_555 1_555
C19 O7 1_555 1_555
C20 C19 1_555 1_555
C21 C10 1_555 1_555
H10 C21 1_555 1_555
C22 C16 1_555 1_555
H11 C22 1_555 1_555
C23 C3 1_555 1_555
H12 C23 1_555 1_555
H13 C23 1_555 1_555
H14 C23 1_555 1_555
C24 H15 1_555 1_555
H16 C24 1_555 1_555
H17 C24 1_555 1_555
C25 C17 1_555 1_555
H18 C25 1_555 1_555
C26 C20 1_555 1_555
H19 C26 1_555 1_555
C27 C20 1_555 1_555
H20 C27 1_555 1_555
C28 C17 1_555 1_555
H21 C28 1_555 1_555
N3 C29 1_555 1_555
C29 H22 1_555 1_555
H23 C29 1_555 1_555
H24 C29 1_555 1_555
C30 H25 1_555 1_555
H26 C30 1_555 1_555
H27 C30 1_555 1_555
C31 N3 1_555 1_555
H28 C31 1_555 1_555
H29 C31 1_555 1_555
H30 C31 1_555 1_555
C32 O8 1_555 1_555
O1A C1A 1_555 1_555
O2A C1A 1_555 1_555
O7A C19A 1_555 1_555
O9A C19A 1_555 1_555
N1A H3A 1_555 1_555
N2A C10A 1_555 1_555
C1A C2A 1_555 1_555
C2A C4A 1_555 1_555
C4A H4A 1_555 1_555
C5A H5A 1_555 1_555
C6A C5A 1_555 1_555
C7A N1A 1_555 1_555
C8A C2A 1_555 1_555
H6A C8A 1_555 1_555
C10A C11A 1_555 1_555
C11A C7A 1_555 1_555
C12A C13 1_555 1_555
C13A C12 1_555 1_555
C14A C4A 1_555 1_555
H7A C14A 1_555 1_555
C15A C12A 1_555 1_555
H8A C15A 1_555 1_555
C16A N2A 1_555 1_555
C17A C11A 1_555 1_555
C18A C7A 1_555 1_555
H9A C18A 1_555 1_555
C19A C20A 1_555 1_555
C20A C26A 1_555 1_555
C21A C10A 1_555 1_555
H10A C21A 1_555 1_555
C22A C16A 1_555 1_555
H11A C22A 1_555 1_555
C25A C17A 1_555 1_555
H18A C25A 1_555 1_555
C26A C25A 1_555 1_555
H19A C26A 1_555 1_555
C27A C20A 1_555 1_555
H20A C27A 1_555 1_555
C28A C17A 1_555 1_555
H21A C28A 1_555 1_555
Na1A O2A 1_555 1_555
Na2A O2A 1_555 1_555
Na3A O7A 1_555 1_555
Na4A O4A 1_555 1_555
O3A Na1A 1_555 1_555
O4A C3A 1_555 1_555
O5A C9A 1_555 1_555
O6A Na3A 1_555 1_555
O8A Na3A 1_555 1_555
O10A Na1A 1_555 1_555
H1A O10A 1_555 1_555
H2A O10A 1_555 1_555
C3A O3A 1_555 1_555
C9A O6A 1_555 1_555
C23A C3A 1_555 1_555
H12A C23A 1_555 1_555
H13A C23A 1_555 1_555
H14A C23A 1_555 1_555
C24A C9A 1_555 1_555
H15A C24A 1_555 1_555
H16A C24A 1_555 1_555
H17A C24A 1_555 1_555
N3A C29A 1_555 1_555
C29A H22A 1_555 1_555
H23A C29A 1_555 1_555
H24A C29A 1_555 1_555
C30A H25A 1_555 1_555
H26A C30A 1_555 1_555
H27A C30A 1_555 1_555
C31A N3A 1_555 1_555
H28A C31A 1_555 1_555
H29A C31A 1_555 1_555
H30A C31A 1_555 1_555
C32A O8A 1_555 1_555
Na1_2 O1A 1_555 1_555
Na1_3 O4 1_555 1_555
Na1A_2 O4A 1_555 1_555
Na1A_3 O1 1_555 1_555
Na2_2 O3A 1_555 1_555
Na2_3 O5A 1_555 1_555
Na2_4 O1 1_555 1_555
Na2A_2 O1A 1_555 1_555
Na2A_3 O5 1_555 1_555
Na2A_4 O3 1_555 1_555
Na3_2 O1A 1_555 1_555
Na3_3 O5 1_555 1_555
Na3A_2 O5A 1_555 1_555
Na3A_3 O1 1_555 1_555
Na4_2 O5 1_555 1_555
Na4_3 O10 1_555 1_555
Na4_4 O7 1_555 1_555
Na4A_2 O7A 1_555 1_555
Na4A_3 O10A 1_555 1_555
Na4A_4 O5A 1_555 1_555
O1_2 Na1A 1_555 1_555
O1_3 Na3A 1_555 1_555
O1_4 Na2 1_555 1_555
O1A_2 Na2A 1_555 1_555
O1A_3 Na3 1_555 1_555
O1A_4 Na1 1_555 1_555
O2_2 Na1A 1_555 1_555
O2A_2 Na1 1_555 1_555
O3_2 Na2A 1_555 1_555
O3A_2 Na2 1_555 1_555
O4_2 Na2A 1_555 1_555
O4_3 Na1 1_555 1_555
O4A_2 Na1A 1_555 1_555
O4A_3 Na2 1_555 1_555
O5_2 Na2A 1_555 1_555
O5_3 Na3 1_555 1_555
O5_4 Na4 1_555 1_555
O5A_2 Na4A 1_555 1_555
O5A_3 Na3A 1_555 1_555
O5A_4 Na2 1_555 1_555
O6_2 Na4 1_555 1_555
O6A_2 Na4A 1_555 1_555
O7_2 Na4 1_555 1_555
O7A_2 Na4A 1_555 1_555
O9_2 Na4 1_555 1_555
O9A_2 Na4A 1_555 1_555
O10_2 Na4 1_555 1_555
O10A_2 Na4A 1_555 1_555
Na2 O3 1_555 1_555
O2 Na1A_3 1_555 1_555
O4 Na2A_4 1_555 1_555
O6 Na4_2 1_555 1_555
O9 Na4_4 1_555 1_555
C5 C8 1_555 1_555
C6 C14 1_555 1_555
C13 C16 1_555 1_555
C15 C18 1_555 1_555
C21 C22 1_555 1_555
C25 C26 1_555 1_555
C27 C28 1_555 1_555
N3 C32 1_555 1_555
C30 C32 1_555 1_555
O2A Na1_2 1_555 1_555
O9A Na4A_2 1_555 1_555
N1A C12A 1_555 1_555
C5A C8A 1_555 1_555
C6A C13A 1_555 1_555
C6A C14A 1_555 1_555
C13A C16A 1_555 1_555
C15A C18A 1_555 1_555
C21A C22A 1_555 1_555
C27A C28A 1_555 1_555
Na2A O3A 1_555 1_555
O4A Na2_2 1_555 1_555
O6A Na4A_4 1_555 1_555
N3A C32A 1_555 1_555
C30A C32A 1_555 1_555
Na1_2 O2_2 1_555 1_555
Na1_2 O4_2 1_555 1_555
Na1_3 O10_2 1_555 1_555
Na1A_2 O10A_2 1_555 1_555
Na1A_3 O2A_2 1_555 1_555
Na1A_3 O4A_3 1_555 1_555
Na2_2 O1_2 1_555 1_555
Na2_2 O3_2 1_555 1_555
Na2_2 O5A_2 1_555 1_555
Na2A_4 O1A_4 1_555 1_555
Na2A_4 O3A_2 1_555 1_555
Na2A_4 O5_4 1_555 1_555
Na4_3 O4_3 1_555 1_555
Na4_4 O5_3 1_555 1_555
Na4A_2 O5A_3 1_555 1_555
Na4A_3 O4A_2 1_555 1_555

#END
