
#######################################################################
#
#                 Cambridge Crystallographic Data Centre
#                                CCDC 
#
#######################################################################
#
# If this CIF has been generated from an entry in the Cambridge 
# Structural Database, then it will include bibliographic, chemical, 
# crystal, experimental, refinement or atomic coordinate data resulting 
# from the CCDC's data processing and validation procedures.
#
#######################################################################

data_DONKUO
_symmetry_cell_setting           triclinic
_symmetry_space_group_name_H-M   'P -1'
_symmetry_Int_Tables_number      2
_space_group_name_Hall           '-P 1'
loop_
_symmetry_equiv_pos_site_id
_symmetry_equiv_pos_as_xyz
1 x,y,z
2 -x,-y,-z
_cell_length_a                   12.3029(13)
_cell_length_b                   17.4336(19)
_cell_length_c                   17.4920(18)
_cell_angle_alpha                67.670(10)
_cell_angle_beta                 76.200(9)
_cell_angle_gamma                71.884(9)
_cell_volume                     3267.3
loop_
_atom_site_label
_atom_site_type_symbol
_atom_site_fract_x
_atom_site_fract_y
_atom_site_fract_z
Mn1 Mn 0.86946(7) 0.20046(7) -0.35449(5)
Mn2 Mn -0.14298(8) 0.43505(7) 0.47037(6)
Mn3 Mn 0.29049(9) 0.09092(8) 0.56076(7)
C1 C 0.0517(5) 0.5416(4) 0.2652(4)
H1 H 0.0270 0.5732 0.3014
C2 C 0.1634(5) 0.5310(4) 0.2250(4)
C3 C 0.2018(4) 0.4850(4) 0.1708(3)
C4 C 0.1240(4) 0.4500(4) 0.1596(3)
H2 H 0.1490 0.4183 0.1235
C5 C 0.0111(5) 0.4582(4) 0.1978(3)
C6 C -0.0234(5) 0.5050(4) 0.2514(3)
C7 C 0.2049(6) 0.6322(4) 0.2684(4)
H3 H 0.1327 0.6683 0.2483
H4 H 0.2608 0.6668 0.2477
C8 C 0.1861(5) 0.6037(5) 0.3631(4)
C9 C -0.2008(5) 0.5947(5) 0.2878(4)
H5 H -0.2790 0.5989 0.2816
H6 H -0.1699 0.6349 0.2379
C10 C -0.2055(6) 0.6210(5) 0.3616(4)
C11 C 0.3231(5) 0.4760(4) 0.1241(4)
H7 H 0.3724 0.4765 0.1603
C12 C 0.3278(5) 0.5543(4) 0.0454(4)
H8 H 0.2973 0.6054 0.0602
H9 H 0.2827 0.5551 0.0072
H10 H 0.4065 0.5516 0.0195
C13 C 0.3684(4) 0.3916(4) 0.1093(4)
C14 C 0.3855(5) 0.3170(5) 0.1766(4)
C15 C 0.4195(5) 0.2374(4) 0.1672(4)
H11 H 0.4283 0.1881 0.2138
C16 C 0.4406(5) 0.2314(4) 0.0874(4)
C17 C 0.4269(4) 0.3050(4) 0.0176(3)
C18 C 0.3916(4) 0.3826(4) 0.0309(3)
H12 H 0.3827 0.4321 -0.0154
C19 C 0.4426(6) 0.0848(5) 0.1378(4)
H13 H 0.4354 0.0457 0.1132
H14 H 0.3673 0.1049 0.1664
C20 C 0.5255(7) 0.0370(5) 0.2009(4)
C21 C 0.3091(6) 0.2736(5) 0.3201(4)
H15 H 0.2576 0.2574 0.2981
H16 H 0.2619 0.3063 0.3557
C22 C 0.3837(6) 0.1948(5) 0.3714(4)
C23 C 0.4516(5) 0.2944(4) -0.0668(4)
H17 H 0.5274 0.2542 -0.0692
C24 C 0.4609(6) 0.3768(5) -0.1386(4)
H18 H 0.4764 0.3662 -0.1906
H19 H 0.5226 0.3968 -0.1337
H20 H 0.3897 0.4194 -0.1367
C25 C 0.3664(5) 0.2546(4) -0.0793(3)
C26 C 0.2566(4) 0.2576(4) -0.0348(3)
H21 H 0.2349 0.2836 0.0059
C27 C 0.1774(4) 0.2235(4) -0.0480(3)
C28 C 0.2111(5) 0.1866(4) -0.1095(4)
C29 C 0.3216(5) 0.1795(4) -0.1530(4)
H22 H 0.3442 0.1516 -0.1923
C30 C 0.3970(5) 0.2131(4) -0.1382(4)
C31 C 0.5314(5) 0.1975(5) -0.2571(4)
H23 H 0.4797 0.2427 -0.2941
H24 H 0.5195 0.1431 -0.2515
C32 C 0.6534(5) 0.2005(5) -0.2927(4)
C33 C 0.1359(6) 0.1637(5) -0.2085(4)
H25 H 0.1956 0.1174 -0.2220
H26 H 0.1558 0.2170 -0.2439
C34 C 0.0223(6) 0.1634(5) -0.2262(5)
C35 C 0.0554(4) 0.2311(4) -0.0018(3)
H27 H 0.0367 0.1764 0.0110
C36 C -0.0289(5) 0.2989(5) -0.0587(4)
H28 H -0.0183 0.2869 -0.1095
H29 H -0.0154 0.3540 -0.0711
H30 H -0.1065 0.2987 -0.0314
C37 C 0.0427(4) 0.2447(4) 0.0805(3)
C38 C 0.0781(5) 0.1753(4) 0.1510(3)
C39 C 0.0673(5) 0.1862(4) 0.2263(4)
H31 H 0.0929 0.1401 0.2723
C40 C 0.0172(5) 0.2675(4) 0.2329(4)
C41 C -0.0194(4) 0.3381(4) 0.1655(3)
C42 C -0.0042(4) 0.3240(4) 0.0908(3)
H32 H -0.0268 0.3708 0.0444
C43 C -0.0734(4) 0.4239(4) 0.1779(3)
H33 H -0.1328 0.4148 0.2268
C44 C -0.1342(5) 0.4917(4) 0.1055(4)
H34 H -0.1883 0.4698 0.0933
H35 H -0.0781 0.5060 0.0572
H36 H -0.1744 0.5419 0.1204
C45 C 0.0063(6) 0.2169(5) 0.3824(3)
H37 H 0.0862 0.1899 0.3913
H38 H -0.0288 0.1741 0.3826
C46 C -0.0585(5) 0.2546(5) 0.4514(4)
C47 C 0.1485(5) 0.0254(4) 0.2089(4)
H39 H 0.1921 0.0366 0.2413
H40 H 0.1978 -0.0212 0.1898
C48 C 0.0470(6) -0.0032(5) 0.2646(4)
C49 C -0.3839(8) 0.4157(7) 0.4705(6)
H41 H -0.3675 0.3664 0.5161
C50 C -0.5516(9) 0.3714(9) 0.4641(9)
H42 H -0.6113 0.3950 0.4290
H43 H -0.5856 0.3669 0.5206
H44 H -0.5100 0.3157 0.4614
C51 C -0.4982(9) 0.4996(9) 0.3638(7)
H45 H -0.5666 0.5010 0.3456
H46 H -0.4344 0.4968 0.3201
H47 H -0.5098 0.5505 0.3771
N1 N -0.4740(6) 0.4262(6) 0.4361(5)
O1 O 0.4760(4) 0.1556(3) 0.0733(3)
O2 O 0.6228(4) 0.0474(4) 0.1854(3)
O3 O 0.4851(5) -0.0123(4) 0.2667(4)
H48 H 0.5340 -0.0364 0.2985
O4 O 0.3715(4) 0.3265(3) 0.2529(3)
O5 O 0.3283(5) 0.1466(4) 0.4304(3)
O6 O 0.5078(3) 0.2081(3) -0.1785(3)
O7 O 0.6823(4) 0.2091(4) -0.3693(3)
O8 O 0.7247(3) 0.1936(3) -0.2489(3)
O9 O 0.1322(3) 0.1543(3) -0.1244(2)
O10 O 0.0088(4) 0.1956(4) -0.3017(3)
O11 O -0.0459(5) 0.1322(5) -0.1699(3)
O12 O 0.1240(4) 0.0983(3) 0.1389(2)
O13 O 0.0705(4) -0.0653(3) 0.3310(3)
O14 O -0.0520(4) 0.0341(4) 0.2460(4)
O15 O 0.0003(4) 0.2843(3) 0.3060(3)
O16 O -0.0541(4) 0.2031(3) 0.5233(3)
O17 O -0.1121(4) 0.3306(3) 0.4311(3)
O18 O -0.1349(3) 0.5125(3) 0.2931(3)
O19 O -0.1515(4) 0.5676(3) 0.4203(3)
O20 O -0.2645(4) 0.6934(4) 0.3592(3)
O21 O 0.2436(4) 0.5654(3) 0.2345(3)
O22 O 0.1875(5) 0.5304(3) 0.4062(3)
O23 O 0.1688(4) 0.6609(3) 0.3945(3)
O24 O -0.3192(4) 0.4634(4) 0.4493(3)
O25 O 0.4891(4) 0.1802(4) 0.3548(3)
O26 O 0.2479(4) 0.0214(4) 0.6907(3)
O27 O 0.1905(5) 0.2150(4) 0.5728(3)
O28 O 0.1398(4) 0.0615(4) 0.5481(3)
O29 O 0.3926(5) -0.0325(4) 0.5431(4)
O30 O 0.4388(6) 0.1076(6) 0.5912(4)
O31 O 0.0443(4) 0.4048(4) 0.4701(3)
Mn1_2 Mn -0.13054(7) 0.20046(7) -0.35449(5)
Mn1_3 Mn -0.13054(7) 0.20046(7) 0.64551(5)
Mn1A Mn 0.13054(7) -0.20046(7) 0.35449(5)
Mn1A_2 Mn 0.13054(7) 0.79954(7) 0.35449(5)
Mn2A Mn 0.14298(8) 0.56495(7) 0.52963(6)
O10_2 O 1.0088(4) 0.1956(4) -0.3017(3)
O13A O 0.9295(4) 0.0653(3) -0.3310(3)
O16_2 O 0.9459(4) 0.2031(3) -0.4767(3)
O22A O -0.1875(5) 0.4696(3) 0.5938(3)
O23A O -0.1688(4) 0.3391(3) 0.6055(3)
O23A_2 O 0.8312(4) 0.3391(3) -0.3945(3)
C52 C 0.6477(14) 0.3395(13) 0.1796(13)
H49 H 0.5880 0.3831 0.1964
H50 H 0.6277 0.3322 0.1333
H51 H 0.7194 0.3562 0.1632
C53 C 0.7419(19) 0.1889(19) 0.247(4)
H52 H 0.7350 0.1450 0.3007
H53 H 0.8163 0.2009 0.2360
H54 H 0.7337 0.1698 0.2048
N2 N 0.6593(8) 0.2599(8) 0.2484(6)
O32 O 0.7109(11) 0.2990(15) 0.3563(11)
O33 O 0.0636(18) -0.0359(13) -0.0802(9)
O34 O 0.1472(12) -0.0537(9) 0.4727(7)
O35 O 0.6340(11) 0.1775(8) -0.4916(6)
O36 O 0.2752(7) 0.0441(6) 0.3573(5)
O37 O 0.227(2) -0.0874(16) -0.0061(19)
O38 O 0.2787(13) -0.0434(10) 0.0237(9)
O39 O 0.2491(12) -0.1858(13) 0.0439(19)
loop_
_geom_bond_atom_site_label_1
_geom_bond_atom_site_label_2
_geom_bond_site_symmetry_1
_geom_bond_site_symmetry_2
Mn1 O7 1_555 1_555
Mn2 O17 1_555 1_555
Mn3 O5 1_555 1_555
C1 H1 1_555 1_555
C2 C1 1_555 1_555
C3 C2 1_555 1_555
C4 C3 1_555 1_555
H2 C4 1_555 1_555
C5 C4 1_555 1_555
C6 C1 1_555 1_555
C7 H3 1_555 1_555
H4 C7 1_555 1_555
C8 C7 1_555 1_555
C9 H5 1_555 1_555
H6 C9 1_555 1_555
C10 C9 1_555 1_555
C11 C3 1_555 1_555
H7 C11 1_555 1_555
C12 C11 1_555 1_555
H8 C12 1_555 1_555
H9 C12 1_555 1_555
H10 C12 1_555 1_555
C13 C11 1_555 1_555
C14 C13 1_555 1_555
C15 C14 1_555 1_555
H11 C15 1_555 1_555
C16 C15 1_555 1_555
C17 C16 1_555 1_555
C18 C13 1_555 1_555
H12 C18 1_555 1_555
C19 H13 1_555 1_555
H14 C19 1_555 1_555
C20 C19 1_555 1_555
C21 H15 1_555 1_555
H16 C21 1_555 1_555
C22 C21 1_555 1_555
C23 C17 1_555 1_555
H17 C23 1_555 1_555
C24 C23 1_555 1_555
H18 C24 1_555 1_555
H19 C24 1_555 1_555
H20 C24 1_555 1_555
C25 C23 1_555 1_555
C26 C25 1_555 1_555
H21 C26 1_555 1_555
C27 C26 1_555 1_555
C28 C27 1_555 1_555
C29 C28 1_555 1_555
H22 C29 1_555 1_555
C30 C25 1_555 1_555
C31 H23 1_555 1_555
H24 C31 1_555 1_555
C32 C31 1_555 1_555
C33 H25 1_555 1_555
H26 C33 1_555 1_555
C34 C33 1_555 1_555
C35 C27 1_555 1_555
H27 C35 1_555 1_555
C36 C35 1_555 1_555
H28 C36 1_555 1_555
H29 C36 1_555 1_555
H30 C36 1_555 1_555
C37 C35 1_555 1_555
C38 C37 1_555 1_555
C39 C38 1_555 1_555
H31 C39 1_555 1_555
C40 C39 1_555 1_555
C41 C40 1_555 1_555
C42 C37 1_555 1_555
H32 C42 1_555 1_555
C43 C5 1_555 1_555
H33 C43 1_555 1_555
C44 C43 1_555 1_555
H34 C44 1_555 1_555
H35 C44 1_555 1_555
H36 C44 1_555 1_555
C45 H37 1_555 1_555
H38 C45 1_555 1_555
C46 C45 1_555 1_555
C47 H39 1_555 1_555
H40 C47 1_555 1_555
C48 C47 1_555 1_555
C49 H41 1_555 1_555
C50 H42 1_555 1_555
H43 C50 1_555 1_555
H44 C50 1_555 1_555
C51 H45 1_555 1_555
H46 C51 1_555 1_555
H47 C51 1_555 1_555
N1 C49 1_555 1_555
O1 C16 1_555 1_555
O2 C20 1_555 1_555
O3 C20 1_555 1_555
H48 O3 1_555 1_555
O4 C14 1_555 1_555
O5 C22 1_555 1_555
O6 C30 1_555 1_555
O7 C32 1_555 1_555
O8 Mn1 1_555 1_555
O9 C28 1_555 1_555
O10 C34 1_555 1_555
O11 C34 1_555 1_555
O12 C38 1_555 1_555
O13 C48 1_555 1_555
O14 C48 1_555 1_555
O15 C40 1_555 1_555
O16 C46 1_555 1_555
O17 C46 1_555 1_555
O18 C6 1_555 1_555
O19 Mn2 1_555 1_555
O20 C10 1_555 1_555
O21 C2 1_555 1_555
O22 C8 1_555 1_555
O23 C8 1_555 1_555
O24 Mn2 1_555 1_555
O25 C22 1_555 1_555
O26 Mn3 1_555 1_555
O27 Mn3 1_555 1_555
O28 Mn3 1_555 1_555
O29 Mn3 1_555 1_555
O30 Mn3 1_555 1_555
O31 Mn2 1_555 1_555
C52 H49 1_555 1_555
H50 C52 1_555 1_555
H51 C52 1_555 1_555
C53 H52 1_555 1_555
H53 C53 1_555 1_555
H54 C53 1_555 1_555
N2 C52 1_555 1_555
Mn1_2 O10 1_555 1_555
Mn1_3 O16 1_555 1_555
Mn1A O13 1_555 1_555
Mn1A_2 O23 1_555 1_555
Mn2A O22 1_555 1_555
O10_2 Mn1 1_555 1_555
O13A Mn1 1_555 1_555
O16_2 Mn1 1_555 1_555
O22A Mn2 1_555 1_555
O23A Mn2 1_555 1_555
O23A_2 Mn1 1_555 1_555
C5 C6 1_555 1_555
C7 O21 1_555 1_555
C9 O18 1_555 1_555
C10 O19 1_555 1_555
C17 C18 1_555 1_555
C19 O1 1_555 1_555
C21 O4 1_555 1_555
C29 C30 1_555 1_555
C31 O6 1_555 1_555
C32 O8 1_555 1_555
C33 O9 1_555 1_555
C41 C42 1_555 1_555
C41 C43 1_555 1_555
C45 O15 1_555 1_555
C47 O12 1_555 1_555
C49 O24 1_555 1_555
C50 N1 1_555 1_555
C51 N1 1_555 1_555
O23 Mn2A 1_555 1_555
C53 N2 1_555 1_555
Mn1_3 O23A 1_555 1_555

#END
