
#######################################################################
#
#                 Cambridge Crystallographic Data Centre
#                                CCDC 
#
#######################################################################
#
# If this CIF has been generated from an entry in the Cambridge 
# Structural Database, then it will include bibliographic, chemical, 
# crystal, experimental, refinement or atomic coordinate data resulting 
# from the CCDC's data processing and validation procedures.
#
#######################################################################

data_DONKOI
_symmetry_cell_setting           trigonal
_symmetry_space_group_name_H-M   'P 31 2 1'
_symmetry_Int_Tables_number      152
_space_group_name_Hall           'P 31 2"'
loop_
_symmetry_equiv_pos_site_id
_symmetry_equiv_pos_as_xyz
1 x,y,z
2 -y,x-y,1/3+z
3 -x+y,-x,2/3+z
4 x-y,-y,2/3-z
5 -x,-x+y,1/3-z
6 y,x,-z
_cell_length_a                   16.7190(7)
_cell_length_b                   16.7190(7)
_cell_length_c                   24.5980(10)
_cell_angle_alpha                90
_cell_angle_beta                 90
_cell_angle_gamma                120
_cell_volume                     5954.58
loop_
_atom_site_label
_atom_site_type_symbol
_atom_site_fract_x
_atom_site_fract_y
_atom_site_fract_z
Ni1 Ni 0.40810(7) 0.68558(6) 0.75050(4)
Ni2 Ni 0.49459(7) 1.25632(7) 0.46877(4)
C1 C 1.0462(6) 0.8292(7) 0.5599(4)
H1 H 1.1007 0.8331 0.5445
H2 H 1.0517 0.8331 0.5988
H3 H 1.0389 0.8791 0.5465
C2 C 0.9621(5) 0.7374(6) 0.5440(3)
H4 H 0.9706 0.6884 0.5598
C3 C 0.8726(5) 0.7259(5) 0.5671(3)
C4 C 0.7877(5) 0.6416(5) 0.5583(3)
C5 C 0.7052(5) 0.6261(5) 0.5793(3)
H5 H 0.6514 0.5699 0.5736
C6 C 0.7031(5) 0.6961(4) 0.6095(3)
C7 C 0.7832(5) 0.7817(5) 0.6169(3)
C8 C 0.8651(5) 0.7917(5) 0.5960(2)
H6 H 0.9190 0.8475 0.6022
C9 C 0.7306(6) 0.5304(5) 0.4874(3)
H7 H 0.7630 0.5348 0.4538
H8 H 0.6960 0.5622 0.4820
C10 C 0.6640(6) 0.4299(5) 0.4997(3)
C11 C 0.5445(5) 0.5966(5) 0.6326(3)
H9 H 0.5611 0.5518 0.6452
H10 H 0.5216 0.5805 0.5957
C12 C 0.4687(5) 0.5927(5) 0.6689(3)
C13 C 0.7787(5) 0.8602(5) 0.6455(3)
H11 H 0.7341 0.8321 0.6752
C14 C 0.8690(6) 0.9306(6) 0.6714(4)
H12 H 0.8613 0.9778 0.6886
H13 H 0.9158 0.9579 0.6439
H14 H 0.8871 0.9007 0.6980
C15 C 0.7416(5) 0.9074(4) 0.6083(3)
C16 C 0.6981(5) 0.9503(5) 0.6297(3)
C17 C 0.6674(6) 0.9983(5) 0.5977(3)
H15 H 0.6388 1.0277 0.6138
C18 C 0.6794(5) 1.0024(5) 0.5419(3)
C19 C 0.7240(5) 0.9569(5) 0.5179(3)
C20 C 0.7530(5) 0.9118(5) 0.5519(3)
H16 H 0.7822 0.8823 0.5366
C21 C 0.5984(6) 0.8820(6) 0.7023(3)
H17 H 0.5837 0.8244 0.6846
H18 H 0.5526 0.8983 0.6915
C22 C 0.5965(6) 0.8701(5) 0.7644(3)
C23 C 0.6090(7) 1.0934(6) 0.5304(3)
H19 H 0.6492 1.1345 0.5586
H20 H 0.5511 1.0492 0.5474
C24 C 0.5913(6) 1.1483(6) 0.4890(3)
C25 C 0.3249(7) 0.7589(6) 0.6715(4)
H21 H 0.2820 0.7427 0.6994
C26 C 0.3707(11) 0.8133(11) 0.5812(5)
H22 H 0.3516 0.8391 0.5526
H23 H 0.3666 0.7569 0.5689
H24 H 0.4333 0.8564 0.5912
C27 C 0.2353(9) 0.8091(9) 0.6220(5)
H25 H 0.2381 0.8359 0.5870
H26 H 0.2375 0.8501 0.6500
H27 H 0.1788 0.7511 0.6249
N1 N 0.3114(6) 0.7945(6) 0.6278(3)
O1 O 0.7960(4) 0.5750(3) 0.5294(2)
O2 O 0.6739(4) 0.3996(4) 0.5441(2)
O3 O 0.6041(4) 0.3871(4) 0.4630(2)
O4 O 0.6244(3) 0.6864(3) 0.6330(2)
O5 O 0.3894(3) 0.5259(4) 0.6621(2)
O6 O 0.4907(3) 0.6544(3) 0.7051(2)
O7 O 0.6860(4) 0.9513(3) 0.68646(19)
O8 O 0.6562(6) 0.9286(5) 0.7919(2)
O9 O 0.5243(4) 0.8007(3) 0.78392(18)
O10 O 0.6504(4) 1.0458(4) 0.5069(2)
O11 O 0.5959(6) 1.1354(6) 0.4403(2)
O12 O 0.5698(4) 1.2046(3) 0.50804(19)
O13 O 0.3911(4) 0.7449(4) 0.6788(2)
O14 O 0.4223(5) 1.3096(5) 0.4305(2)
O15 O 0.5354(5) 1.2348(5) 0.3913(2)
O16 O 0.2863(4) 0.5651(4) 0.7332(3)
O17 O 0.3856(5) 1.1237(5) 0.4662(3)
C1E C 0.8292(7) 1.0462(6) 0.4401(4)
H1E H 0.8331 1.1007 0.4555
H2E H 0.8331 1.0517 0.4012
H3E H 0.8791 1.0389 0.4535
C2E C 0.7374(6) 0.9621(5) 0.4560(3)
H4E H 0.6884 0.9706 0.4402
C3E C 0.7259(5) 0.8726(5) 0.4329(3)
C4E C 0.6416(5) 0.7877(5) 0.4417(3)
C5E C 0.6261(5) 0.7052(5) 0.4207(3)
H5E H 0.5699 0.6514 0.4264
C6E C 0.6961(4) 0.7031(5) 0.3905(3)
C7E C 0.7817(5) 0.7832(5) 0.3831(3)
C8E C 0.7917(5) 0.8651(5) 0.4040(2)
H6E H 0.8475 0.9190 0.3978
C9E C 0.5304(5) 0.7306(6) 0.5126(3)
H7E H 0.5348 0.7630 0.5462
H8E H 0.5622 0.6960 0.5180
C10E C 0.4299(5) 0.6640(6) 0.5003(3)
C11E C 0.5966(5) 0.5445(5) 0.3674(3)
H9E H 0.5518 0.5611 0.3548
H10E H 0.5805 0.5216 0.4043
C12E C 0.5927(5) 0.4687(5) 0.3311(3)
C13E C 0.8602(5) 0.7787(5) 0.3545(3)
H11E H 0.8321 0.7341 0.3248
C14E C 0.9306(6) 0.8690(6) 0.3286(4)
H12E H 0.9778 0.8613 0.3114
H13E H 0.9579 0.9158 0.3561
H14E H 0.9007 0.8871 0.3020
C15E C 0.9074(4) 0.7416(5) 0.3917(3)
C16E C 0.9503(5) 0.6981(5) 0.3703(3)
C17E C 0.9983(5) 0.6674(6) 0.4023(3)
H15E H 1.0277 0.6388 0.3862
C18E C 1.0024(5) 0.6794(5) 0.4581(3)
C19E C 0.9569(5) 0.7240(5) 0.4821(3)
C20E C 0.9118(5) 0.7530(5) 0.4481(3)
H16E H 0.8823 0.7822 0.4634
C21E C 0.8820(6) 0.5984(6) 0.2977(3)
H17E H 0.8244 0.5837 0.3154
H18E H 0.8983 0.5526 0.3085
C22E C 0.8701(5) 0.5965(6) 0.2356(3)
C23E C 1.0934(6) 0.6090(7) 0.4696(3)
H19E H 1.1345 0.6492 0.4414
H20E H 1.0492 0.5511 0.4526
C24E C 1.1483(6) 0.5913(6) 0.5110(3)
O1E O 0.5750(3) 0.7960(4) 0.4706(2)
O2E O 0.3996(4) 0.6739(4) 0.4559(2)
O3E O 0.3871(4) 0.6041(4) 0.5370(2)
O4E O 0.6864(3) 0.6244(3) 0.3670(2)
O5E O 0.5259(4) 0.3894(3) 0.3379(2)
O6E O 0.6544(3) 0.4907(3) 0.2949(2)
O7E O 0.9513(3) 0.6860(4) 0.31354(19)
O8E O 0.9286(5) 0.6562(6) 0.2081(2)
O9E O 0.8007(3) 0.5243(4) 0.21608(18)
O10E O 1.0458(4) 0.6504(4) 0.4931(2)
O11E O 1.1354(6) 0.5959(6) 0.5597(2)
O12E O 1.2046(3) 0.5698(4) 0.49196(19)
Ni1E Ni 0.68558(6) 0.40810(7) 0.24950(4)
Ni2E Ni 1.25632(7) 0.49459(7) 0.53123(4)
C25E C 0.7589(6) 0.3249(7) 0.3285(4)
H21E H 0.7427 0.2820 0.3006
C26E C 0.8133(11) 0.3707(11) 0.4188(5)
H22E H 0.8391 0.3516 0.4474
H23E H 0.7569 0.3666 0.4311
H24E H 0.8564 0.4333 0.4088
C27E C 0.8091(9) 0.2353(9) 0.3780(5)
H25E H 0.8359 0.2381 0.4130
H26E H 0.8501 0.2375 0.3500
H27E H 0.7511 0.1788 0.3751
N1E N 0.7945(6) 0.3114(6) 0.3722(3)
O13E O 0.7449(4) 0.3911(4) 0.3212(2)
O14E O 1.3096(5) 0.4223(5) 0.5695(2)
O15E O 1.2348(5) 0.5354(5) 0.6087(2)
O16E O 0.5651(4) 0.2863(4) 0.2668(3)
O17E O 1.1237(5) 0.3856(5) 0.5338(3)
Ni1B Ni 0.27748(9) 0.59190(7) 0.41717(4)
Ni1B_2 Ni 1.27748(9) 0.59190(7) 0.41717(4)
Ni1D Ni 0.59190(7) 0.27748(9) 0.58283(4)
Ni1D_2 Ni 0.59190(7) 1.27748(9) 0.58283(4)
Ni2_2 Ni 0.49459(7) 0.25632(7) 0.46877(4)
Ni2B Ni 0.76173(10) 0.50541(7) 0.13544(4)
Ni2D Ni 0.50541(7) 0.76173(10) 0.86456(4)
Ni2E_2 Ni 0.25632(7) 0.49459(7) 0.53123(4)
O2B O 0.7257(6) 0.3261(4) 0.2108(2)
O2D O 0.3261(4) 0.7257(6) 0.7892(2)
O3_2 O 0.6041(4) 1.3871(4) 0.4630(2)
O3E_2 O 1.3871(4) 0.6041(4) 0.5370(2)
O9B O 1.2764(5) 0.4757(4) 0.45059(18)
O9D O 0.4757(4) 1.2764(5) 0.54941(18)
O12B O 0.6348(5) 0.4302(4) 0.17471(19)
O12D O 0.4302(4) 0.6348(5) 0.82529(19)
O18 O 0.3452(8) 1.0327(8) 0.5691(5)
O19 O 0.4942(7) 0.4942(7) 0.5000
O20 O 0.1146(14) 0.5883(8) 0.7475(7)
loop_
_geom_bond_atom_site_label_1
_geom_bond_atom_site_label_2
_geom_bond_site_symmetry_1
_geom_bond_site_symmetry_2
Ni1 O6 1_555 1_555
Ni2 O12 1_555 1_555
C1 H1 1_555 1_555
H2 C1 1_555 1_555
H3 C1 1_555 1_555
C2 C1 1_555 1_555
H4 C2 1_555 1_555
C3 C2 1_555 1_555
C4 C3 1_555 1_555
C5 C4 1_555 1_555
H5 C5 1_555 1_555
C6 C5 1_555 1_555
C7 C6 1_555 1_555
C8 C3 1_555 1_555
H6 C8 1_555 1_555
C9 H7 1_555 1_555
H8 C9 1_555 1_555
C10 C9 1_555 1_555
C11 H9 1_555 1_555
H10 C11 1_555 1_555
C12 C11 1_555 1_555
C13 C7 1_555 1_555
H11 C13 1_555 1_555
C14 C13 1_555 1_555
H12 C14 1_555 1_555
H13 C14 1_555 1_555
H14 C14 1_555 1_555
C15 C13 1_555 1_555
C16 C15 1_555 1_555
C17 C16 1_555 1_555
H15 C17 1_555 1_555
C18 C17 1_555 1_555
C19 C18 1_555 1_555
C20 C15 1_555 1_555
H16 C20 1_555 1_555
C21 H17 1_555 1_555
H18 C21 1_555 1_555
C22 C21 1_555 1_555
C23 H19 1_555 1_555
H20 C23 1_555 1_555
C24 C23 1_555 1_555
C25 H21 1_555 1_555
C26 H22 1_555 1_555
H23 C26 1_555 1_555
H24 C26 1_555 1_555
C27 H25 1_555 1_555
H26 C27 1_555 1_555
H27 C27 1_555 1_555
N1 C25 1_555 1_555
O1 C4 1_555 1_555
O2 C10 1_555 1_555
O3 C10 1_555 1_555
O4 C6 1_555 1_555
O5 C12 1_555 1_555
O6 C12 1_555 1_555
O7 C16 1_555 1_555
O8 C22 1_555 1_555
O9 Ni1 1_555 1_555
O10 C18 1_555 1_555
O11 C24 1_555 1_555
O12 C24 1_555 1_555
O13 Ni1 1_555 1_555
O14 Ni2 1_555 1_555
O15 Ni2 1_555 1_555
O16 Ni1 1_555 1_555
O17 Ni2 1_555 1_555
C1E H1E 1_555 1_555
H2E C1E 1_555 1_555
H3E C1E 1_555 1_555
C2E C19 1_555 1_555
H4E C2E 1_555 1_555
C3E C2E 1_555 1_555
C4E C3E 1_555 1_555
C5E C4E 1_555 1_555
H5E C5E 1_555 1_555
C6E C5E 1_555 1_555
C7E C6E 1_555 1_555
C8E C3E 1_555 1_555
H6E C8E 1_555 1_555
C9E H7E 1_555 1_555
H8E C9E 1_555 1_555
C10E C9E 1_555 1_555
C11E H9E 1_555 1_555
H10E C11E 1_555 1_555
C12E C11E 1_555 1_555
C13E C7E 1_555 1_555
H11E C13E 1_555 1_555
C14E C13E 1_555 1_555
H12E C14E 1_555 1_555
H13E C14E 1_555 1_555
H14E C14E 1_555 1_555
C15E C13E 1_555 1_555
C16E C15E 1_555 1_555
C17E C16E 1_555 1_555
H15E C17E 1_555 1_555
C18E C17E 1_555 1_555
C19E C2 1_555 1_555
C20E C15E 1_555 1_555
H16E C20E 1_555 1_555
C21E H17E 1_555 1_555
H18E C21E 1_555 1_555
C22E C21E 1_555 1_555
C23E H19E 1_555 1_555
H20E C23E 1_555 1_555
C24E C23E 1_555 1_555
O1E C4E 1_555 1_555
O2E C10E 1_555 1_555
O3E C10E 1_555 1_555
O4E C6E 1_555 1_555
O5E C12E 1_555 1_555
O6E C12E 1_555 1_555
O7E C16E 1_555 1_555
O8E C22E 1_555 1_555
O9E C22E 1_555 1_555
O10E C18E 1_555 1_555
O11E C24E 1_555 1_555
O12E C24E 1_555 1_555
Ni1E O6E 1_555 1_555
Ni2E O12E 1_555 1_555
C25E H21E 1_555 1_555
C26E H22E 1_555 1_555
H23E C26E 1_555 1_555
H24E C26E 1_555 1_555
C27E H25E 1_555 1_555
H26E C27E 1_555 1_555
H27E C27E 1_555 1_555
N1E C25E 1_555 1_555
O13E Ni1E 1_555 1_555
O14E Ni2E 1_555 1_555
O15E Ni2E 1_555 1_555
O16E Ni1E 1_555 1_555
O17E Ni2E 1_555 1_555
Ni1B O2E 1_555 1_555
Ni1B_2 O12E 1_555 1_555
Ni1D O2 1_555 1_555
Ni1D_2 O12 1_555 1_555
Ni2_2 O3 1_555 1_555
Ni2B O9E 1_555 1_555
Ni2D O9 1_555 1_555
Ni2E_2 O3E 1_555 1_555
O2B Ni1E 1_555 1_555
O2D Ni1 1_555 1_555
O3_2 Ni2 1_555 1_555
O3E_2 Ni2E 1_555 1_555
O9B Ni2E 1_555 1_555
O9D Ni2 1_555 1_555
O12B Ni1E 1_555 1_555
O12D Ni1 1_555 1_555
C7 C8 1_555 1_555
C9 O1 1_555 1_555
C11 O4 1_555 1_555
C19 C20 1_555 1_555
C21 O7 1_555 1_555
C22 O9 1_555 1_555
C23 O10 1_555 1_555
C25 O13 1_555 1_555
C26 N1 1_555 1_555
C27 N1 1_555 1_555
C1E C2E 1_555 1_555
C7E C8E 1_555 1_555
C9E O1E 1_555 1_555
C11E O4E 1_555 1_555
C18E C19E 1_555 1_555
C19E C20E 1_555 1_555
C21E O7E 1_555 1_555
C23E O10E 1_555 1_555
O9E Ni1E 1_555 1_555
C25E O13E 1_555 1_555
C26E N1E 1_555 1_555
C27E N1E 1_555 1_555
Ni1B_2 O9B 1_555 1_555
Ni1D_2 O9D 1_555 1_555
Ni2B O12B 1_555 1_555
Ni2D O12D 1_555 1_555

#END
