
#######################################################################
#
#                 Cambridge Crystallographic Data Centre
#                                CCDC 
#
#######################################################################
#
# If this CIF has been generated from an entry in the Cambridge 
# Structural Database, then it will include bibliographic, chemical, 
# crystal, experimental, refinement or atomic coordinate data resulting 
# from the CCDC's data processing and validation procedures.
#
#######################################################################

data_DORYUG
_symmetry_cell_setting           monoclinic
_symmetry_space_group_name_H-M   'C 2/c'
_symmetry_Int_Tables_number      15
_space_group_name_Hall           '-C 2yn'
loop_
_symmetry_equiv_pos_site_id
_symmetry_equiv_pos_as_xyz
1 x,y,z
2 -x,y,1/2-z
3 1/2+x,1/2+y,z
4 1/2-x,1/2+y,1/2-z
5 -x,-y,-z
6 x,-y,1/2+z
7 1/2-x,1/2-y,-z
8 1/2+x,1/2-y,1/2+z
_cell_length_a                   27.579(3)
_cell_length_b                   10.1540(13)
_cell_length_c                   20.350(3)
_cell_angle_alpha                90
_cell_angle_beta                 127.3340(10)
_cell_angle_gamma                90
_cell_volume                     4531.16
loop_
_atom_site_label
_atom_site_type_symbol
_atom_site_fract_x
_atom_site_fract_y
_atom_site_fract_z
Cu1 Cu 0.16050(2) 0.74110(5) 0.26550(3)
O1 O 0.15547(14) 0.5920(3) 0.3308(2)
O2 O 0.1625(2) 0.4740(4) 0.2459(3)
O3 O 0.15410(16) -0.1103(3) 0.3413(2)
O4 O 0.1548(2) -0.0068(4) 0.2487(3)
N1 N 0.06853(19) 0.7307(4) 0.1791(3)
N2 N 0.16888(19) 0.2516(3) 0.6685(2)
N3 N -0.24812(17) 0.7484(3) -0.1457(2)
C1 C 0.0433(2) 0.6516(6) 0.1152(4)
H1 H 0.0687 0.5956 0.1124
C2 C -0.0180(2) 0.6460(6) 0.0524(4)
H2 H -0.0329 0.5882 0.0086
C3 C -0.0575(2) 0.7261(5) 0.0540(3)
C4 C -0.0316(2) 0.8046(7) 0.1229(4)
H3 H -0.0563 0.8577 0.1287
C5 C 0.0306(2) 0.8048(6) 0.1832(3)
H4 H 0.0469 0.8593 0.2288
C6 C -0.1236(2) 0.7299(4) -0.0148(3)
C7 C -0.1458(2) 0.7038(6) -0.0952(3)
H5 H -0.1192 0.6809 -0.1069
C8 C -0.2080(2) 0.7120(5) -0.1583(3)
H6 H -0.2222 0.6911 -0.2118
C9 C -0.2266(2) 0.7719(5) -0.0673(3)
H7 H -0.2542 0.7951 -0.0572
C10 C -0.1661(2) 0.7636(5) -0.0016(3)
H8 H -0.1534 0.7803 0.0516
C11 C 0.1558(2) -0.0079(5) 0.3105(3)
C12 C 0.1912(2) 0.3515(4) 0.6515(3)
H9 H 0.2082 0.4224 0.6879
C13 C 0.1456(3) 0.1513(5) 0.6157(3)
H10 H 0.1302 0.0799 0.6262
C14 C 0.1600(2) 0.4839(5) 0.3048(3)
C15 C 0.1611(2) 0.3594(4) 0.3461(3)
C16 C 0.1592(2) 0.2389(4) 0.3134(3)
H11 H 0.1579 0.2359 0.2667
C17 C 0.1592(2) 0.1229(4) 0.3485(3)
C18 C 0.1633(2) 0.1277(4) 0.4197(3)
H12 H 0.1648 0.0497 0.4449
C19 C 0.1650(2) 0.2481(4) 0.4540(3)
C20 C 0.1643(2) 0.3634(4) 0.4168(3)
H13 H 0.1660 0.4443 0.4396
C21 C 0.1433(3) 0.1477(5) 0.5464(3)
H14 H 0.1257 0.0757 0.5111
C22 C 0.1668(2) 0.2506(4) 0.5285(3)
C23 C 0.1903(2) 0.3552(4) 0.5834(3)
H15 H 0.2057 0.4284 0.5741
Cu1_2 Cu 0.16050(2) -0.25890(5) 0.26550(3)
Cu1E Cu 0.16050(2) 0.25890(5) 0.76550(3)
Cu1G Cu -0.33950(2) 0.75890(5) -0.23450(3)
O3_2 O 0.15410(16) 0.8897(3) 0.3413(2)
O4_2 O 0.1548(2) 0.9932(4) 0.2487(3)
N2E N 0.16888(19) 0.7484(3) 0.1685(2)
N3G N 0.25188(17) 0.7516(3) 0.3543(2)
O5 O 0.0353(7) 0.0943(14) 0.0876(11)
O6 O 0.0000 0.1404(14) 0.2500
O7 O 0.0000 0.3337(15) 0.2500
loop_
_geom_bond_atom_site_label_1
_geom_bond_atom_site_label_2
_geom_bond_site_symmetry_1
_geom_bond_site_symmetry_2
Cu1 O1 1_555 1_555
O1 C14 1_555 1_555
O2 Cu1 1_555 1_555
O3 C11 1_555 1_555
O4 C11 1_555 1_555
N1 Cu1 1_555 1_555
N2 C12 1_555 1_555
N3 C8 1_555 1_555
C1 N1 1_555 1_555
H1 C1 1_555 1_555
C2 C1 1_555 1_555
H2 C2 1_555 1_555
C3 C2 1_555 1_555
C4 C3 1_555 1_555
H3 C4 1_555 1_555
C5 N1 1_555 1_555
H4 C5 1_555 1_555
C6 C3 1_555 1_555
C7 C6 1_555 1_555
H5 C7 1_555 1_555
C8 C7 1_555 1_555
H6 C8 1_555 1_555
C9 N3 1_555 1_555
H7 C9 1_555 1_555
C10 C6 1_555 1_555
H8 C10 1_555 1_555
C11 C17 1_555 1_555
C12 H9 1_555 1_555
C13 N2 1_555 1_555
H10 C13 1_555 1_555
C14 O2 1_555 1_555
C15 C14 1_555 1_555
C16 C15 1_555 1_555
H11 C16 1_555 1_555
C17 C16 1_555 1_555
C18 C17 1_555 1_555
H12 C18 1_555 1_555
C19 C18 1_555 1_555
C20 C15 1_555 1_555
H13 C20 1_555 1_555
C21 C13 1_555 1_555
H14 C21 1_555 1_555
C22 C19 1_555 1_555
C23 C12 1_555 1_555
H15 C23 1_555 1_555
Cu1_2 O3 1_555 1_555
Cu1E N2 1_555 1_555
Cu1G N3 1_555 1_555
O3_2 Cu1 1_555 1_555
O4_2 Cu1 1_555 1_555
N2E Cu1 1_555 1_555
N3G Cu1 1_555 1_555
O4 Cu1_2 1_555 1_555
C4 C5 1_555 1_555
C9 C10 1_555 1_555
C19 C20 1_555 1_555
C21 C22 1_555 1_555
C22 C23 1_555 1_555

#END
