
#######################################################################
#
#                 Cambridge Crystallographic Data Centre
#                                CCDC 
#
#######################################################################
#
# If this CIF has been generated from an entry in the Cambridge 
# Structural Database, then it will include bibliographic, chemical, 
# crystal, experimental, refinement or atomic coordinate data resulting 
# from the CCDC's data processing and validation procedures.
#
#######################################################################

data_DUJRAD
_symmetry_cell_setting           orthorhombic
_symmetry_space_group_name_H-M   'P 21 21 21'
_symmetry_Int_Tables_number      19
_space_group_name_Hall           'P 2ac 2ab'
loop_
_symmetry_equiv_pos_site_id
_symmetry_equiv_pos_as_xyz
1 x,y,z
2 1/2-x,-y,1/2+z
3 -x,1/2+y,1/2-z
4 1/2+x,1/2-y,-z
_cell_length_a                   12.721(6)
_cell_length_b                   13.820(7)
_cell_length_c                   14.866(7)
_cell_angle_alpha                90
_cell_angle_beta                 90
_cell_angle_gamma                90
_cell_volume                     2613.51
loop_
_atom_site_label
_atom_site_type_symbol
_atom_site_fract_x
_atom_site_fract_y
_atom_site_fract_z
Cu1 Cu 0.49988(5) 0.36249(4) -0.51493(3)
Ba1 Ba 0.29508(2) 0.198971(19) -0.58008(2)
C1 C 0.5861(5) 0.4864(3) -0.3996(4)
C2 C 0.5941(4) 0.5583(4) -0.3219(4)
C3 C 0.6812(5) 0.5849(5) -0.2737(4)
H1 H 0.7483 0.5613 -0.2852
C4 C 0.6590(5) 0.6507(5) -0.2062(4)
H2 H 0.7100 0.6774 -0.1689
C5 C 0.5553(4) 0.6722(4) -0.1999(3)
C6 C 0.5003(4) 0.7362(3) -0.1332(3)
C7 C 0.6022(4) 0.2235(3) -0.6033(3)
C8 C 0.6293(4) 0.1414(3) -0.6659(3)
C9 C 0.7220(4) 0.0945(4) -0.6717(4)
H3 H 0.7796 0.1090 -0.6357
C10 C 0.7229(5) 0.0212(4) -0.7378(4)
H4 H 0.7809 -0.0170 -0.7516
C11 C 0.6266(5) 0.0139(4) -0.7789(4)
C12 C 0.5984(4) -0.0508(4) -0.8557(4)
C13 C 0.4173(7) -0.0091(6) -0.4600(7)
H5 H 0.3529 -0.0320 -0.4392
C14 C 0.6088(8) -0.0133(9) -0.4568(8)
H6 H 0.5980 0.0352 -0.5021
H7 H 0.6478 -0.0662 -0.4820
H8 H 0.6474 0.0141 -0.4075
C15 C 0.4960(14) -0.1232(7) -0.3550(9)
H9 H 0.4231 -0.1349 -0.3425
H10 H 0.5307 -0.1019 -0.3012
H11 H 0.5282 -0.1819 -0.3759
O1 O 0.4956(3) 0.4647(3) -0.4250(3)
O2 O 0.2790(7) 0.1807(10) -0.7587(5)
H12 H 0.3223 0.2136 -0.7956
H13 H 0.2297 0.1412 -0.7819
O3 O 0.6697(4) 0.4563(3) -0.4294(3)
O4 O 0.4047(4) 0.7515(3) -0.1443(3)
O5 O 0.5578(3) 0.7688(2) -0.0705(2)
O6 O 0.5089(3) 0.2532(2) -0.6041(3)
O7 O 0.6724(3) 0.2568(3) -0.5554(3)
O8 O 0.5055(4) -0.0436(3) -0.8860(3)
O9 O 0.6664(3) -0.1077(3) -0.8868(3)
O10 O 0.4154(5) 0.0536(4) -0.5169(5)
S1 S 0.48235(10) 0.61358(9) -0.28053(9)
S2 S 0.53894(11) 0.09580(10) -0.73913(9)
N1 N 0.5053(6) -0.0488(4) -0.4241(5)
Cu1B Cu 0.50012(5) -0.13751(4) -0.98507(3)
Cu1B_2 Cu 0.50012(5) 0.86249(4) 0.01493(3)
Ba1A Ba 0.20492(2) 0.801029(19) -0.08008(2)
Ba1B Ba 0.70492(2) -0.301029(19) -0.91992(2)
Ba1B_2 Ba 0.70492(2) 0.698971(19) 0.08008(2)
Ba1C Ba 0.79508(2) 0.301029(19) -0.41992(2)
O3C O 0.1697(4) 0.0437(3) -0.5706(3)
O4A O 0.0953(4) 0.2485(3) -0.6443(3)
O5B O 0.4422(3) 0.2688(2) -0.4295(2)
O7C O 0.1724(3) 0.2432(3) -0.4446(3)
O8B O 0.4945(4) 0.4564(3) -0.6140(3)
O9B O 0.3336(3) 0.3923(3) -0.6132(3)
loop_
_geom_bond_atom_site_label_1
_geom_bond_atom_site_label_2
_geom_bond_site_symmetry_1
_geom_bond_site_symmetry_2
Cu1 O1 1_555 1_555
Ba1 O2 1_555 1_555
C1 C2 1_555 1_555
C2 C3 1_555 1_555
C3 H1 1_555 1_555
C4 C3 1_555 1_555
H2 C4 1_555 1_555
C5 C4 1_555 1_555
C6 C5 1_555 1_555
C7 C8 1_555 1_555
C8 C9 1_555 1_555
C9 H3 1_555 1_555
C10 C9 1_555 1_555
H4 C10 1_555 1_555
C11 C10 1_555 1_555
C12 C11 1_555 1_555
C13 H5 1_555 1_555
C14 H6 1_555 1_555
H7 C14 1_555 1_555
H8 C14 1_555 1_555
C15 H9 1_555 1_555
H10 C15 1_555 1_555
H11 C15 1_555 1_555
O1 C1 1_555 1_555
O2 H12 1_555 1_555
H13 O2 1_555 1_555
O3 C1 1_555 1_555
O4 C6 1_555 1_555
O5 C6 1_555 1_555
O6 Cu1 1_555 1_555
O7 Cu1 1_555 1_555
O8 C12 1_555 1_555
O9 C12 1_555 1_555
O10 Ba1 1_555 1_555
S1 C2 1_555 1_555
S2 C8 1_555 1_555
N1 C13 1_555 1_555
Cu1B O8 1_555 1_555
Cu1B_2 O5 1_555 1_555
Ba1A O4 1_555 1_555
Ba1B O9 1_555 1_555
Ba1B_2 O5 1_555 1_555
Ba1C O3 1_555 1_555
O3C Ba1 1_555 1_555
O4A Ba1 1_555 1_555
O5B Cu1 1_555 1_555
O7C Ba1 1_555 1_555
O8B Cu1 1_555 1_555
O9B Cu1 1_555 1_555
Ba1 O6 1_555 1_555
Ba1 O5B 1_555 1_555
Ba1 O9B 1_555 1_555
C5 S1 1_555 1_555
C7 O6 1_555 1_555
C7 O7 1_555 1_555
C11 S2 1_555 1_555
C13 O10 1_555 1_555
C14 N1 1_555 1_555
C15 N1 1_555 1_555
O7 Ba1C 1_555 1_555
O9 Cu1B 1_555 1_555

#END
