
#######################################################################
#
#                 Cambridge Crystallographic Data Centre
#                                CCDC 
#
#######################################################################
#
# If this CIF has been generated from an entry in the Cambridge 
# Structural Database, then it will include bibliographic, chemical, 
# crystal, experimental, refinement or atomic coordinate data resulting 
# from the CCDC's data processing and validation procedures.
#
#######################################################################

data_DUKNEE
_symmetry_cell_setting           monoclinic
_symmetry_space_group_name_H-M   'C 2/c'
_symmetry_Int_Tables_number      15
_space_group_name_Hall           '-C 2yn'
loop_
_symmetry_equiv_pos_site_id
_symmetry_equiv_pos_as_xyz
1 x,y,z
2 -x,y,1/2-z
3 1/2+x,1/2+y,z
4 1/2-x,1/2+y,1/2-z
5 -x,-y,-z
6 x,-y,1/2+z
7 1/2-x,1/2-y,-z
8 1/2+x,1/2-y,1/2+z
_cell_length_a                   45.94(3)
_cell_length_b                   11.228(7)
_cell_length_c                   24.489(16)
_cell_angle_alpha                90
_cell_angle_beta                 98.809(12)
_cell_angle_gamma                90
_cell_volume                     12482.8
loop_
_atom_site_label
_atom_site_type_symbol
_atom_site_fract_x
_atom_site_fract_y
_atom_site_fract_z
N5 N 0.2540(3) 0.3013(10) 0.1889(5)
O17 O 0.2902(3) 0.2894(16) 0.1377(6)
C54 C 0.2366(3) 0.3856(15) 0.2153(6)
H43 H 0.2429 0.4652 0.2087
H44 H 0.2394 0.3707 0.2544
H45 H 0.2162 0.3766 0.2004
C55 C 0.2507(4) 0.1801(13) 0.2070(8)
H46 H 0.2637 0.1290 0.1903
H47 H 0.2307 0.1547 0.1961
H48 H 0.2557 0.1761 0.2464
C56 C 0.2721(3) 0.3528(15) 0.1571(6)
H49 H 0.2710 0.4341 0.1499
Cd1 Cd 0.014219(9) 1.33746(4) 0.058934(17)
Cd2 Cd 0.216813(10) 0.63792(4) 0.079574(19)
N1 N 0.04454(11) 0.6817(5) 0.4924(2)
O1 O 0.01690(10) -0.1702(4) -0.03452(19)
N2 N 0.04220(11) 1.2162(5) 0.1231(2)
O2 O 0.02700(9) -0.3338(4) 0.01313(18)
N3 N 0.19669(11) 0.7213(5) 0.1544(2)
N4 N 0.18441(12) 1.2573(5) 0.5165(2)
O3 O 0.48032(11) 0.8887(6) 0.1091(2)
O4 O 0.03862(8) 1.5062(3) 0.09433(17)
H1 H 0.0268 1.5472 0.1175
H2 H 0.0420 1.5574 0.0645
O5 O 0.08556(10) 0.9905(4) 0.24161(17)
O6 O 0.10109(9) 0.7930(4) 0.38679(18)
C1 C 0.1118(2) -0.0713(8) 0.0838(4)
C2 C 0.14140(12) 0.9729(5) 0.3694(2)
C3 C 0.0953(2) -0.0107(8) 0.0407(4)
H3 H 0.1013 0.0636 0.0299
O7 O 0.15371(10) 0.8928(4) 0.26689(18)
C4 C 0.06969(16) -0.0620(7) 0.0138(3)
H4 H 0.0583 -0.0217 -0.0151
C5 C 0.06083(14) -0.1749(5) 0.0298(3)
C6 C 0.07792(15) -0.2293(6) 0.0734(3)
H5 H 0.0724 -0.3037 0.0849
O8 O 0.23650(12) 0.5615(5) 0.0045(2)
H6 H 0.2491 0.5015 0.0151
H7 H 0.2350 0.5758 -0.0320
C7 C 0.10315(18) -0.1767(8) 0.1006(4)
H8 H 0.1141 -0.2147 0.1307
O9 O 0.25254(9) 0.8022(4) 0.08456(18)
C8 C 0.03322(12) -0.2284(5) 0.0019(2)
O10 O 0.26287(10) 0.6461(4) 0.1388(2)
C9 C 0.03447(14) 0.7416(6) 0.4461(2)
H9 H 0.0144 0.7578 0.4387
O11 O 0.37160(10) 0.9775(6) 0.2332(2)
C10 C 0.07326(15) 0.6553(6) 0.5001(3)
H10 H 0.0807 0.6099 0.5309
O12 O 0.49905(10) 1.0372(4) 0.16290(19)
C11 C 0.06028(14) 1.2614(6) 0.1652(2)
H11 H 0.0628 1.3436 0.1670
C12 C 0.07567(14) 1.1920(6) 0.2066(3)
H12 H 0.0882 1.2271 0.2356
C13 C 0.07215(13) 1.0715(5) 0.2043(3)
C14 C 0.05365(15) 1.0230(6) 0.1595(3)
H13 H 0.0517 0.9409 0.1555
C15 C 0.03850(16) 1.0979(6) 0.1217(3)
H14 H 0.0250 1.0655 0.0935
C16 C 0.10596(14) 1.0364(5) 0.2862(2)
H15 H 0.0964 1.0942 0.3069
H16 H 0.1222 1.0751 0.2723
C17 C 0.11713(13) 0.9305(6) 0.3230(2)
C18 C 0.09107(14) 0.8791(6) 0.3453(3)
H17 H 0.0805 0.9421 0.3609
H18 H 0.0778 0.8418 0.3156
C19 C 0.08134(13) 0.7560(5) 0.4195(2)
C20 C 0.09240(15) 0.6903(7) 0.4660(3)
H19 H 0.1123 0.6707 0.4737
C21 C 0.05172(14) 0.7806(6) 0.4090(3)
H20 H 0.0436 0.8225 0.3775
O13 O 0.12930(10) 1.0688(5) 0.39864(19)
C22 C 0.14823(12) 1.1267(6) 0.4372(2)
C23 C 0.13718(15) 1.2162(7) 0.4652(3)
H21 H 0.1172 1.2351 0.4579
C24 C 0.17778(13) 1.0998(6) 0.4490(2)
H22 H 0.1859 1.0388 0.4306
C25 C 0.13098(14) 0.8366(5) 0.2903(3)
H23 H 0.1390 0.7722 0.3144
H24 H 0.1163 0.8040 0.2615
C26 C 0.16786(14) 0.8305(5) 0.2309(2)
C27 C 0.18782(15) 0.8925(7) 0.2063(3)
H25 H 0.1919 0.9720 0.2150
C28 C 0.20167(16) 0.8341(6) 0.1682(3)
H26 H 0.2153 0.8761 0.1512
C29 C 0.17733(14) 0.6624(5) 0.1797(3)
H27 H 0.1739 0.5827 0.1707
C30 C 0.16244(14) 0.7110(6) 0.2175(2)
H28 H 0.1491 0.6665 0.2340
C31 C 0.15577(15) 1.2789(7) 0.5044(3)
H29 H 0.1478 1.3396 0.5234
C32 C 0.19482(14) 1.1663(6) 0.4891(3)
H30 H 0.2147 1.1472 0.4979
C33 C 0.26866(13) 0.7479(6) 0.1225(3)
C34 C 0.29633(13) 0.8078(6) 0.1517(3)
C35 C 0.30368(17) 0.9207(7) 0.1365(3)
H31 H 0.2919 0.9591 0.1076
C36 C 0.32823(19) 0.9772(8) 0.1636(4)
H32 H 0.3326 1.0547 0.1543
C37 C 0.34587(14) 0.9191(8) 0.2037(3)
C38 C 0.33887(16) 0.8090(8) 0.2204(4)
H33 H 0.3504 0.7719 0.2501
C39 C 0.31479(16) 0.7544(7) 0.1927(3)
H34 H 0.3108 0.6767 0.2023
C40 C 0.39712(13) 0.9753(6) 0.2078(3)
C41 C 0.39937(14) 0.9134(8) 0.1607(3)
H35 H 0.3834 0.8701 0.1431
C42 C 0.42563(14) 0.9153(7) 0.1393(3)
H36 H 0.4270 0.8755 0.1064
C43 C 0.44990(13) 0.9761(6) 0.1664(2)
C44 C 0.44670(13) 1.0365(5) 0.2149(3)
H37 H 0.4626 1.0787 0.2338
C45 C 0.42091(13) 1.0344(6) 0.2349(3)
H38 H 0.4194 1.0739 0.2677
C46 C 0.47852(13) 0.9696(6) 0.1445(3)
C47 C 0.1854(3) 0.4178(15) 0.0898(8)
O14 O 0.1672(3) 0.5030(10) 0.0809(5)
O15 O 0.2124(3) 0.4342(11) 0.0930(5)
C48 C 0.17482(18) 0.2900(7) 0.0846(4)
C49 C 0.1512(2) 0.2834(10) 0.1100(4)
H39 H 0.1433 0.3511 0.1238
C50 C 0.1872(3) 0.1908(10) 0.0724(6)
H40 H 0.2050 0.1955 0.0592
C51 C 0.1505(2) 0.0760(9) 0.0966(5)
C52 C 0.1386(2) 0.1679(12) 0.1152(5)
H41 H 0.1218 0.1597 0.1319
C53 C 0.1754(3) 0.0805(10) 0.0780(5)
H42 H 0.1848 0.0118 0.0688
O16 O 0.1378(2) -0.0308(8) 0.1115(4)
Cd1B Cd 0.514219(9) 0.83746(4) 0.058934(17)
Cd1D Cd -0.014219(9) -0.33746(4) -0.058934(17)
Cd1E Cd 0.014219(9) 0.66254(4) 0.558934(17)
Cd2E Cd 0.216813(10) 1.36208(4) 0.579574(19)
N1E N 0.04454(11) 1.3183(5) -0.0076(2)
O1D O -0.01690(10) 1.1702(4) 0.03452(19)
O2D O -0.02700(9) 1.3338(4) -0.01313(18)
N4E N 0.18441(12) 0.7427(5) 0.0165(2)
O3B O -0.01968(11) 1.3887(6) 0.1091(2)
O18? O 0.1951(3) 0.4756(10) 0.0896(5)
O19? O 0.2044(3) 0.3759(14) 0.0178(6)
C57? C 0.1923(4) 0.3902(16) 0.0619(8)
N6? N -0.0159(3) 1.1379(11) 0.2156(5)
O20? O -0.0177(3) 0.9358(13) 0.2167(7)
C58? C 0.0000 1.2375(12) 0.2500
C59? C -0.0350(3) 1.1311(14) 0.1584(6)
C60? C -0.0085(3) 1.0310(12) 0.2405(7)
loop_
_geom_bond_atom_site_label_1
_geom_bond_atom_site_label_2
_geom_bond_site_symmetry_1
_geom_bond_site_symmetry_2
Cd1 N2 1_555 1_555
Cd2 N3 1_555 1_555
N1 C9 1_555 1_555
O1 C8 1_555 1_555
N2 C11 1_555 1_555
O2 C8 1_555 1_555
N3 C28 1_555 1_555
N4 C31 1_555 1_555
O3 C46 1_555 1_555
O4 Cd1 1_555 1_555
H1 O4 1_555 1_555
H2 O4 1_555 1_555
O5 C13 1_555 1_555
O6 C18 1_555 1_555
C1 C3 1_555 1_555
C2 C17 1_555 1_555
C3 H3 1_555 1_555
O7 C25 1_555 1_555
C4 C3 1_555 1_555
H4 C4 1_555 1_555
C5 C4 1_555 1_555
C6 C5 1_555 1_555
H5 C6 1_555 1_555
O8 Cd2 1_555 1_555
H6 O8 1_555 1_555
H7 O8 1_555 1_555
C7 C1 1_555 1_555
H8 C7 1_555 1_555
O9 Cd2 1_555 1_555
C8 C5 1_555 1_555
O10 Cd2 1_555 1_555
C9 H9 1_555 1_555
O11 C37 1_555 1_555
C10 N1 1_555 1_555
H10 C10 1_555 1_555
O12 C46 1_555 1_555
C11 H11 1_555 1_555
C12 C11 1_555 1_555
H12 C12 1_555 1_555
C13 C12 1_555 1_555
C14 C13 1_555 1_555
H13 C14 1_555 1_555
C15 N2 1_555 1_555
H14 C15 1_555 1_555
C16 O5 1_555 1_555
H15 C16 1_555 1_555
H16 C16 1_555 1_555
C17 C16 1_555 1_555
C18 C17 1_555 1_555
H17 C18 1_555 1_555
H18 C18 1_555 1_555
C19 O6 1_555 1_555
C20 C10 1_555 1_555
H19 C20 1_555 1_555
C21 C9 1_555 1_555
H20 C21 1_555 1_555
O13 C2 1_555 1_555
C22 O13 1_555 1_555
C23 C22 1_555 1_555
H21 C23 1_555 1_555
C24 C22 1_555 1_555
H22 C24 1_555 1_555
C25 C17 1_555 1_555
H23 C25 1_555 1_555
H24 C25 1_555 1_555
C26 O7 1_555 1_555
C27 C26 1_555 1_555
H25 C27 1_555 1_555
C28 C27 1_555 1_555
H26 C28 1_555 1_555
C29 N3 1_555 1_555
H27 C29 1_555 1_555
C30 C26 1_555 1_555
H28 C30 1_555 1_555
C31 C23 1_555 1_555
H29 C31 1_555 1_555
C32 N4 1_555 1_555
H30 C32 1_555 1_555
C33 O9 1_555 1_555
C34 C33 1_555 1_555
C35 C34 1_555 1_555
H31 C35 1_555 1_555
C36 C35 1_555 1_555
H32 C36 1_555 1_555
C37 C36 1_555 1_555
C38 C37 1_555 1_555
H33 C38 1_555 1_555
C39 C34 1_555 1_555
H34 C39 1_555 1_555
C40 O11 1_555 1_555
C41 C40 1_555 1_555
H35 C41 1_555 1_555
C42 C41 1_555 1_555
H36 C42 1_555 1_555
C43 C42 1_555 1_555
C44 C43 1_555 1_555
H37 C44 1_555 1_555
C45 C40 1_555 1_555
H38 C45 1_555 1_555
C46 C43 1_555 1_555
C47 O14 1_555 1_555
O14 Cd2 1_555 1_555
O15 Cd2 1_555 1_555
C48 C47 1_555 1_555
C49 C48 1_555 1_555
H39 C49 1_555 1_555
C50 C48 1_555 1_555
H40 C50 1_555 1_555
C51 C52 1_555 1_555
C52 C49 1_555 1_555
H41 C52 1_555 1_555
C53 C50 1_555 1_555
H42 C53 1_555 1_555
O16 C1 1_555 1_555
N5 C54 1_555 1_555
O17 C56 1_555 1_555
C54 H43 1_555 1_555
H44 C54 1_555 1_555
H45 C54 1_555 1_555
C55 N5 1_555 1_555
H46 C55 1_555 1_555
H47 C55 1_555 1_555
H48 C55 1_555 1_555
C56 N5 1_555 1_555
H49 C56 1_555 1_555
Cd1B O3 1_555 1_555
Cd1D O1 1_555 1_555
Cd1E N1 1_555 1_555
Cd2E N4 1_555 1_555
N1E Cd1 1_555 1_555
O1D Cd1 1_555 1_555
O2D Cd1 1_555 1_555
N4E Cd2 1_555 1_555
O3B Cd1 1_555 1_555
O2 Cd1D 1_555 1_555
C6 C7 1_555 1_555
O10 C33 1_555 1_555
C14 C15 1_555 1_555
C19 C20 1_555 1_555
C19 C21 1_555 1_555
C24 C32 1_555 1_555
C29 C30 1_555 1_555
C38 C39 1_555 1_555
C44 C45 1_555 1_555
C47 O15 1_555 1_555
C51 C53 1_555 1_555
C51 O16 1_555 1_555

#END
