
#######################################################################
#
#                 Cambridge Crystallographic Data Centre
#                                CCDC 
#
#######################################################################
#
# If this CIF has been generated from an entry in the Cambridge 
# Structural Database, then it will include bibliographic, chemical, 
# crystal, experimental, refinement or atomic coordinate data resulting 
# from the CCDC's data processing and validation procedures.
#
#######################################################################

data_DUMXEQ01
_symmetry_cell_setting           monoclinic
_symmetry_space_group_name_H-M   'P 21/c'
_symmetry_Int_Tables_number      14
_space_group_name_Hall           '-P 2ybc'
loop_
_symmetry_equiv_pos_site_id
_symmetry_equiv_pos_as_xyz
1 x,y,z
2 -x,1/2+y,1/2-z
3 -x,-y,-z
4 x,1/2-y,1/2+z
_cell_length_a                   10.1414(3)
_cell_length_b                   17.3983(4)
_cell_length_c                   11.3646(4)
_cell_angle_alpha                90
_cell_angle_beta                 110.085(3)
_cell_angle_gamma                90
_cell_volume                     1883.26
loop_
_atom_site_label
_atom_site_type_symbol
_atom_site_fract_x
_atom_site_fract_y
_atom_site_fract_z
Dy1 Dy 0.509471(19) 0.507044(10) 0.681282(17)
O1 O -0.2717(3) 0.48579(15) 0.6557(3)
O2 O 0.7028(3) 0.53865(15) 0.8794(3)
O3 O -0.2913(3) 0.45292(14) 0.4587(2)
O4 O 0.3567(3) 0.41743(14) 0.7251(2)
O5 O 0.4119(3) 0.56798(14) 0.8169(2)
N1 N 0.7310(4) 0.4696(2) 0.9079(3)
O6 O 0.5604(3) 0.86074(14) 1.1574(2)
O7 O 0.5261(3) 0.91584(14) 0.9748(2)
O8 O 0.6464(3) 0.41826(15) 0.8441(3)
N2 N 0.4468(3) 0.63686(17) 0.8696(3)
N3 N 0.2180(3) 0.42520(17) 0.6902(3)
C1 C 0.1353(4) 0.3994(2) 0.5773(4)
H1 H 0.1751 0.3745 0.5252
C2 C 0.5373(4) 0.8567(2) 1.0428(4)
C3 C 0.5511(4) 0.7121(2) 1.0506(4)
H2 H 0.5986 0.7152 1.1365
C4 C 0.0200(4) 0.4684(2) 0.7351(4)
H3 H -0.0178 0.4902 0.7912
C5 C 0.4376(4) 0.7721(2) 0.8526(4)
H4 H 0.4100 0.8160 0.8035
O9 O 0.8370(4) 0.4518(2) 0.9958(3)
C6 C -0.0075(4) 0.4096(2) 0.5387(4)
H5 H -0.0639 0.3925 0.4599
C7 C -0.2236(4) 0.4624(2) 0.5741(4)
C8 C -0.0682(4) 0.4455(2) 0.6171(4)
C9 C 0.4051(4) 0.7010(2) 0.7986(4)
H6 H 0.3544 0.6967 0.7135
C10 C 0.5114(4) 0.7791(2) 0.9796(4)
C11 C 0.1618(4) 0.4592(2) 0.7688(4)
H7 H 0.2203 0.4764 0.8466
C12 C 0.5197(4) 0.6419(2) 0.9931(4)
H8 H 0.5491 0.5973 1.0399
Dy1_2 Dy -0.490529(19) 0.507044(10) 0.681282(17)
Dy1A Dy 0.490529(19) 1.007044(10) 0.818718(17)
Dy1B Dy -0.509471(19) 0.492956(10) 0.318718(17)
Dy1C Dy 0.509471(19) 0.992956(10) 1.181282(17)
O1_2 O 0.7283(3) 0.48579(15) 0.6557(3)
O3B O 0.2913(3) 0.54708(14) 0.5413(2)
O6C O 0.5604(3) 0.63926(14) 0.6574(2)
O7A O 0.4739(3) 0.41584(14) 0.5252(2)
O7C O 0.5261(3) 0.58416(14) 0.4748(2)
N4 N 0.0145(4) 0.3065(2) 0.1079(4)
O10 O 0.0795(6) 0.3296(2) 0.3154(4)
C13 C 0.0460(6) 0.3149(3) -0.0062(5)
H9 H 0.1364 0.3386 0.0125
H10 H -0.0242 0.3466 -0.0642
H11 H 0.0467 0.2652 -0.0427
C14 C 0.1000(7) 0.3308(3) 0.2150(5)
H12 H 0.1850 0.3512 0.2156
C15 C -0.1249(6) 0.2784(3) 0.0969(6)
H13 H -0.1948 0.3071 0.0333
H14 H -0.1392 0.2846 0.1756
H15 H -0.1323 0.2249 0.0745
loop_
_geom_bond_atom_site_label_1
_geom_bond_atom_site_label_2
_geom_bond_site_symmetry_1
_geom_bond_site_symmetry_2
Dy1 O2 1_555 1_555
O1 C7 1_555 1_555
O2 N1 1_555 1_555
O3 C7 1_555 1_555
O4 Dy1 1_555 1_555
O5 Dy1 1_555 1_555
N1 O8 1_555 1_555
O6 C2 1_555 1_555
O7 C2 1_555 1_555
O8 Dy1 1_555 1_555
N2 O5 1_555 1_555
N3 O4 1_555 1_555
C1 N3 1_555 1_555
H1 C1 1_555 1_555
C2 C10 1_555 1_555
C3 H2 1_555 1_555
C4 H3 1_555 1_555
C5 H4 1_555 1_555
O9 N1 1_555 1_555
C6 C1 1_555 1_555
H5 C6 1_555 1_555
C7 C8 1_555 1_555
C8 C4 1_555 1_555
C9 N2 1_555 1_555
H6 C9 1_555 1_555
C10 C3 1_555 1_555
C11 N3 1_555 1_555
H7 C11 1_555 1_555
C12 N2 1_555 1_555
H8 C12 1_555 1_555
N4 C13 1_555 1_555
O10 C14 1_555 1_555
C13 H9 1_555 1_555
H10 C13 1_555 1_555
H11 C13 1_555 1_555
C14 N4 1_555 1_555
H12 C14 1_555 1_555
C15 N4 1_555 1_555
H13 C15 1_555 1_555
H14 C15 1_555 1_555
H15 C15 1_555 1_555
Dy1_2 O1 1_555 1_555
Dy1A O7 1_555 1_555
Dy1B O3 1_555 1_555
Dy1C O6 1_555 1_555
O1_2 Dy1 1_555 1_555
O3B Dy1 1_555 1_555
O6C Dy1 1_555 1_555
O7A Dy1 1_555 1_555
O7C Dy1 1_555 1_555
O7 Dy1C 1_555 1_555
C3 C12 1_555 1_555
C4 C11 1_555 1_555
C5 C9 1_555 1_555
C5 C10 1_555 1_555
C6 C8 1_555 1_555

#END
