
#######################################################################
#
#                 Cambridge Crystallographic Data Centre
#                                CCDC 
#
#######################################################################
#
# If this CIF has been generated from an entry in the Cambridge 
# Structural Database, then it will include bibliographic, chemical, 
# crystal, experimental, refinement or atomic coordinate data resulting 
# from the CCDC's data processing and validation procedures.
#
#######################################################################

data_DUPKEG
_symmetry_cell_setting           monoclinic
_symmetry_space_group_name_H-M   'C 2/c'
_symmetry_Int_Tables_number      15
_space_group_name_Hall           '-C 2yn'
loop_
_symmetry_equiv_pos_site_id
_symmetry_equiv_pos_as_xyz
1 x,y,z
2 -x,y,1/2-z
3 1/2+x,1/2+y,z
4 1/2-x,1/2+y,1/2-z
5 -x,-y,-z
6 x,-y,1/2+z
7 1/2-x,1/2-y,-z
8 1/2+x,1/2-y,1/2+z
_cell_length_a                   16.709(3)
_cell_length_b                   15.867(3)
_cell_length_c                   8.0026(16)
_cell_angle_alpha                90
_cell_angle_beta                 113.96(3)
_cell_angle_gamma                90
_cell_volume                     1938.84
loop_
_atom_site_label
_atom_site_type_symbol
_atom_site_fract_x
_atom_site_fract_y
_atom_site_fract_z
Cd1 Cd 0.5000 0.013757(18) 0.7500
O1 O 0.40351(16) 0.10760(16) 0.5818(3)
O2 O 0.39571(14) 0.00299(13) 0.3960(3)
N1 N 0.0000 0.3711(2) -0.2500
C1 C 0.06557(16) 0.32812(18) -0.1234(3)
H1 H 0.1103 0.3582 -0.0338
C2 C 0.06999(15) 0.24062(18) -0.1194(3)
C3 C 0.0000 0.1971(2) -0.2500
H2 H 0.0000 0.1384 -0.2500
C4 C 0.14724(16) 0.19716(17) 0.0197(3)
C5 C 0.19655(18) 0.23545(19) 0.1862(3)
H3 H 0.1814 0.2890 0.2104
C6 C 0.26763(18) 0.1950(2) 0.3160(4)
H4 H 0.3001 0.2220 0.4260
C7 C 0.29151(17) 0.11449(19) 0.2847(3)
C8 C 0.24309(19) 0.0764(2) 0.1183(4)
H5 H 0.2585 0.0229 0.0941
C9 C 0.17206(19) 0.1172(2) -0.0121(4)
H6 H 0.1403 0.0907 -0.1231
C10 C 0.36869(19) 0.0724(2) 0.4290(4)
O1A O -0.40351(16) 0.10760(16) -1.0818(3)
O2A O -0.39571(14) 0.00299(13) -0.8960(3)
C1A C -0.06557(16) 0.32812(18) -0.3766(3)
H1A H -0.1103 0.3582 -0.4662
C2A C -0.06999(15) 0.24062(18) -0.3806(3)
C4A C -0.14724(16) 0.19716(17) -0.5197(3)
C5A C -0.19655(18) 0.23545(19) -0.6862(3)
H3A H -0.1814 0.2890 -0.7104
C6A C -0.26763(18) 0.1950(2) -0.8160(4)
H4A H -0.3001 0.2220 -0.9260
C7A C -0.29151(17) 0.11449(19) -0.7847(3)
C8A C -0.24309(19) 0.0764(2) -0.6183(4)
H5A H -0.2585 0.0229 -0.5941
C9A C -0.17206(19) 0.1172(2) -0.4879(4)
H6A H -0.1403 0.0907 -0.3769
C10A C -0.36869(19) 0.0724(2) -0.9290(4)
Cd1_2 Cd -0.5000 0.013757(18) -1.2500
Cd1B Cd 0.0000 0.513757(18) -0.2500
Cd1D Cd -0.5000 -0.013757(18) -0.7500
Cd1D_2 Cd 0.5000 -0.013757(18) 0.2500
O1A_2 O 0.59649(16) 0.10760(16) 0.9182(3)
O2A_2 O 0.60429(14) 0.00299(13) 1.1040(3)
O2D O 0.60429(14) -0.00299(13) 0.6040(3)
O2E O 0.39571(14) -0.00299(13) 0.8960(3)
N1B N 0.5000 -0.1289(2) 0.7500
loop_
_geom_bond_atom_site_label_1
_geom_bond_atom_site_label_2
_geom_bond_site_symmetry_1
_geom_bond_site_symmetry_2
Cd1 O1 1_555 1_555
O1 C10 1_555 1_555
O2 Cd1 1_555 1_555
N1 C1 1_555 1_555
C1 H1 1_555 1_555
C2 C1 1_555 1_555
C3 C2 1_555 1_555
H2 C3 1_555 1_555
C4 C2 1_555 1_555
C5 C4 1_555 1_555
H3 C5 1_555 1_555
C6 C5 1_555 1_555
H4 C6 1_555 1_555
C7 C6 1_555 1_555
C8 C7 1_555 1_555
H5 C8 1_555 1_555
C9 C4 1_555 1_555
H6 C9 1_555 1_555
C10 O2 1_555 1_555
O1A C10A 1_555 1_555
O2A C10A 1_555 1_555
C1A N1 1_555 1_555
H1A C1A 1_555 1_555
C2A C3 1_555 1_555
C4A C2A 1_555 1_555
C5A C4A 1_555 1_555
H3A C5A 1_555 1_555
C6A C5A 1_555 1_555
H4A C6A 1_555 1_555
C7A C6A 1_555 1_555
C8A C7A 1_555 1_555
H5A C8A 1_555 1_555
C9A C4A 1_555 1_555
H6A C9A 1_555 1_555
C10A C7A 1_555 1_555
Cd1_2 O1A 1_555 1_555
Cd1B N1 1_555 1_555
Cd1D O2A 1_555 1_555
Cd1D_2 O2 1_555 1_555
O1A_2 Cd1 1_555 1_555
O2A_2 Cd1 1_555 1_555
O2D Cd1 1_555 1_555
O2E Cd1 1_555 1_555
N1B Cd1 1_555 1_555
C7 C10 1_555 1_555
C8 C9 1_555 1_555
O2A Cd1_2 1_555 1_555
C1A C2A 1_555 1_555
C8A C9A 1_555 1_555
Cd1D_2 O2D 1_555 1_555

#END
