
#######################################################################
#
#                 Cambridge Crystallographic Data Centre
#                                CCDC 
#
#######################################################################
#
# If this CIF has been generated from an entry in the Cambridge 
# Structural Database, then it will include bibliographic, chemical, 
# crystal, experimental, refinement or atomic coordinate data resulting 
# from the CCDC's data processing and validation procedures.
#
#######################################################################

data_DUPKIK
_symmetry_cell_setting           rhombohedral
_symmetry_space_group_name_H-M   'R -3 c'
_symmetry_Int_Tables_number      167
_space_group_name_Hall           '-R 3 2"c'
loop_
_symmetry_equiv_pos_site_id
_symmetry_equiv_pos_as_xyz
1 x,y,z
2 -y,x-y,z
3 -x+y,-x,z
4 y,x,1/2-z
5 x-y,-y,1/2-z
6 -x,-x+y,1/2-z
7 2/3+x,1/3+y,1/3+z
8 2/3-y,1/3+x-y,1/3+z
9 2/3-x+y,1/3-x,1/3+z
10 2/3+y,1/3+x,5/6-z
11 2/3+x-y,1/3-y,5/6-z
12 2/3-x,1/3-x+y,5/6-z
13 1/3+x,2/3+y,2/3+z
14 1/3-y,2/3+x-y,2/3+z
15 1/3-x+y,2/3-x,2/3+z
16 1/3+y,2/3+x,1/6-z
17 1/3+x-y,2/3-y,1/6-z
18 1/3-x,2/3-x+y,1/6-z
19 -x,-y,-z
20 y,-x+y,-z
21 x-y,x,-z
22 -y,-x,1/2+z
23 -x+y,y,1/2+z
24 x,x-y,1/2+z
25 1/3-x,2/3-y,2/3-z
26 1/3+y,2/3-x+y,2/3-z
27 1/3+x-y,2/3+x,2/3-z
28 1/3-y,2/3-x,1/6+z
29 1/3-x+y,2/3+y,1/6+z
30 1/3+x,2/3+x-y,1/6+z
31 2/3-x,1/3-y,1/3-z
32 2/3+y,1/3-x+y,1/3-z
33 2/3+x-y,1/3+x,1/3-z
34 2/3-y,1/3-x,5/6+z
35 2/3-x+y,1/3+y,5/6+z
36 2/3+x,1/3+x-y,5/6+z
_cell_length_a                   19.627(3)
_cell_length_b                   19.627(3)
_cell_length_c                   45.856(9)
_cell_angle_alpha                90
_cell_angle_beta                 90
_cell_angle_gamma                120
_cell_volume                     15298
loop_
_atom_site_label
_atom_site_type_symbol
_atom_site_fract_x
_atom_site_fract_y
_atom_site_fract_z
In1 In 0.6667 0.436707(8) 0.5833
O1 O 0.48583(8) 0.73785(8) 0.45315(3)
O2 O 0.42741(9) 0.60708(8) 0.44828(3)
O3 O 0.6667 0.3333 0.5833
N1 N 0.6667 0.54997(10) 0.5833
C1 C 0.63195(13) 0.56734(11) 0.56198(4)
H1 H 0.6085 0.5314 0.5469
C2 C 0.62915(15) 0.63659(12) 0.56121(5)
C3 C 0.6667 0.69027(15) 0.5833
H2 H 0.6667 0.7376 0.5833
C4 C 0.58713(16) 0.64899(13) 0.53665(5)
C5 C 0.51598(17) 0.58486(14) 0.52702(6)
H3 H 0.4938 0.5372 0.5370
C6 C 0.47918(16) 0.59286(15) 0.50273(6)
H4 H 0.4328 0.5501 0.4960
C7 C 0.51126(14) 0.66502(12) 0.48814(5)
C8 C 0.5720(2) 0.72809(14) 0.50090(7)
H5 H 0.5892 0.7781 0.4934
C9 C 0.6091(2) 0.71930(15) 0.52505(7)
H6 H 0.6507 0.7638 0.5335
C10 C 0.47187(12) 0.67096(11) 0.46111(4)
O1Q O 0.84750(8) 0.91869(11) 0.71352(3)
O2Q O 0.90592(9) 0.84634(12) 0.71839(3)
C1Q C 0.70138(13) 0.60206(17) 0.60469(4)
H1Q H 0.7248 0.5896 0.6198
C2Q C 0.70418(15) 0.67411(19) 0.60546(5)
C4Q C 0.74620(16) 0.72853(21) 0.63002(5)
C5Q C 0.81735(17) 0.73555(22) 0.63965(6)
H3Q H 0.8395 0.7101 0.6297
C6Q C 0.85415(16) 0.78035(22) 0.66394(6)
H4Q H 0.9005 0.7840 0.6707
C7Q C 0.82207(14) 0.82043(18) 0.67853(5)
C8Q C 0.7613(2) 0.82276(24) 0.66577(7)
H5Q H 0.7441 0.8556 0.6733
C9Q C 0.7242(2) 0.77687(25) 0.64162(7)
H6Q H 0.6826 0.7798 0.6332
C10Q C 0.86146(12) 0.86576(16) 0.70556(4)
In1A In 0.563293(8) 0.229993(8) 0.5833
O1A O 0.26215(8) -0.25202(11) 0.45315(3)
O2A O 0.39292(8) -0.17967(12) 0.44828(3)
N1A N 0.45003(10) 0.11673(10) 0.5833
C1A C 0.43266(11) 0.06461(17) 0.56198(4)
H1A H 0.4686 0.0771 0.5469
C2A C 0.36341(12) -0.00744(19) 0.56121(5)
C3A C 0.30973(15) -0.02357(15) 0.5833
H2A H 0.2624 -0.0709 0.5833
C4A C 0.35101(13) -0.06186(21) 0.53665(5)
C5A C 0.41514(14) -0.06888(22) 0.52702(6)
H3A H 0.4628 -0.0434 0.5370
C6A C 0.40714(15) -0.11368(22) 0.50273(6)
H4A H 0.4499 -0.1173 0.4960
C7A C 0.33498(12) -0.15376(18) 0.48814(5)
C8A C 0.27191(14) -0.15609(24) 0.50090(7)
H5A H 0.2219 -0.1889 0.4934
C9A C 0.28070(15) -0.11020(25) 0.52505(7)
H6A H 0.2362 -0.1131 0.5335
C10A C 0.32904(11) -0.19909(16) 0.46111(4)
O1P O 0.08131(11) -0.07118(8) 0.71352(3)
O2P O 0.15366(12) 0.05959(8) 0.71839(3)
C1P C 0.39794(17) 0.09933(11) 0.60469(4)
H1P H 0.4104 0.1353 0.6198
C2P C 0.32589(19) 0.03008(12) 0.60546(5)
C4P C 0.27147(21) 0.01768(13) 0.63002(5)
C5P C 0.26445(22) 0.08181(14) 0.63965(6)
H3P H 0.2899 0.1295 0.6297
C6P C 0.21965(22) 0.07381(15) 0.66394(6)
H4P H 0.2160 0.1166 0.6707
C7P C 0.17957(18) 0.00165(12) 0.67853(5)
C8P C 0.17724(24) -0.06142(14) 0.66577(7)
H5P H 0.1444 -0.1114 0.6733
C9P C 0.22313(25) -0.05263(15) 0.64162(7)
H6P H 0.2202 -0.0971 0.6332
C10P C 0.13424(16) -0.00429(11) 0.70556(4)
In1B In 0.770007(8) 0.3333 0.5833
O1B O 1.25202(11) 0.51417(8) 0.45315(3)
O2B O 1.17967(12) 0.57259(9) 0.44828(3)
N1B N 0.88327(10) 0.3333 0.5833
C1B C 0.93539(17) 0.36805(13) 0.56198(4)
H1B H 0.9229 0.3915 0.5469
C2B C 1.00744(19) 0.37085(15) 0.56121(5)
C3B C 1.02357(15) 0.3333 0.5833
H2B H 1.0709 0.3333 0.5833
C4B C 1.06186(21) 0.41287(16) 0.53665(5)
C5B C 1.06888(22) 0.48402(17) 0.52702(6)
H3B H 1.0434 0.5062 0.5370
C6B C 1.11368(22) 0.52082(16) 0.50273(6)
H4B H 1.1173 0.5672 0.4960
C7B C 1.15376(18) 0.48874(14) 0.48814(5)
C8B C 1.15609(24) 0.4280(2) 0.50090(7)
H5B H 1.1889 0.4108 0.4934
C9B C 1.11020(25) 0.3909(2) 0.52505(7)
H6B H 1.1131 0.3493 0.5335
C10B C 1.19909(16) 0.52813(12) 0.46111(4)
O1O O 1.07118(8) 0.15250(8) 0.71352(3)
O2O O 0.94041(8) 0.09408(9) 0.71839(3)
C1O C 0.90067(11) 0.29862(13) 0.60469(4)
H1O H 0.8647 0.2752 0.6198
C2O C 0.96992(12) 0.29582(15) 0.60546(5)
C4O C 0.98232(13) 0.25380(16) 0.63002(5)
C5O C 0.91819(14) 0.18265(17) 0.63965(6)
H3O H 0.8705 0.1605 0.6297
C6O C 0.92619(15) 0.14585(16) 0.66394(6)
H4O H 0.8834 0.0995 0.6707
C7O C 0.99835(12) 0.17793(14) 0.67853(5)
C8O C 1.06142(14) 0.2387(2) 0.66577(7)
H5O H 1.1114 0.2559 0.6733
C9O C 1.05263(15) 0.2758(2) 0.64162(7)
H6O H 1.0971 0.3174 0.6332
C10O C 1.00429(11) 0.13854(12) 0.70556(4)
In1R In 0.3333 0.563293(8) 0.4167
In1R_2 In 1.3333 0.563293(8) 0.4167
In1S In 0.436707(8) -0.229993(8) 0.4167
In1S_2 In 0.436707(8) 0.770007(8) 0.4167
In1T In 0.229993(8) -0.3333 0.4167
In1T_2 In 1.229993(8) 0.6667 0.4167
In1DA In -0.0000 -0.103374(8) 0.7500
In1DA_2 In 1.0000 0.896626(8) 0.7500
In1EA In 0.103374(8) 0.103340(8) 0.7500
In1EA_2 In 1.103374(8) 0.103340(8) 0.7500
In1FA In 0.896660(8) 0.0000 0.7500
In1FA_2 In 0.896660(8) 1.0000 0.7500
O1R O 0.51417(8) 0.26215(8) 0.54685(3)
O1S O 0.73785(8) 0.25202(11) 0.54685(3)
O1T O 0.74798(11) 0.48583(8) 0.54685(3)
O1AA O 0.59548(8) 0.18084(8) 0.61982(3)
O1BA O 0.58535(11) 0.40452(8) 0.61982(3)
O1CA O 0.81916(8) 0.41465(11) 0.61982(3)
O2R O 0.57259(9) 0.39292(8) 0.55172(3)
O2S O 0.60708(8) 0.17967(12) 0.55172(3)
O2T O 0.82033(12) 0.42741(9) 0.55172(3)
O2AA O 0.72625(8) 0.23926(9) 0.61495(3)
O2BA O 0.51300(12) 0.27375(8) 0.61495(3)
O2CA O 0.76074(9) 0.48700(12) 0.61495(3)
loop_
_geom_bond_atom_site_label_1
_geom_bond_atom_site_label_2
_geom_bond_site_symmetry_1
_geom_bond_site_symmetry_2
In1 O3 1_555 1_555
O1 C10 1_555 1_555
O2 C10 1_555 1_555
O3 In1A 1_555 1_555
N1 In1 1_555 1_555
C1 N1 1_555 1_555
H1 C1 1_555 1_555
C2 C1 1_555 1_555
C3 C2 1_555 1_555
H2 C3 1_555 1_555
C4 C2 1_555 1_555
C5 C4 1_555 1_555
H3 C5 1_555 1_555
C6 C5 1_555 1_555
H4 C6 1_555 1_555
C7 C6 1_555 1_555
C8 C7 1_555 1_555
H5 C8 1_555 1_555
C9 C4 1_555 1_555
H6 C9 1_555 1_555
C10 C7 1_555 1_555
O1Q C10Q 1_555 1_555
O2Q C10Q 1_555 1_555
C1Q N1 1_555 1_555
H1Q C1Q 1_555 1_555
C2Q C3 1_555 1_555
C4Q C2Q 1_555 1_555
C5Q C4Q 1_555 1_555
H3Q C5Q 1_555 1_555
C6Q C5Q 1_555 1_555
H4Q C6Q 1_555 1_555
C7Q C6Q 1_555 1_555
C8Q C7Q 1_555 1_555
H5Q C8Q 1_555 1_555
C9Q C4Q 1_555 1_555
H6Q C9Q 1_555 1_555
C10Q C7Q 1_555 1_555
In1A N1A 1_555 1_555
O1A C10A 1_555 1_555
O2A C10A 1_555 1_555
N1A C1A 1_555 1_555
C1A H1A 1_555 1_555
C2A C1A 1_555 1_555
C3A C2A 1_555 1_555
H2A C3A 1_555 1_555
C4A C2A 1_555 1_555
C5A C4A 1_555 1_555
H3A C5A 1_555 1_555
C6A C5A 1_555 1_555
H4A C6A 1_555 1_555
C7A C6A 1_555 1_555
C8A C7A 1_555 1_555
H5A C8A 1_555 1_555
C9A C4A 1_555 1_555
H6A C9A 1_555 1_555
C10A C7A 1_555 1_555
O1P C10P 1_555 1_555
O2P C10P 1_555 1_555
C1P N1A 1_555 1_555
H1P C1P 1_555 1_555
C2P C3A 1_555 1_555
C4P C2P 1_555 1_555
C5P C4P 1_555 1_555
H3P C5P 1_555 1_555
C6P C5P 1_555 1_555
H4P C6P 1_555 1_555
C7P C6P 1_555 1_555
C8P C7P 1_555 1_555
H5P C8P 1_555 1_555
C9P C4P 1_555 1_555
H6P C9P 1_555 1_555
C10P C7P 1_555 1_555
In1B O3 1_555 1_555
O1B C10B 1_555 1_555
O2B C10B 1_555 1_555
N1B In1B 1_555 1_555
C1B N1B 1_555 1_555
H1B C1B 1_555 1_555
C2B C1B 1_555 1_555
C3B C2B 1_555 1_555
H2B C3B 1_555 1_555
C4B C2B 1_555 1_555
C5B C4B 1_555 1_555
H3B C5B 1_555 1_555
C6B C5B 1_555 1_555
H4B C6B 1_555 1_555
C7B C6B 1_555 1_555
C8B C7B 1_555 1_555
H5B C8B 1_555 1_555
C9B C4B 1_555 1_555
H6B C9B 1_555 1_555
C10B C7B 1_555 1_555
O1O C10O 1_555 1_555
O2O C10O 1_555 1_555
C1O N1B 1_555 1_555
H1O C1O 1_555 1_555
C2O C3B 1_555 1_555
C4O C2O 1_555 1_555
C5O C4O 1_555 1_555
H3O C5O 1_555 1_555
C6O C5O 1_555 1_555
H4O C6O 1_555 1_555
C7O C6O 1_555 1_555
C8O C7O 1_555 1_555
H5O C8O 1_555 1_555
C9O C4O 1_555 1_555
H6O C9O 1_555 1_555
C10O C7O 1_555 1_555
In1R O2 1_555 1_555
In1R_2 O1B 1_555 1_555
In1S O2A 1_555 1_555
In1S_2 O1 1_555 1_555
In1T O1A 1_555 1_555
In1T_2 O2B 1_555 1_555
In1DA O1P 1_555 1_555
In1DA_2 O2Q 1_555 1_555
In1EA O2P 1_555 1_555
In1EA_2 O1O 1_555 1_555
In1FA O2O 1_555 1_555
In1FA_2 O1Q 1_555 1_555
O1R In1A 1_555 1_555
O1S In1B 1_555 1_555
O1T In1 1_555 1_555
O1AA In1A 1_555 1_555
O1BA In1 1_555 1_555
O1CA In1B 1_555 1_555
O2R In1 1_555 1_555
O2S In1A 1_555 1_555
O2T In1B 1_555 1_555
O2AA In1B 1_555 1_555
O2BA In1A 1_555 1_555
O2CA In1 1_555 1_555
C8 C9 1_555 1_555
C1Q C2Q 1_555 1_555
C8Q C9Q 1_555 1_555
C8A C9A 1_555 1_555
C1P C2P 1_555 1_555
C8P C9P 1_555 1_555
C8B C9B 1_555 1_555
C1O C2O 1_555 1_555
C8O C9O 1_555 1_555

#END
