
#######################################################################
#
#                 Cambridge Crystallographic Data Centre
#                                CCDC 
#
#######################################################################
#
# If this CIF has been generated from an entry in the Cambridge 
# Structural Database, then it will include bibliographic, chemical, 
# crystal, experimental, refinement or atomic coordinate data resulting 
# from the CCDC's data processing and validation procedures.
#
#######################################################################

data_DUQYEU
_symmetry_cell_setting           monoclinic
_symmetry_space_group_name_H-M   'P 21/c'
_symmetry_Int_Tables_number      14
_space_group_name_Hall           '-P 2ybc'
loop_
_symmetry_equiv_pos_site_id
_symmetry_equiv_pos_as_xyz
1 x,y,z
2 -x,1/2+y,1/2-z
3 -x,-y,-z
4 x,1/2-y,1/2+z
_cell_length_a                   9.6239(2)
_cell_length_b                   11.6030(2)
_cell_length_c                   14.3050(2)
_cell_angle_alpha                90
_cell_angle_beta                 122.4630(10)
_cell_angle_gamma                90
_cell_volume                     1347.77
loop_
_atom_site_label
_atom_site_type_symbol
_atom_site_fract_x
_atom_site_fract_y
_atom_site_fract_z
Dy1 Dy 0.117659(15) -0.013113(10) -0.167676(10)
O1 O 0.2048(2) -0.21224(15) -0.15624(17)
O2 O 0.1053(3) -0.02065(19) -0.34320(18)
H1 H 0.036(4) -0.061(2) -0.396(2)
H2 H 0.106(4) 0.0401(18) -0.375(2)
O3 O -0.1030(2) -0.13712(15) -0.29291(17)
O4 O -0.1939(2) -0.31830(15) -0.32907(16)
O5 O 0.1169(2) -0.39375(16) -0.20338(18)
O6 O 0.3400(3) -0.01122(16) 0.02214(18)
O7 O 0.0192(3) -0.11779(16) -0.06741(17)
O8 O -0.0381(3) -0.11134(17) 0.06433(18)
O9 O 0.6106(3) 0.01101(15) 0.14319(17)
C1 C 0.0965(3) -0.2872(2) -0.2069(2)
C2 C -0.0829(3) -0.2435(2) -0.2832(2)
C3 C 0.4856(4) -0.0001(2) 0.0483(2)
C4 C -0.0055(3) -0.0664(2) -0.0010(2)
Dy1A Dy -0.117659(15) 0.486887(10) -0.332324(10)
Dy1A_2 Dy -0.117659(15) -0.513113(10) -0.332324(10)
Dy1B Dy -0.117659(15) 0.013113(10) 0.167676(10)
Dy1B_2 Dy 0.882341(15) 0.013113(10) 0.167676(10)
O1A O -0.2048(2) 0.28776(15) -0.34376(17)
O2A O -0.1053(3) 0.47935(19) -0.15680(18)
H1A H -0.036(4) 0.439(2) -0.104(2)
H2A H -0.106(4) 0.5401(18) -0.125(2)
O3A O 0.1030(2) 0.36288(15) -0.20709(17)
O4A O 0.1939(2) 0.18170(15) -0.17093(16)
O4_2 O -0.1939(2) 0.68170(15) -0.32907(16)
O5A O -0.1169(2) 0.10625(16) -0.29662(18)
O5_2 O 0.1169(2) 0.60625(16) -0.20338(18)
O6B O 0.6600(3) 0.01122(16) -0.02214(18)
O6A O -0.3400(3) 0.48878(16) -0.52214(18)
O7B O -0.0192(3) 0.11779(16) 0.06741(17)
O7A O -0.0192(3) 0.38221(16) -0.43259(17)
O8B O 0.0381(3) 0.11134(17) -0.06433(18)
O8C O -0.0381(3) 0.61134(17) -0.43567(18)
O9B O 0.3894(3) -0.01101(15) -0.14319(17)
O9C O -0.3894(3) 0.48899(15) -0.35681(17)
C1A C -0.0965(3) 0.2128(2) -0.2931(2)
C2A C 0.0829(3) 0.2565(2) -0.2168(2)
C3B C 0.5144(4) 0.0001(2) -0.0483(2)
C4B C 0.0055(3) 0.0664(2) 0.0010(2)
N1 N 0.4246(4) -0.1300(3) -0.3049(3)
H3 H 0.393(5) -0.098(3) -0.263(3)
H4 H 0.378(5) -0.095(3) -0.368(3)
C5 C 0.3567(6) -0.2468(4) -0.3333(4)
H5 H 0.2387 -0.2431 -0.3721
H6 H 0.3984 -0.2910 -0.2667
H7 H 0.3882 -0.2827 -0.3796
C6 C 0.6030(5) -0.1251(5) -0.2451(4)
H8 H 0.6384 -0.0464 -0.2279
H9 H 0.6396 -0.1572 -0.2901
H10 H 0.6490 -0.1686 -0.1777
O10 O 0.5505(4) -0.2809(3) -0.0349(3)
H11 H 0.489(5) -0.291(5) -0.009(3)
H12 H 0.624(4) -0.238(4) 0.016(3)
O11 O -0.1188(4) -0.1547(2) -0.5332(3)
H13 H -0.090(5) -0.222(2) -0.529(4)
H14 H -0.209(3) -0.155(3) -0.543(4)
O12 O 0.6648(5) -0.5050(3) -0.0068(3)
H15 H 0.694(6) -0.530(4) 0.056(3)
H16 H 0.596(5) -0.456(4) -0.020(4)
loop_
_geom_bond_atom_site_label_1
_geom_bond_atom_site_label_2
_geom_bond_site_symmetry_1
_geom_bond_site_symmetry_2
Dy1 O1 1_555 1_555
O1 C1 1_555 1_555
O2 Dy1 1_555 1_555
H1 O2 1_555 1_555
H2 O2 1_555 1_555
O3 Dy1 1_555 1_555
O4 C2 1_555 1_555
O5 C1 1_555 1_555
O6 Dy1 1_555 1_555
O7 Dy1 1_555 1_555
O8 C4 1_555 1_555
O9 C3 1_555 1_555
C1 C2 1_555 1_555
C2 O3 1_555 1_555
C3 O6 1_555 1_555
C4 O7 1_555 1_555
N1 H3 1_555 1_555
H4 N1 1_555 1_555
C5 N1 1_555 1_555
H5 C5 1_555 1_555
H6 C5 1_555 1_555
H7 C5 1_555 1_555
C6 N1 1_555 1_555
H8 C6 1_555 1_555
H9 C6 1_555 1_555
H10 C6 1_555 1_555
O10 H11 1_555 1_555
H12 O10 1_555 1_555
O11 H13 1_555 1_555
H14 O11 1_555 1_555
O12 H15 1_555 1_555
H16 O12 1_555 1_555
Dy1A O1A 1_555 1_555
Dy1A_2 O4 1_555 1_555
Dy1B O8 1_555 1_555
Dy1B_2 O9 1_555 1_555
O1A C1A 1_555 1_555
O2A Dy1A 1_555 1_555
H1A O2A 1_555 1_555
H2A O2A 1_555 1_555
O3A Dy1A 1_555 1_555
O4A Dy1 1_555 1_555
O4_2 Dy1A 1_555 1_555
O5A Dy1 1_555 1_555
O5_2 Dy1A 1_555 1_555
O6B Dy1B_2 1_555 1_555
O6A Dy1A 1_555 1_555
O7B Dy1B 1_555 1_555
O7A Dy1A 1_555 1_555
O8B Dy1 1_555 1_555
O8C Dy1A 1_555 1_555
O9B Dy1 1_555 1_555
O9C Dy1A 1_555 1_555
C1A O5A 1_555 1_555
C2A O3A 1_555 1_555
C3B C3 1_555 1_555
C4B C4 1_555 1_555
O5 Dy1A_2 1_555 1_555
O4A C2A 1_555 1_555
O6B C3B 1_555 1_555
O7B C4B 1_555 1_555
O8B C4B 1_555 1_555
O9B C3B 1_555 1_555
C1A C2A 1_555 1_555

#END
