
#######################################################################
#
#                 Cambridge Crystallographic Data Centre
#                                CCDC 
#
#######################################################################
#
# If this CIF has been generated from an entry in the Cambridge 
# Structural Database, then it will include bibliographic, chemical, 
# crystal, experimental, refinement or atomic coordinate data resulting 
# from the CCDC's data processing and validation procedures.
#
#######################################################################

data_DURDAX
_symmetry_cell_setting           orthorhombic
_symmetry_space_group_name_H-M   'P n a 21'
_symmetry_Int_Tables_number      33
_space_group_name_Hall           'P 2c -2n'
loop_
_symmetry_equiv_pos_site_id
_symmetry_equiv_pos_as_xyz
1 x,y,z
2 -x,-y,1/2+z
3 1/2-x,1/2+y,1/2+z
4 1/2+x,1/2-y,z
_cell_length_a                   18.416(5)
_cell_length_b                   10.154(3)
_cell_length_c                   27.010(8)
_cell_angle_alpha                90
_cell_angle_beta                 90
_cell_angle_gamma                90
_cell_volume                     5050.76
loop_
_atom_site_label
_atom_site_type_symbol
_atom_site_fract_x
_atom_site_fract_y
_atom_site_fract_z
Zn1 Zn 0.82834(3) 0.68796(6) -0.03248(2)
Zn2 Zn 0.68785(3) 0.99096(6) 0.56630(3)
O1 O 0.4130(2) 0.9222(4) 0.06578(18)
O2 O 0.6978(3) 1.0812(5) 0.63517(17)
O3 O 0.4306(2) 0.8115(4) -0.00585(17)
O4 O 0.7649(2) 0.6554(4) 0.02915(15)
O5 O 0.6688(2) 1.0211(4) 0.42999(17)
O6 O 0.6394(3) 0.8139(4) 0.59676(17)
O7 O 0.6589(3) 0.3181(4) 0.41033(17)
O8 O 0.6796(3) 0.4112(4) 0.48237(16)
O9 O 0.7881(3) 0.8968(5) 0.57767(19)
C1 C 0.5748(3) 0.7564(6) 0.0248(2)
H1 H 0.5680 0.7589 -0.0093
O10 O 0.6774(3) 0.8933(4) 0.49809(16)
O11 O 0.6974(2) 0.7084(4) -0.03483(19)
C2 C 0.5295(3) 0.7864(6) 0.1079(2)
H2 H 0.4932 0.8137 0.1296
C3 C 0.6489(3) 0.7008(6) 0.0964(2)
H3 H 0.6924 0.6674 0.1087
C4 C 0.6596(3) 0.6103(6) 0.2529(2)
H4 H 0.6898 0.5438 0.2645
C5 C 0.6059(3) 0.7188(6) 0.1827(2)
C6 C 0.4488(3) 0.8508(6) 0.0385(2)
C7 C 0.6429(4) 0.6178(6) 0.2014(2)
H5 H 0.6582 0.5506 0.1804
C8 C 0.5952(3) 0.7358(6) 0.1279(2)
C9 C 0.5775(3) 0.8162(6) 0.2157(2)
H6 H 0.5515 0.8879 0.2038
C10 C 0.6388(3) 0.7152(6) 0.0443(2)
C11 C 0.6319(4) 0.6988(6) 0.2846(2)
C12 C 0.6690(3) 0.6649(7) 0.4420(2)
H7 H 0.6787 0.6577 0.4757
C13 C 0.6706(3) 0.9108(6) 0.4531(2)
C14 C 0.6609(3) 0.5498(6) 0.4131(2)
C15 C 0.5899(4) 0.8010(6) 0.2660(2)
H8 H 0.5694 0.8611 0.2879
C16 C 0.6506(3) 0.8005(6) 0.3689(2)
H9 H 0.6462 0.8833 0.3545
C17 C 0.7044(4) 0.6879(6) 0.0105(2)
C18 C 0.6456(3) 0.6864(6) 0.3401(2)
C19 C 0.6625(3) 0.7877(5) 0.4207(2)
C20 C 0.6634(5) 1.0711(11) 0.6733(4)
H10 H 0.6400 0.9909 0.6781
N1 N 0.8377(4) 0.6993(7) 0.5885(3)
C21 C 0.7911(5) 0.7739(7) 0.5696(3)
H11 H 0.7567 0.7370 0.5486
C22 C 0.5176(3) 0.7964(5) 0.0579(2)
C23 C 0.6520(3) 0.5638(6) 0.3627(2)
H12 H 0.6502 0.4886 0.3431
N2 N 0.6551(4) 1.1565(10) 0.7080(3)
C24 C 0.6683(4) 0.4199(7) 0.4362(3)
C25 C 0.8421(7) 0.5516(9) 0.5729(5)
H13 H 0.8074 0.5347 0.5471
H14 H 0.8315 0.4969 0.6009
H15 H 0.8901 0.5324 0.5610
C26 C 0.8906(7) 0.7331(11) 0.6234(7)
H16 H 0.9352 0.7539 0.6067
H17 H 0.8983 0.6604 0.6454
H18 H 0.8746 0.8083 0.6419
N3 N 0.5796(4) 0.6278(7) 0.5726(3)
C27 C 0.5911(4) 0.7586(7) 0.5728(3)
H19 H 0.5606 0.8109 0.5537
C28 C 0.5191(8) 0.5711(11) 0.5436(4)
H20 H 0.4900 0.5162 0.5646
H21 H 0.5383 0.5194 0.5169
H22 H 0.4897 0.6409 0.5304
C29 C 0.6884(9) 1.2941(12) 0.6968(6)
H23 H 0.7227 1.2866 0.6702
H24 H 0.7125 1.3267 0.7258
H25 H 0.6504 1.3541 0.6875
C30 C 0.6252(7) 0.5309(11) 0.5984(4)
H26 H 0.6534 0.4827 0.5746
H27 H 0.5948 0.4710 0.6165
H28 H 0.6571 0.5756 0.6209
C31 C 0.6191(7) 1.137(3) 0.7518(4)
H29 H 0.5897 1.0590 0.7493
H30 H 0.5888 1.2113 0.7587
H31 H 0.6538 1.1260 0.7780
Zn1B Zn 0.67166(3) 0.18796(6) 0.46752(2)
Zn1B_2 Zn 0.67166(3) 1.18796(6) 0.46752(2)
Zn1C Zn 0.32834(3) 0.81204(6) -0.03248(2)
Zn2A Zn 0.31215(3) 1.00904(6) 0.06630(3)
Zn2B Zn 0.81215(3) 0.49096(6) 0.06630(3)
O1A O 0.5870(2) 1.0778(4) 0.56578(18)
O3C O 0.9306(2) 0.6885(4) -0.00585(17)
O4B O 0.7351(2) 1.1554(4) 0.52915(15)
O5B O 0.8312(2) 0.5211(4) -0.07001(17)
O7B O 0.8411(3) 0.8181(4) -0.08967(17)
O8B O 0.8204(3) 0.9112(4) -0.01763(16)
loop_
_geom_bond_atom_site_label_1
_geom_bond_atom_site_label_2
_geom_bond_site_symmetry_1
_geom_bond_site_symmetry_2
Zn1 O4 1_555 1_555
Zn2 O2 1_555 1_555
O1 C6 1_555 1_555
O2 C20 1_555 1_555
O3 C6 1_555 1_555
O4 C17 1_555 1_555
O5 C13 1_555 1_555
O6 Zn2 1_555 1_555
O7 C24 1_555 1_555
O8 C24 1_555 1_555
O9 Zn2 1_555 1_555
C1 H1 1_555 1_555
O10 Zn2 1_555 1_555
O11 Zn1 1_555 1_555
C2 H2 1_555 1_555
C3 H3 1_555 1_555
C4 H4 1_555 1_555
C5 C7 1_555 1_555
C6 C22 1_555 1_555
C7 C4 1_555 1_555
H5 C7 1_555 1_555
C8 C2 1_555 1_555
C9 C5 1_555 1_555
H6 C9 1_555 1_555
C10 C1 1_555 1_555
C11 C4 1_555 1_555
C12 H7 1_555 1_555
C13 O10 1_555 1_555
C14 C12 1_555 1_555
C15 C9 1_555 1_555
H8 C15 1_555 1_555
C16 H9 1_555 1_555
C17 O11 1_555 1_555
C18 C11 1_555 1_555
C19 C12 1_555 1_555
C20 H10 1_555 1_555
N1 C21 1_555 1_555
C21 O9 1_555 1_555
H11 C21 1_555 1_555
C22 C1 1_555 1_555
C23 C14 1_555 1_555
H12 C23 1_555 1_555
N2 C20 1_555 1_555
C24 C14 1_555 1_555
C25 N1 1_555 1_555
H13 C25 1_555 1_555
H14 C25 1_555 1_555
H15 C25 1_555 1_555
C26 N1 1_555 1_555
H16 C26 1_555 1_555
H17 C26 1_555 1_555
H18 C26 1_555 1_555
N3 C27 1_555 1_555
C27 O6 1_555 1_555
H19 C27 1_555 1_555
C28 N3 1_555 1_555
H20 C28 1_555 1_555
H21 C28 1_555 1_555
H22 C28 1_555 1_555
C29 N2 1_555 1_555
H23 C29 1_555 1_555
H24 C29 1_555 1_555
H25 C29 1_555 1_555
C30 N3 1_555 1_555
H26 C30 1_555 1_555
H27 C30 1_555 1_555
H28 C30 1_555 1_555
C31 N2 1_555 1_555
H29 C31 1_555 1_555
H30 C31 1_555 1_555
H31 C31 1_555 1_555
Zn1B O7 1_555 1_555
Zn1B_2 O5 1_555 1_555
Zn1C O3 1_555 1_555
Zn2A O1 1_555 1_555
Zn2B O4 1_555 1_555
O1A Zn2 1_555 1_555
O3C Zn1 1_555 1_555
O4B Zn2 1_555 1_555
O5B Zn1 1_555 1_555
O7B Zn1 1_555 1_555
O8B Zn1 1_555 1_555
O8 Zn1B 1_555 1_555
C2 C22 1_555 1_555
C3 C8 1_555 1_555
C3 C10 1_555 1_555
C5 C8 1_555 1_555
C10 C17 1_555 1_555
C11 C15 1_555 1_555
C13 C19 1_555 1_555
C16 C18 1_555 1_555
C16 C19 1_555 1_555
C18 C23 1_555 1_555
Zn1B_2 O4B 1_555 1_555

#END
