
#######################################################################
#
#                 Cambridge Crystallographic Data Centre
#                                CCDC 
#
#######################################################################
#
# If this CIF has been generated from an entry in the Cambridge 
# Structural Database, then it will include bibliographic, chemical, 
# crystal, experimental, refinement or atomic coordinate data resulting 
# from the CCDC's data processing and validation procedures.
#
#######################################################################

data_DURDIF
_symmetry_cell_setting           monoclinic
_symmetry_space_group_name_H-M   'P 21'
_symmetry_Int_Tables_number      4
_space_group_name_Hall           'P 2yb'
loop_
_symmetry_equiv_pos_site_id
_symmetry_equiv_pos_as_xyz
1 x,y,z
2 -x,1/2+y,-z
_cell_length_a                   10.19159(13)
_cell_length_b                   16.42204(19)
_cell_length_c                   15.56239(19)
_cell_angle_alpha                90
_cell_angle_beta                 107.0727(13)
_cell_angle_gamma                90
_cell_volume                     2489.85
loop_
_atom_site_label
_atom_site_type_symbol
_atom_site_fract_x
_atom_site_fract_y
_atom_site_fract_z
Zn1 Zn 0.51175(4) 0.38804(3) 0.14682(3)
Zn2 Zn 0.23552(5) 0.29204(3) 0.00155(3)
O1 O 0.3716(3) 0.42089(18) 0.20479(19)
O2 O -0.3145(3) 0.43216(19) 0.23088(18)
O3 O 0.3155(3) 0.37515(16) 0.93189(17)
O4 O 0.4582(3) 0.45172(18) 1.03661(18)
O5 O 0.4984(3) 0.77088(17) 0.82652(19)
O6 O 0.2010(3) 0.37106(18) 0.09068(18)
O7 O -0.2729(3) 0.3633(2) 0.11942(19)
O8 O 0.5974(3) 0.72151(18) 0.96410(19)
O9 O 0.1274(4) 0.2072(2) 0.0581(2)
O10 O 0.0947(4) 0.2718(3) -0.1129(2)
H1 H 0.1624 0.2970 -0.1218
H2 H 0.0915 0.2843 -0.0606
C1 C 0.3906(4) 0.4364(2) 0.9574(3)
C2 C 0.3944(4) 0.4998(2) 0.8878(3)
C3 C 0.2730(4) 0.5294(3) 0.6356(3)
C4 C 0.2475(4) 0.4020(2) 0.1654(3)
C5 C 0.4583(4) 0.5746(2) 0.9179(2)
H3 H 0.5005 0.5840 0.9787
C6 C 0.1954(4) 0.4520(3) 0.3045(3)
H4 H 0.2884 0.4634 0.3285
C7 C 0.1471(4) 0.4214(2) 0.2171(3)
C8 C 0.1065(5) 0.4661(3) 0.3567(3)
C9 C 0.0078(4) 0.4047(2) 0.1805(2)
H5 H -0.0245 0.3830 0.1229
C10 C -0.0846(4) 0.4206(3) 0.2308(3)
N1 N -0.0261(5) 0.1110(3) 0.0547(3)
C11 C 0.3310(4) 0.5595(3) 0.5720(3)
H6 H 0.4093 0.5918 0.5905
C12 C -0.2325(4) 0.4035(3) 0.1896(3)
C13 C -0.0321(4) 0.4502(3) 0.3182(3)
H7 H -0.0922 0.4596 0.3520
C14 C 0.3335(4) 0.5451(3) 0.7337(3)
C15 C 0.2748(4) 0.5427(3) 0.4808(3)
H8 H 0.3133 0.5658 0.4392
C16 C 0.3941(4) 0.6209(2) 0.7633(3)
H9 H 0.3922 0.6620 0.7219
C17 C 0.3332(4) 0.4859(3) 0.7981(3)
H10 H 0.2907 0.4361 0.7798
C18 C 0.1610(4) 0.4914(3) 0.4512(2)
C19 C 0.5235(4) 0.7156(2) 0.8845(3)
C20 C 0.1562(4) 0.4803(3) 0.6052(3)
H11 H 0.1152 0.4595 0.6466
C21 C 0.0774(6) 0.1370(3) 0.0323(3)
C22 C 0.4564(4) 0.6344(2) 0.8537(3)
C23 C 0.1003(4) 0.4621(3) 0.5151(3)
H12 H 0.0217 0.4301 0.4967
C24 C 0.1416(7) 0.0851(4) -0.0268(5)
H13 H 0.0800 0.0827 -0.0867
H14 H 0.1583 0.0311 -0.0025
H15 H 0.2268 0.1092 -0.0282
C25 C -0.1021(7) 0.1641(4) 0.0998(4)
H16 H -0.0538 0.2147 0.1157
H17 H -0.1098 0.1377 0.1531
H18 H -0.1921 0.1745 0.0599
C26 C -0.0889(8) 0.0302(4) 0.0282(5)
H19 H -0.0742 0.0138 -0.0275
H20 H -0.1856 0.0331 0.0209
H21 H -0.0476 -0.0089 0.0741
Zn1_2 Zn -0.48825(4) 0.38804(3) 0.14682(3)
Zn1_3 Zn 0.51175(4) 0.38804(3) 1.14682(3)
Zn1A Zn 0.48825(4) 0.88804(3) 0.85318(3)
Zn2_2 Zn 0.23552(5) 0.29204(3) 1.00155(3)
Zn2A Zn 0.76448(5) 0.79204(3) 0.99845(3)
O2_2 O 0.6855(3) 0.43216(19) 0.23088(18)
O3_2 O 0.3155(3) 0.37515(16) -0.06811(17)
O4_2 O 0.4582(3) 0.45172(18) 0.03661(18)
O5A O 0.5016(3) 0.27088(17) 0.17348(19)
O7_2 O 0.7271(3) 0.3633(2) 0.11942(19)
O8A O 0.4026(3) 0.22151(18) 0.03590(19)
loop_
_geom_bond_atom_site_label_1
_geom_bond_atom_site_label_2
_geom_bond_site_symmetry_1
_geom_bond_site_symmetry_2
Zn1 O1 1_555 1_555
Zn2 O6 1_555 1_555
O1 C4 1_555 1_555
O2 C12 1_555 1_555
O3 C1 1_555 1_555
O4 C1 1_555 1_555
O5 C19 1_555 1_555
O6 C4 1_555 1_555
O7 C12 1_555 1_555
O8 C19 1_555 1_555
O9 Zn2 1_555 1_555
O10 Zn2 1_555 1_555
H1 O10 1_555 1_555
H2 O10 1_555 1_555
C1 C2 1_555 1_555
C2 C5 1_555 1_555
C3 C11 1_555 1_555
C4 C7 1_555 1_555
C5 H3 1_555 1_555
C6 H4 1_555 1_555
C7 C6 1_555 1_555
C8 C6 1_555 1_555
C9 C7 1_555 1_555
H5 C9 1_555 1_555
C10 C9 1_555 1_555
N1 C21 1_555 1_555
C11 H6 1_555 1_555
C12 C10 1_555 1_555
C13 C8 1_555 1_555
H7 C13 1_555 1_555
C14 C3 1_555 1_555
C15 C11 1_555 1_555
H8 C15 1_555 1_555
C16 C14 1_555 1_555
H9 C16 1_555 1_555
C17 C2 1_555 1_555
H10 C17 1_555 1_555
C18 C8 1_555 1_555
C19 C22 1_555 1_555
C20 C3 1_555 1_555
H11 C20 1_555 1_555
C21 O9 1_555 1_555
C22 C5 1_555 1_555
C23 C18 1_555 1_555
H12 C23 1_555 1_555
C24 C21 1_555 1_555
H13 C24 1_555 1_555
H14 C24 1_555 1_555
H15 C24 1_555 1_555
C25 N1 1_555 1_555
H16 C25 1_555 1_555
H17 C25 1_555 1_555
H18 C25 1_555 1_555
C26 N1 1_555 1_555
H19 C26 1_555 1_555
H20 C26 1_555 1_555
H21 C26 1_555 1_555
Zn1_2 O2 1_555 1_555
Zn1_3 O4 1_555 1_555
Zn1A O5 1_555 1_555
Zn2_2 O3 1_555 1_555
Zn2A O8 1_555 1_555
O2_2 Zn1 1_555 1_555
O3_2 Zn2 1_555 1_555
O4_2 Zn1 1_555 1_555
O5A Zn1 1_555 1_555
O7_2 Zn1 1_555 1_555
O8A Zn2 1_555 1_555
O7 Zn1_2 1_555 1_555
C10 C13 1_555 1_555
C14 C17 1_555 1_555
C15 C18 1_555 1_555
C16 C22 1_555 1_555
C20 C23 1_555 1_555

#END
