
#######################################################################
#
#                 Cambridge Crystallographic Data Centre
#                                CCDC 
#
#######################################################################
#
# If this CIF has been generated from an entry in the Cambridge 
# Structural Database, then it will include bibliographic, chemical, 
# crystal, experimental, refinement or atomic coordinate data resulting 
# from the CCDC's data processing and validation procedures.
#
#######################################################################

data_EBEWOZ
_symmetry_cell_setting           tetragonal
_symmetry_space_group_name_H-M   'P 41 2 2'
_symmetry_Int_Tables_number      91
_space_group_name_Hall           'P 4w 2c'
loop_
_symmetry_equiv_pos_site_id
_symmetry_equiv_pos_as_xyz
1 x,y,z
2 -x,-y,1/2+z
3 -y,x,1/4+z
4 y,-x,3/4+z
5 -x,y,-z
6 x,-y,1/2-z
7 y,x,3/4-z
8 -y,-x,1/4-z
_cell_length_a                   10.3635(7)
_cell_length_b                   10.3635(7)
_cell_length_c                   13.8321(18)
_cell_angle_alpha                90
_cell_angle_beta                 90
_cell_angle_gamma                90
_cell_volume                     1485.6
loop_
_atom_site_label
_atom_site_type_symbol
_atom_site_fract_x
_atom_site_fract_y
_atom_site_fract_z
Gd1 Gd 0.87740(3) 0.12260(3) 0.1250
O1 O 0.9176(6) 0.3161(5) 0.0524(4)
O2 O 0.9176(8) 0.7302(6) 0.2494(4)
O3 O 0.9130(6) 0.9082(5) 0.1681(4)
C1 C 1.0000 0.3733(11) 0.0000
C2 C 0.9281(8) 0.7903(7) 0.1710(6)
C3 C 1.0000 0.5131(11) 0.0000
C4 C 0.9625(9) 0.5833(7) 0.0818(5)
H1 H 0.9356 0.5393 0.1369
C5 C 0.9645(9) 0.7162(7) 0.0825(5)
C6 C 1.0000 0.7804(10) 0.0000
H2 H 1.0000 0.8702 0.0000
Gd1B Gd 0.87740(3) 0.87740(3) 0.3750
Gd1_2 Gd 0.87740(3) 1.12260(3) 0.1250
Gd1C Gd 1.12260(3) 0.12260(3) -0.1250
Gd1A Gd 1.12260(3) 0.87740(3) -0.3750
Gd1C_2 Gd 1.12260(3) 1.12260(3) -0.1250
O1D O 1.0824(6) 0.3161(5) -0.0524(4)
O1G O 0.6839(5) 0.0824(6) 0.1976(4)
O2D O 1.0824(8) 0.7302(6) -0.2494(4)
O2C O 0.7302(6) 0.0824(8) -0.0006(4)
O2E O 0.9176(8) 0.2698(6) 0.2506(4)
O3D O 1.0870(6) 0.9082(5) -0.1681(4)
O3_2 O 0.9130(6) -0.0918(5) 0.1681(4)
O3C O 0.9082(5) 0.0870(6) -0.0819(4)
O3E O 0.9130(6) 0.0918(5) 0.3319(4)
O3G O 1.0918(5) 0.0870(6) 0.0819(4)
C2D C 1.0719(8) 0.7903(7) -0.1710(6)
C4D C 1.0375(9) 0.5833(7) -0.0818(5)
H1D H 1.0644 0.5393 -0.1369
C5D C 1.0355(9) 0.7162(7) -0.0825(5)
loop_
_geom_bond_atom_site_label_1
_geom_bond_atom_site_label_2
_geom_bond_site_symmetry_1
_geom_bond_site_symmetry_2
Gd1 O1 1_555 1_555
O1 C1 1_555 1_555
O2 C2 1_555 1_555
O3 C2 1_555 1_555
C1 C3 1_555 1_555
C2 C5 1_555 1_555
C3 C4 1_555 1_555
C4 H1 1_555 1_555
C5 C4 1_555 1_555
C6 C5 1_555 1_555
H2 C6 1_555 1_555
Gd1B O2 1_555 1_555
Gd1_2 O3 1_555 1_555
Gd1C O1D 1_555 1_555
Gd1A O2D 1_555 1_555
Gd1C_2 O3D 1_555 1_555
O1D C1 1_555 1_555
O1G Gd1 1_555 1_555
O2D C2D 1_555 1_555
O2C Gd1 1_555 1_555
O2E Gd1 1_555 1_555
O3D Gd1A 1_555 1_555
O3_2 Gd1 1_555 1_555
O3C Gd1 1_555 1_555
O3E Gd1 1_555 1_555
O3G Gd1 1_555 1_555
C2D O3D 1_555 1_555
C4D C3 1_555 1_555
H1D C4D 1_555 1_555
C5D C6 1_555 1_555
O3 Gd1B 1_555 1_555
Gd1C O3C 1_555 1_555
Gd1C O3G 1_555 1_555
C2D C5D 1_555 1_555
C4D C5D 1_555 1_555

#END
