
#######################################################################
#
#                 Cambridge Crystallographic Data Centre
#                                CCDC 
#
#######################################################################
#
# If this CIF has been generated from an entry in the Cambridge 
# Structural Database, then it will include bibliographic, chemical, 
# crystal, experimental, refinement or atomic coordinate data resulting 
# from the CCDC's data processing and validation procedures.
#
#######################################################################

data_EBEXEQ
_symmetry_cell_setting           tetragonal
_symmetry_space_group_name_H-M   'P 41'
_symmetry_Int_Tables_number      76
_space_group_name_Hall           'P 4w'
loop_
_symmetry_equiv_pos_site_id
_symmetry_equiv_pos_as_xyz
1 x,y,z
2 -x,-y,1/2+z
3 -y,x,1/4+z
4 y,-x,3/4+z
_cell_length_a                   10.3197(4)
_cell_length_b                   10.3197(4)
_cell_length_c                   14.0444(10)
_cell_angle_alpha                90
_cell_angle_beta                 90
_cell_angle_gamma                90
_cell_volume                     1495.68
loop_
_atom_site_label
_atom_site_type_symbol
_atom_site_fract_x
_atom_site_fract_y
_atom_site_fract_z
Gd1 Gd 0.86321(3) 0.12896(4) 0.08374(4)
O1 O 0.8929(5) 0.3250(5) 0.0059(3)
O2 O 1.0209(6) 0.3260(5) -0.1238(4)
O3 O 1.0082(6) 0.7480(6) -0.3090(4)
O4 O 1.1048(6) 0.9057(6) -0.2245(5)
O5 O 0.9280(6) 0.9211(6) 0.1149(5)
O6 O 0.9071(6) 0.7382(5) 0.1924(4)
O7 O 0.7105(6) 0.2728(6) 0.1648(4)
H1 H 0.6948 0.2348 0.2164
C1 C 0.9552(6) 0.3774(7) -0.0585(5)
C2 C 1.0417(8) 0.7998(8) -0.2277(6)
C3 C 0.9228(9) 0.7987(10) 0.1167(6)
C4 C 0.9560(7) 0.5250(7) -0.0591(5)
C5 C 0.9911(7) 0.5919(7) -0.1425(5)
H3 H 1.0060 0.5456 -0.1999
C6 C 1.0042(8) 0.7277(8) -0.1406(5)
C7 C 0.9816(8) 0.7924(7) -0.0527(8)
H4 H 0.9916 0.8838 -0.0494
C8 C 0.9463(8) 0.7266(8) 0.0259(6)
C9 C 0.9318(7) 0.5927(7) 0.0228(5)
H5 H 0.9048 0.5476 0.0783
C10 C 0.7184(8) 0.4081(8) 0.1914(6)
H6 H 0.8090 0.4380 0.1845
H7 H 0.6935 0.4176 0.2591
C11 C 0.6336(10) 0.4895(8) 0.1326(7)
H8 H 0.6377 0.5793 0.1552
H9 H 0.5443 0.4580 0.1372
H10 H 0.6623 0.4858 0.0661
Gd1C Gd 1.12896(4) 0.13679(3) -0.16626(4)
Gd1A Gd 1.13679(3) 0.87104(4) -0.41626(4)
Gd1C_2 Gd 1.12896(4) 1.13679(3) -0.16626(4)
Gd1_2 Gd 0.86321(3) 1.12896(4) 0.08374(4)
Gd1B Gd 0.87104(4) 0.86321(3) 0.33374(4)
O2B O 0.6740(5) 0.0209(6) 0.1262(4)
O3A O 0.9918(6) 0.2520(6) 0.1910(4)
O4B O 1.0943(6) 0.1048(6) 0.0255(5)
O4A O 0.8952(6) 0.0943(6) 0.2755(5)
O5_2 O 0.9280(6) -0.0789(6) 0.1149(5)
O6C O 0.7382(5) 0.0929(6) -0.0576(4)
O8 O 0.6006(5) 0.1851(5) 0.3371(5)
H2 H 0.6427 0.1279 0.3663
C12 C 0.4849(10) 0.2130(10) 0.3876(7)
H11 H 0.5048 0.2697 0.4426
H12 H 0.4470 0.1316 0.4123
C13 C 0.3913(10) 0.2778(9) 0.3248(10)
H13 H 0.3130 0.2990 0.3610
H14 H 0.3688 0.2199 0.2720
H15 H 0.4297 0.3575 0.2996
loop_
_geom_bond_atom_site_label_1
_geom_bond_atom_site_label_2
_geom_bond_site_symmetry_1
_geom_bond_site_symmetry_2
Gd1 O1 1_555 1_555
O1 C1 1_555 1_555
O2 C1 1_555 1_555
O3 C2 1_555 1_555
O4 C2 1_555 1_555
O5 C3 1_555 1_555
O6 C3 1_555 1_555
O7 Gd1 1_555 1_555
H1 O7 1_555 1_555
O8 H2 1_555 1_555
C1 C4 1_555 1_555
C2 C6 1_555 1_555
C3 C8 1_555 1_555
C4 C5 1_555 1_555
C5 H3 1_555 1_555
C6 C5 1_555 1_555
C7 C6 1_555 1_555
H4 C7 1_555 1_555
C8 C7 1_555 1_555
C9 C4 1_555 1_555
H5 C9 1_555 1_555
C10 O7 1_555 1_555
H6 C10 1_555 1_555
H7 C10 1_555 1_555
C11 C10 1_555 1_555
H8 C11 1_555 1_555
H9 C11 1_555 1_555
H10 C11 1_555 1_555
C12 O8 1_555 1_555
H11 C12 1_555 1_555
H12 C12 1_555 1_555
C13 C12 1_555 1_555
H13 C13 1_555 1_555
H14 C13 1_555 1_555
H15 C13 1_555 1_555
Gd1C O2 1_555 1_555
Gd1A O3 1_555 1_555
Gd1C_2 O4 1_555 1_555
Gd1_2 O5 1_555 1_555
Gd1B O6 1_555 1_555
O2B Gd1 1_555 1_555
O3A Gd1 1_555 1_555
O4B Gd1 1_555 1_555
O4A Gd1 1_555 1_555
O5_2 Gd1 1_555 1_555
O6C Gd1 1_555 1_555
O4 Gd1A 1_555 1_555
C8 C9 1_555 1_555
Gd1C O4B 1_555 1_555

#END
