
#######################################################################
#
#                 Cambridge Crystallographic Data Centre
#                                CCDC 
#
#######################################################################
#
# If this CIF has been generated from an entry in the Cambridge 
# Structural Database, then it will include bibliographic, chemical, 
# crystal, experimental, refinement or atomic coordinate data resulting 
# from the CCDC's data processing and validation procedures.
#
#######################################################################

data_EBUFUE
_symmetry_cell_setting           tetragonal
_symmetry_space_group_name_H-M   'I 41/a'
_symmetry_Int_Tables_number      88
_space_group_name_Hall           '-I 4ad'
loop_
_symmetry_equiv_pos_site_id
_symmetry_equiv_pos_as_xyz
1 x,y,z
2 1/2-x,-y,1/2+z
3 3/4-y,1/4+x,1/4+z
4 3/4+y,3/4-x,3/4+z
5 1/2+x,1/2+y,1/2+z
6 -x,1/2-y,z
7 1/4-y,3/4+x,3/4+z
8 1/4+y,1/4-x,1/4+z
9 -x,-y,-z
10 1/2+x,y,1/2-z
11 1/4+y,3/4-x,3/4-z
12 1/4-y,1/4+x,1/4-z
13 1/2-x,1/2-y,1/2-z
14 x,1/2+y,-z
15 3/4+y,1/4-x,1/4-z
16 3/4-y,3/4+x,3/4-z
_cell_length_a                   27.956(2)
_cell_length_b                   27.956(2)
_cell_length_c                   16.8396(13)
_cell_angle_alpha                90
_cell_angle_beta                 90
_cell_angle_gamma                90
_cell_volume                     13160.8
loop_
_atom_site_label
_atom_site_type_symbol
_atom_site_fract_x
_atom_site_fract_y
_atom_site_fract_z
O8 O 0.6906(6) 0.7921(7) 0.1716(9)
H25 H 0.7039 0.7688 0.1477
H26 H 0.6719 0.7758 0.2007
O9 O 0.7277(2) 0.7963(2) -0.6711(3)
H35 H 0.7427 0.7745 -0.6463
H36 H 0.7007 0.7833 -0.6624
O10 O 0.8053(5) 0.8005(7) 0.0890(9)
H37 H 0.7792 0.7928 0.1114
Co1 Co 0.147803(18) 0.609818(18) -0.74832(4)
N1 N 0.20492(11) 0.55978(11) -0.7313(2)
N2 N 0.4029(2) 0.4043(2) -0.6765(4)
N3 N 0.09197(11) 0.66298(11) -0.7536(2)
C1 C 0.24981(16) 0.57185(16) -0.7462(4)
H1 H 0.2558 0.6025 -0.7651
C2 C 0.28792(17) 0.54180(16) -0.7355(4)
H2 H 0.3187 0.5525 -0.7466
C3 C 0.28108(14) 0.49606(13) -0.7084(3)
C4 C 0.23474(15) 0.48341(14) -0.6916(3)
H3 H 0.2278 0.4531 -0.6718
C5 C 0.19853(15) 0.51611(14) -0.7044(3)
H4 H 0.1674 0.5065 -0.6932
C6 C 0.4010(2) 0.43680(19) -0.7324(5)
H5 H 0.4275 0.4398 -0.7654
C7 C 0.36259(19) 0.46703(16) -0.7461(4)
H6 H 0.3635 0.4893 -0.7872
C8 C 0.32256(15) 0.46349(14) -0.6973(3)
C9 C 0.32398(18) 0.42944(18) -0.6393(4)
H7 H 0.2983 0.4253 -0.6050
C10 C 0.3648(2) 0.4009(3) -0.6325(5)
H8 H 0.3648 0.3775 -0.5931
C11 C 0.10089(17) 0.70891(17) -0.7679(3)
H9 H 0.1321 0.7179 -0.7798
C12 C 0.06620(16) 0.74373(17) -0.7660(3)
H10 H 0.0743 0.7754 -0.7760
C13 C 0.01950(12) 0.73168(13) -0.7493(2)
C14 C 0.01110(14) 0.68469(15) -0.7325(3)
H11 H -0.0195 0.6747 -0.7186
C15 C 0.04789(14) 0.65214(15) -0.7359(3)
H12 H 0.0409 0.6203 -0.7249
O1 O 0.1314(3) 0.5810(3) -0.8538(6)
O2 O 0.0931(3) 0.5469(4) -0.7612(5)
O3 O 0.1466(3) 0.3801(4) -1.3794(7)
O4 O 0.09353(18) 0.43290(18) -1.4128(3)
O5 O 0.0505(3) 0.4008(4) -1.0412(5)
C16 C 0.1024(5) 0.5469(6) -0.8328(7)
C17 C 0.1116(5) 0.4039(5) -1.3565(6)
C18 C 0.0544(4) 0.4063(5) -1.1247(4)
C19 C 0.0348(4) 0.4328(4) -1.1865(6)
H13 H 0.0080 0.4517 -1.1776
C20 C 0.0553(4) 0.4309(3) -1.2617(4)
H14 H 0.0421 0.4486 -1.3030
C21 C 0.0954(5) 0.4027(3) -1.2750(5)
C22 C 0.1150(4) 0.3762(3) -1.2132(8)
H15 H 0.1418 0.3573 -1.2222
C23 C 0.0945(4) 0.3780(4) -1.1381(6)
H16 H 0.1077 0.3603 -1.0967
C24 C 0.0617(3) 0.4384(3) -0.9950(5)
C25 C 0.0458(3) 0.4373(3) -0.9168(5)
H17 H 0.0274 0.4117 -0.8990
C26 C 0.0574(3) 0.4743(3) -0.8653(4)
H18 H 0.0467 0.4736 -0.8130
C27 C 0.0849(3) 0.5125(3) -0.8919(5)
C28 C 0.1008(3) 0.5137(3) -0.9701(6)
H19 H 0.1192 0.5392 -0.9879
C29 C 0.0892(3) 0.4766(3) -1.0216(4)
H20 H 0.0999 0.4774 -1.0739
O6 O 0.1931(3) 0.6596(3) -0.7673(8)
H21 H 0.1902 0.6694 -0.8149
H22 H 0.1880 0.6825 -0.7352
Co1E Co -0.147803(18) 0.890182(18) -0.74832(4)
Co1B Co 0.140182(18) 0.397803(18) -1.49832(4)
Co1C Co 0.359818(18) 0.602197(18) 0.00168(4)
N1E N -0.20492(11) 0.94022(11) -0.7313(2)
N2E N -0.4029(2) 1.0957(2) -0.6765(4)
N3E N -0.09197(11) 0.83702(11) -0.7536(2)
C1E C -0.24981(16) 0.92815(16) -0.7462(4)
H1E H -0.2558 0.8975 -0.7651
C2E C -0.28792(17) 0.95820(16) -0.7355(4)
H2E H -0.3187 0.9475 -0.7466
C3E C -0.28108(14) 1.00394(13) -0.7084(3)
C4E C -0.23474(15) 1.01659(14) -0.6916(3)
H3E H -0.2278 1.0469 -0.6718
C5E C -0.19853(15) 0.98389(14) -0.7044(3)
H4E H -0.1674 0.9935 -0.6932
C6E C -0.4010(2) 1.06320(19) -0.7324(5)
H5E H -0.4275 1.0602 -0.7654
C7E C -0.36259(19) 1.03297(16) -0.7461(4)
H6E H -0.3635 1.0107 -0.7872
C8E C -0.32256(15) 1.03651(14) -0.6973(3)
C9E C -0.32398(18) 1.07056(18) -0.6393(4)
H7E H -0.2983 1.0747 -0.6050
C10E C -0.3648(2) 1.0991(3) -0.6325(5)
H8E H -0.3648 1.1225 -0.5931
C11E C -0.10089(17) 0.79109(17) -0.7679(3)
H9E H -0.1321 0.7821 -0.7798
C12E C -0.06620(16) 0.75627(17) -0.7660(3)
H10E H -0.0743 0.7246 -0.7760
C13E C -0.01950(12) 0.76832(13) -0.7493(2)
C14E C -0.01110(14) 0.81531(15) -0.7325(3)
H11E H 0.0195 0.8253 -0.7186
C15E C -0.04789(14) 0.84786(15) -0.7359(3)
H12E H -0.0409 0.8797 -0.7249
O1C O 0.3310(3) 0.6186(3) -0.1038(6)
O1E O -0.1314(3) 0.9190(3) -0.8538(6)
O2C O 0.2969(4) 0.6569(3) -0.0112(5)
O3C O 0.1301(4) 0.6034(3) -0.6294(7)
O3F O -0.1301(4) 0.8966(3) -0.6294(7)
O4C O 0.18290(18) 0.65647(18) -0.6628(3)
O4F O -0.18290(18) 0.84353(18) -0.6628(3)
O5C O 0.1508(4) 0.6995(3) -0.2912(5)
C16C C 0.2969(6) 0.6476(5) -0.0828(7)
C17C C 0.1539(5) 0.6384(5) -0.6065(6)
C18C C 0.1563(5) 0.6956(4) -0.3747(4)
C19C C 0.1828(4) 0.7152(4) -0.4365(6)
H13C H 0.2017 0.7420 -0.4276
C20C C 0.1809(3) 0.6947(4) -0.5117(4)
H14C H 0.1986 0.7079 -0.5530
C21C C 0.1527(3) 0.6546(5) -0.5250(5)
C22C C 0.1262(3) 0.6350(4) -0.4632(8)
H15C H 0.1073 0.6082 -0.4722
C23C C 0.1280(4) 0.6555(4) -0.3881(6)
H16C H 0.1103 0.6423 -0.3467
C24C C 0.1884(3) 0.6883(3) -0.2450(5)
C25C C 0.1873(3) 0.7042(3) -0.1668(5)
H17C H 0.1617 0.7226 -0.1490
C26C C 0.2243(3) 0.6926(3) -0.1153(4)
H18C H 0.2236 0.7033 -0.0630
C27C C 0.2625(3) 0.6651(3) -0.1419(5)
C28C C 0.2637(3) 0.6492(3) -0.2201(6)
H19C H 0.2892 0.6308 -0.2379
C29C C 0.2266(3) 0.6608(3) -0.2716(4)
H20C H 0.2274 0.6501 -0.3239
O6E O -0.1931(3) 0.8404(3) -0.7673(8)
H21E H -0.1902 0.8306 -0.8149
H22E H -0.1880 0.8175 -0.7352
O7? O 0.7384(3) 0.8023(3) 0.1347(7)
H23? H 0.7238 0.7850 0.1012
H24? H 0.7267 0.8088 0.1800
N4? N 0.8843(5) 0.8179(4) 0.0398(7)
C30? C 0.9256(7) 0.8359(7) 0.0442(9)
H27? H 0.9271 0.8682 0.0567
C31? C 0.9677(6) 0.8136(6) 0.0328(10)
H28? H 0.9962 0.8305 0.0385
C32? C 0.9688(6) 0.7653(8) 0.0126(10)
C33? C 0.9249(4) 0.7463(4) 0.0022(8)
H29? H 0.9217 0.7149 -0.0154
C34? C 0.8857(5) 0.7730(5) 0.0175(8)
H30? H 0.8563 0.7578 0.0115
N5? N 1.1025(5) 0.6951(5) 0.0005(11)
C35? C 1.0617(7) 0.6702(4) 0.0235(12)
H31? H 1.0639 0.6382 0.0383
C36? C 1.0176(5) 0.6931(6) 0.0244(12)
H32? H 0.9903 0.6765 0.0398
C37? C 1.0142(4) 0.7409(6) 0.0024(10)
C38? C 1.0550(5) 0.7658(3) -0.0206(9)
H33? H 1.0528 0.7978 -0.0354
C39? C 1.0991(4) 0.7429(5) -0.0215(10)
H34? H 1.1264 0.7595 -0.0369
C40? C 0.7159(6) 0.8331(5) -0.0605(8)
C41? C 0.7475(3) 0.8179(3) -0.1260(5)
C42? C 0.7825(3) 0.7831(3) -0.1160(4)
C43? C 0.8083(3) 0.7667(3) -0.1811(5)
C44? C 0.7993(3) 0.7853(3) -0.2561(4)
C45? C 0.7644(3) 0.8202(3) -0.2661(4)
C46? C 0.7385(3) 0.8365(3) -0.2011(5)
C47? C 0.8831(5) 0.8889(5) -0.5643(9)
C48? C 0.8708(5) 0.8593(4) -0.4932(6)
C49? C 0.8382(5) 0.8258(6) -0.5216(5)
C50? C 0.8173(4) 0.7932(5) -0.4699(12)
C51? C 0.8290(6) 0.7941(4) -0.3896(10)
C52? C 0.8616(5) 0.8275(4) -0.3612(4)
C53? C 0.8825(3) 0.8601(3) -0.4130(8)
H38? H 0.7885 0.7706 -0.0657
H39? H 0.8317 0.7434 -0.1744
H40? H 0.2083 0.6275 -0.8640
H41? H 0.1642 0.6425 -0.8923
H42? H 0.7583 0.8326 -0.3164
H43? H 0.7151 0.8599 -0.2077
H44? H 0.8304 0.8253 -0.5753
H45? H 0.7955 0.7709 -0.4889
H46? H 0.8694 0.8280 -0.3075
H47? H 0.9043 0.8824 -0.3939
O11? O 0.6853(4) 0.8632(4) -0.0756(4)
O12? O 0.18312(17) 0.64306(17) -0.8528(3)
O13? O 0.7230(3) 0.8164(3) 0.0058(5)
O14? O 0.9208(6) 0.9162(4) -0.5476(7)
O15? O 0.8541(9) 0.8806(8) -0.6277(11)
O16? O 0.8276(3) 0.7665(3) -0.3158(5)
loop_
_geom_bond_atom_site_label_1
_geom_bond_atom_site_label_2
_geom_bond_site_symmetry_1
_geom_bond_site_symmetry_2
Co1 N1 1_555 1_555
N1 C1 1_555 1_555
N2 C6 1_555 1_555
N3 Co1 1_555 1_555
C1 H1 1_555 1_555
C2 C1 1_555 1_555
H2 C2 1_555 1_555
C3 C2 1_555 1_555
C4 C3 1_555 1_555
H3 C4 1_555 1_555
C5 N1 1_555 1_555
H4 C5 1_555 1_555
C6 H5 1_555 1_555
C7 C6 1_555 1_555
H6 C7 1_555 1_555
C8 C3 1_555 1_555
C9 C8 1_555 1_555
H7 C9 1_555 1_555
C10 N2 1_555 1_555
H8 C10 1_555 1_555
C11 N3 1_555 1_555
H9 C11 1_555 1_555
C12 C11 1_555 1_555
H10 C12 1_555 1_555
C13 C12 1_555 1_555
C14 C13 1_555 1_555
H11 C14 1_555 1_555
C15 N3 1_555 1_555
H12 C15 1_555 1_555
O1 Co1 1_555 1_555
O2 C16 1_555 1_555
O3 C17 1_555 1_555
O4 C17 1_555 1_555
O5 C18 1_555 1_555
C16 O1 1_555 1_555
C17 C21 1_555 1_555
C18 C19 1_555 1_555
C19 H13 1_555 1_555
C20 C19 1_555 1_555
H14 C20 1_555 1_555
C21 C20 1_555 1_555
C22 C21 1_555 1_555
H15 C22 1_555 1_555
C23 C18 1_555 1_555
H16 C23 1_555 1_555
C24 O5 1_555 1_555
C25 C24 1_555 1_555
H17 C25 1_555 1_555
C26 C25 1_555 1_555
H18 C26 1_555 1_555
C27 C16 1_555 1_555
C28 C27 1_555 1_555
H19 C28 1_555 1_555
C29 C24 1_555 1_555
H20 C29 1_555 1_555
O6 Co1 1_555 1_555
H21 O6 1_555 1_555
H22 O6 1_555 1_555
O8 H25 1_555 1_555
H26 O8 1_555 1_555
O9 H35 1_555 1_555
H36 O9 1_555 1_555
O10 H37 1_555 1_555
Co1E N1E 1_555 1_555
Co1B O3 1_555 1_555
Co1C O1C 1_555 1_555
N1E C1E 1_555 1_555
N2E C6E 1_555 1_555
N3E Co1E 1_555 1_555
C1E H1E 1_555 1_555
C2E C1E 1_555 1_555
H2E C2E 1_555 1_555
C3E C2E 1_555 1_555
C4E C3E 1_555 1_555
H3E C4E 1_555 1_555
C5E N1E 1_555 1_555
H4E C5E 1_555 1_555
C6E H5E 1_555 1_555
C7E C6E 1_555 1_555
H6E C7E 1_555 1_555
C8E C3E 1_555 1_555
C9E C8E 1_555 1_555
H7E C9E 1_555 1_555
C10E N2E 1_555 1_555
H8E C10E 1_555 1_555
C11E N3E 1_555 1_555
H9E C11E 1_555 1_555
C12E C11E 1_555 1_555
H10E C12E 1_555 1_555
C13E C13 1_555 1_555
C14E C13E 1_555 1_555
H11E C14E 1_555 1_555
C15E N3E 1_555 1_555
H12E C15E 1_555 1_555
O1C C16C 1_555 1_555
O1E Co1E 1_555 1_555
O2C C16C 1_555 1_555
O3C Co1 1_555 1_555
O3F Co1E 1_555 1_555
O4C Co1 1_555 1_555
O4F Co1E 1_555 1_555
O5C C18C 1_555 1_555
C16C C27C 1_555 1_555
C17C O3C 1_555 1_555
C18C C19C 1_555 1_555
C19C H13C 1_555 1_555
C20C C19C 1_555 1_555
H14C C20C 1_555 1_555
C21C C17C 1_555 1_555
C22C C21C 1_555 1_555
H15C C22C 1_555 1_555
C23C C18C 1_555 1_555
H16C C23C 1_555 1_555
C24C O5C 1_555 1_555
C25C C24C 1_555 1_555
H17C C25C 1_555 1_555
C26C C25C 1_555 1_555
H18C C26C 1_555 1_555
C27C C26C 1_555 1_555
C28C C27C 1_555 1_555
H19C C28C 1_555 1_555
C29C C24C 1_555 1_555
H20C C29C 1_555 1_555
O6E Co1E 1_555 1_555
H21E O6E 1_555 1_555
H22E O6E 1_555 1_555
C4 C5 1_555 1_555
C7 C8 1_555 1_555
C9 C10 1_555 1_555
C14 C15 1_555 1_555
O4 Co1B 1_555 1_555
C22 C23 1_555 1_555
C26 C27 1_555 1_555
C28 C29 1_555 1_555
C4E C5E 1_555 1_555
C7E C8E 1_555 1_555
C9E C10E 1_555 1_555
C12E C13E 1_555 1_555
C14E C15E 1_555 1_555
O4C C17C 1_555 1_555
C20C C21C 1_555 1_555
C22C C23C 1_555 1_555
C28C C29C 1_555 1_555

#END
