
#######################################################################
#
#                 Cambridge Crystallographic Data Centre
#                                CCDC 
#
#######################################################################
#
# If this CIF has been generated from an entry in the Cambridge 
# Structural Database, then it will include bibliographic, chemical, 
# crystal, experimental, refinement or atomic coordinate data resulting 
# from the CCDC's data processing and validation procedures.
#
#######################################################################

data_ECAHUN
_symmetry_cell_setting           trigonal
_symmetry_space_group_name_H-M   'P -3'
_symmetry_Int_Tables_number      147
_space_group_name_Hall           '-P 3'
loop_
_symmetry_equiv_pos_site_id
_symmetry_equiv_pos_as_xyz
1 x,y,z
2 -y,x-y,z
3 -x+y,-x,z
4 -x,-y,-z
5 y,-x+y,-z
6 x-y,x,-z
_cell_length_a                   21.7437(16)
_cell_length_b                   21.7437(16)
_cell_length_c                   15.438(2)
_cell_angle_alpha                90
_cell_angle_beta                 90
_cell_angle_gamma                120
_cell_volume                     6321.04
loop_
_atom_site_label
_atom_site_type_symbol
_atom_site_fract_x
_atom_site_fract_y
_atom_site_fract_z
Zn1 Zn 0.499499(19) 1.002124(16) 0.75148(2)
O1 O 0.50240(10) 0.92252(9) 0.81803(11)
O2 O 0.49535(9) 1.08009(10) 0.68374(10)
O3 O 0.57848(10) 1.00812(10) 0.66881(11)
O4 O 0.42257(10) 0.99739(10) 0.83609(11)
N1 N 0.49515(12) 1.42089(11) 0.33470(14)
N2 N 0.49799(12) 0.57770(12) 1.16057(13)
C1 C 0.48939(15) 1.38215(14) 0.48037(15)
H1 H 0.4886 1.3924 0.5401
C2 C 0.53453(17) 0.89116(14) 0.79475(17)
C3 C 0.51588(15) 0.62049(14) 1.01463(17)
H2 H 0.5261 0.6154 0.9561
C4 C 0.46298(14) 1.11258(17) 0.70580(17)
C5 C 0.46945(15) 1.16833(16) 0.64519(17)
C6 C 0.50282(15) 0.67474(15) 1.03973(18)
C7 C 0.51342(15) 0.57502(15) 1.07771(17)
H3 H 0.5235 0.5389 1.0611
C8 C 0.48654(16) 1.32213(16) 0.45820(17)
C9 C 0.52780(17) 0.83338(15) 0.85616(17)
C10 C 0.57571(18) 0.90471(16) 0.72108(19)
H4 H 0.5912 0.8720 0.7074
C11 C 0.42490(16) 1.10010(16) 0.78160(19)
H5 H 0.4088 1.1324 0.7947
C12 C 0.40697(17) 1.04448(19) 0.84235(19)
C13 C 0.49353(15) 1.43018(15) 0.41980(17)
H6 H 0.4953 1.4724 0.4396
C14 C 0.59655(17) 0.96259(17) 0.66489(19)
C15 C 0.51075(17) 0.72850(15) 0.97431(17)
C16 C 0.48174(16) 1.26836(16) 0.52021(18)
C17 C 0.4817(2) 0.81439(17) 0.9226(2)
H7 H 0.4548 0.8377 0.9285
C18 C 0.48659(19) 0.67743(16) 1.12436(18)
H8 H 0.4756 0.7125 1.1431
C19 C 0.47131(19) 0.76307(17) 0.9824(2)
H9 H 0.4381 0.7514 1.0283
C20 C 0.45432(17) 1.26550(17) 0.60191(19)
H10 H 0.4397 1.2986 0.6171
C21 C 0.44791(17) 1.21590(16) 0.66131(18)
H11 H 0.4275 1.2148 0.7161
C22 C 0.4985(2) 1.3177(2) 0.3668(2)
H12 H 0.5054 1.2806 0.3453
C23 C 0.36487(19) 1.04459(18) 0.9203(2)
H13 H 0.3917 1.0491 0.9732
H14 H 0.3563 1.0847 0.9161
H15 H 0.3193 1.0000 0.9221
C24 C 0.55678(18) 0.74659(18) 0.90613(18)
H16 H 0.5838 0.7236 0.8992
C25 C 0.48611(18) 0.62921(17) 1.18283(19)
H17 H 0.4768 0.6334 1.2420
C26 C 0.56459(19) 0.79794(17) 0.84701(19)
H18 H 0.5960 0.8087 0.7994
C27 C 0.4988(2) 1.21820(19) 0.5025(2)
H19 H 0.5122 1.2148 0.4449
C28 C 0.4980(2) 1.1722(2) 0.5626(2)
H20 H 0.5169 1.1424 0.5485
C29 C 0.6451(2) 0.9693(2) 0.5889(2)
H21 H 0.6271 0.9790 0.5355
H22 H 0.6459 0.9249 0.5824
H23 H 0.6933 1.0084 0.6002
C30 C 0.5000(2) 1.3664(2) 0.31308(19)
H24 H 0.5051 1.3602 0.2531
Zn1E Zn 0.497375(25) 1.499499(19) 0.24852(2)
Zn1E_2 Zn 0.497375(25) 0.499499(19) 1.24852(2)
N1D N 0.42089(11) 0.92574(16) 0.66530(14)
N2D N 0.57770(12) 1.07971(17) 0.83943(13)
loop_
_geom_bond_atom_site_label_1
_geom_bond_atom_site_label_2
_geom_bond_site_symmetry_1
_geom_bond_site_symmetry_2
Zn1 O1 1_555 1_555
O1 C2 1_555 1_555
O2 Zn1 1_555 1_555
O3 Zn1 1_555 1_555
O4 Zn1 1_555 1_555
N1 C13 1_555 1_555
N2 C7 1_555 1_555
C1 H1 1_555 1_555
C2 C9 1_555 1_555
C3 H2 1_555 1_555
C4 O2 1_555 1_555
C5 C4 1_555 1_555
C6 C3 1_555 1_555
C7 C3 1_555 1_555
H3 C7 1_555 1_555
C8 C1 1_555 1_555
C9 C17 1_555 1_555
C10 C2 1_555 1_555
H4 C10 1_555 1_555
C11 C4 1_555 1_555
H5 C11 1_555 1_555
C12 O4 1_555 1_555
C13 C1 1_555 1_555
H6 C13 1_555 1_555
C14 O3 1_555 1_555
C15 C6 1_555 1_555
C16 C8 1_555 1_555
C17 H7 1_555 1_555
C18 C6 1_555 1_555
H8 C18 1_555 1_555
C19 C15 1_555 1_555
H9 C19 1_555 1_555
C20 C16 1_555 1_555
H10 C20 1_555 1_555
C21 C5 1_555 1_555
H11 C21 1_555 1_555
C22 C8 1_555 1_555
H12 C22 1_555 1_555
C23 C12 1_555 1_555
H13 C23 1_555 1_555
H14 C23 1_555 1_555
H15 C23 1_555 1_555
C24 C15 1_555 1_555
H16 C24 1_555 1_555
C25 N2 1_555 1_555
H17 C25 1_555 1_555
C26 C9 1_555 1_555
H18 C26 1_555 1_555
C27 C16 1_555 1_555
H19 C27 1_555 1_555
C28 C5 1_555 1_555
H20 C28 1_555 1_555
C29 C14 1_555 1_555
H21 C29 1_555 1_555
H22 C29 1_555 1_555
H23 C29 1_555 1_555
C30 N1 1_555 1_555
H24 C30 1_555 1_555
Zn1E N1 1_555 1_555
Zn1E_2 N2 1_555 1_555
N1D Zn1 1_555 1_555
N2D Zn1 1_555 1_555
C10 C14 1_555 1_555
C11 C12 1_555 1_555
C17 C19 1_555 1_555
C18 C25 1_555 1_555
C20 C21 1_555 1_555
C22 C30 1_555 1_555
C24 C26 1_555 1_555
C27 C28 1_555 1_555

#END
