
#######################################################################
#
#                 Cambridge Crystallographic Data Centre
#                                CCDC 
#
#######################################################################
#
# If this CIF has been generated from an entry in the Cambridge 
# Structural Database, then it will include bibliographic, chemical, 
# crystal, experimental, refinement or atomic coordinate data resulting 
# from the CCDC's data processing and validation procedures.
#
#######################################################################

data_ECAHEX
_symmetry_cell_setting           rhombohedral
_symmetry_space_group_name_H-M   'R -3'
_symmetry_Int_Tables_number      148
_space_group_name_Hall           '-R 3'
loop_
_symmetry_equiv_pos_site_id
_symmetry_equiv_pos_as_xyz
1 x,y,z
2 -y,x-y,z
3 -x+y,-x,z
4 2/3+x,1/3+y,1/3+z
5 2/3-y,1/3+x-y,1/3+z
6 2/3-x+y,1/3-x,1/3+z
7 1/3+x,2/3+y,2/3+z
8 1/3-y,2/3+x-y,2/3+z
9 1/3-x+y,2/3-x,2/3+z
10 -x,-y,-z
11 y,-x+y,-z
12 x-y,x,-z
13 1/3-x,2/3-y,2/3-z
14 1/3+y,2/3-x+y,2/3-z
15 1/3+x-y,2/3+x,2/3-z
16 2/3-x,1/3-y,1/3-z
17 2/3+y,1/3-x+y,1/3-z
18 2/3+x-y,1/3+x,1/3-z
_cell_length_a                   26.718(5)
_cell_length_b                   26.718(5)
_cell_length_c                   7.7553(19)
_cell_angle_alpha                90
_cell_angle_beta                 90
_cell_angle_gamma                120
_cell_volume                     4794.43
loop_
_atom_site_label
_atom_site_type_symbol
_atom_site_fract_x
_atom_site_fract_y
_atom_site_fract_z
Cu1 Cu 0.3333 0.1667 0.6667
C1 C 0.5474(2) 0.3955(2) -0.2946(6)
H1 H 0.5382 0.4042 -0.4062
H2 H 0.5327 0.3547 -0.2856
H3 H 0.5885 0.4157 -0.2794
C2 C 0.52030(15) 0.41402(16) -0.1581(4)
C3 C 0.48077(16) 0.37181(17) -0.0456(4)
H4 H 0.4694 0.3335 -0.0705
C4 C 0.45712(13) 0.38208(13) 0.0995(4)
C5 C 0.42531(13) 0.33379(13) 0.2255(4)
C6 C 0.40287(14) 0.27631(14) 0.1842(4)
H5 H 0.4045 0.2653 0.0714
C7 C 0.41898(17) 0.34585(17) 0.3950(4)
H6 H 0.4321 0.3838 0.4291
C8 C 0.39340(17) 0.30174(18) 0.5130(4)
H7 H 0.3901 0.3111 0.6263
C9 C 0.37816(14) 0.23552(15) 0.3111(4)
H8 H 0.3637 0.1970 0.2802
N1 N 0.37332(12) 0.24677(12) 0.4747(3)
O1 O 0.46177(9) 0.43011(8) 0.1418(2)
O2 O 0.53564(9) 0.46682(9) -0.1535(3)
Cu1H Cu 0.1667 0.3334 1.3334
Cu1N Cu 0.4999 -0.0000 -0.0000
Cu1D Cu 0.5000 0.4999 0.0000
Cu1J Cu 0.1667 -0.1666 1.3333
Cu1D_2 Cu 0.5000 0.4999 2.0000
Cu1L Cu 0.0000 0.5000 2.0000
C1H C 0.1814(3) 0.1193(2) 0.3721(6)
C1O C 0.1193(2) -0.0622(2) 1.6279(6)
C1N C 0.4852(3) 0.2141(2) 0.9613(6)
C1D C 0.2712(2) 0.4852(3) 1.0387(6)
C1K C 0.1519(3) 0.5474(2) 2.2946(6)
H1H H 0.1993 0.1285 0.2605
H1O H 0.1285 -0.0709 1.7395
H1N H 0.4673 0.2049 1.0729
H1D H 0.2625 0.4673 0.9271
H1K H 0.1340 0.5382 2.4062
H2H H 0.1553 0.1340 0.3811
H2O H 0.1340 -0.0214 1.6189
H2N H 0.5113 0.1994 0.9523
H2D H 0.3120 0.5113 1.0477
H2K H 0.1780 0.5327 2.2856
H3H H 0.1605 0.0782 0.3873
H3O H 0.0782 -0.0824 1.6127
H3N H 0.5061 0.2552 0.9461
H3D H 0.2510 0.5061 1.0539
H3K H 0.1728 0.5885 2.2794
C2H C 0.22705(22) 0.14637(15) 0.5086(4)
C2O C 0.14637(15) -0.08069(16) 1.4914(4)
C2N C 0.43961(22) 0.18697(15) 0.8248(4)
C2D C 0.25265(16) 0.43961(22) 1.1752(4)
C2K C 0.10628(22) 0.52030(15) 2.1581(4)
C3H C 0.22437(23) 0.18590(16) 0.6211(4)
C3O C 0.18590(16) -0.03848(17) 1.3789(4)
C3N C 0.44229(23) 0.14744(16) 0.7123(4)
C3D C 0.29486(17) 0.44229(23) 1.2877(4)
C3K C 0.10896(23) 0.48077(16) 2.0456(4)
H4H H 0.1974 0.1973 0.5962
H4O H 0.1973 -0.0002 1.4038
H4N H 0.4692 0.1361 0.7372
H4D H 0.3332 0.4692 1.2628
H4K H 0.1359 0.4694 2.0705
C4H C 0.25829(18) 0.20955(13) 0.7662(4)
C4O C 0.20955(13) -0.04875(13) 1.2338(4)
C4N C 0.40837(18) 0.12379(13) 0.5672(4)
C4D C 0.28459(13) 0.40837(18) 1.4328(4)
C4K C 0.07504(18) 0.45712(13) 1.9005(4)
C5H C 0.24181(18) 0.24136(13) 0.8922(4)
C5O C 0.24136(13) -0.00046(13) 1.1078(4)
C5N C 0.42485(18) 0.09198(13) 0.4412(4)
C5D C 0.33288(13) 0.42485(18) 1.5588(4)
C5K C 0.09152(18) 0.42531(13) 1.7745(4)
C6H C 0.20677(20) 0.26380(14) 0.8509(4)
C6O C 0.26380(14) 0.05702(14) 1.1491(4)
C6N C 0.45989(20) 0.06954(14) 0.4825(4)
C6D C 0.39036(14) 0.45989(20) 1.5175(4)
C6K C 0.12656(20) 0.40287(14) 1.8158(4)
H5H H 0.1941 0.2622 0.7381
H5O H 0.2622 0.0680 1.2619
H5N H 0.4725 0.0712 0.5953
H5D H 0.4014 0.4725 1.4047
H5K H 0.1392 0.4045 1.9286
C7H C 0.26020(24) 0.24769(17) 1.0617(4)
C7O C 0.24769(17) -0.01252(17) 0.9383(4)
C7N C 0.40646(24) 0.08565(17) 0.2717(4)
C7D C 0.32082(17) 0.40646(24) 1.7283(4)
C7K C 0.07313(24) 0.41898(17) 1.6050(4)
H6H H 0.2850 0.2346 1.0958
H6O H 0.2346 -0.0505 0.9042
H6N H 0.3816 0.0988 0.2376
H6D H 0.2829 0.3816 1.7624
H6K H 0.0483 0.4321 1.5709
C8H C 0.24167(25) 0.27327(17) 1.1797(4)
C8O C 0.27327(17) 0.03159(18) 0.8203(4)
C8N C 0.42499(25) 0.06007(17) 0.1537(4)
C8D C 0.36493(18) 0.42499(25) 1.8463(4)
C8K C 0.09166(25) 0.39340(17) 1.4870(4)
H7H H 0.2543 0.2766 1.2930
H7O H 0.2766 0.0222 0.7070
H7N H 0.4123 0.0568 0.0404
H7D H 0.3556 0.4123 1.9596
H7K H 0.0790 0.3901 1.3737
C9H C 0.19069(21) 0.28851(14) 0.9778(4)
C9O C 0.28851(14) 0.09781(15) 1.0222(4)
C9N C 0.47597(21) 0.04483(14) 0.3556(4)
C9D C 0.43115(15) 0.47597(21) 1.6444(4)
C9K C 0.14264(21) 0.37816(14) 1.6889(4)
H8H H 0.1666 0.3030 0.9469
H8O H 0.3030 0.1363 1.0531
H8N H 0.5000 0.0304 0.3865
H8D H 0.4697 0.5000 1.6135
H8K H 0.1667 0.3637 1.7198
N1H N 0.20678(17) 0.29335(12) 1.1414(3)
N1O N 0.29335(12) 0.08656(12) 0.8586(3)
N1N N 0.45988(17) 0.03999(12) 0.1920(3)
N1D N 0.41990(12) 0.45988(17) 1.8080(3)
N1K N 0.12655(17) 0.37332(12) 1.5253(3)
N1E N 0.54012(17) -0.03999(12) -0.1920(3)
O1H O 0.30167(12) 0.20490(9) 0.8085(2)
O1O O 0.20490(9) -0.09678(8) 1.1915(2)
O1N O 0.36499(12) 0.12844(9) 0.5249(2)
O1D O 0.23656(8) 0.36499(12) 1.4751(2)
O1K O 0.03166(12) 0.46177(9) 1.8582(2)
O1P O 0.09678(8) 0.30167(12) 1.1915(2)
O1J O 0.43011(8) -0.03166(12) -0.1418(2)
O1A O 0.56989(8) 0.03166(12) 0.1418(2)
O2H O 0.26451(13) 0.13103(9) 0.5132(3)
O2O O 0.13103(9) -0.13349(9) 1.4868(3)
O2N O 0.40215(13) 0.20231(9) 0.8202(3)
O2D O 0.19985(9) 0.40215(13) 1.1798(3)
O2K O 0.06882(13) 0.53564(9) 2.1535(3)
O2P O 0.13349(9) 0.26451(13) 1.4868(3)
O2J O 0.46682(9) -0.06882(13) 0.1535(3)
O2A O 0.53318(9) 0.06882(13) -0.1535(3)
O3 O 0.0000 0.0000 0.5000
O4 O 0.0451(4) 0.0998(7) 0.0845(14)
H9 H 0.0703 0.1359 0.0952
H11 H 0.0367 0.0835 0.1840
H10? H 0.0361 0.0124 0.4833
H12? H -0.0073 0.0128 0.5941
loop_
_geom_bond_atom_site_label_1
_geom_bond_atom_site_label_2
_geom_bond_site_symmetry_1
_geom_bond_site_symmetry_2
Cu1 N1 1_555 1_555
C1 H1 1_555 1_555
H2 C1 1_555 1_555
H3 C1 1_555 1_555
C2 C1 1_555 1_555
C3 C2 1_555 1_555
H4 C3 1_555 1_555
C4 C3 1_555 1_555
C5 C4 1_555 1_555
C6 C5 1_555 1_555
H5 C6 1_555 1_555
C7 C5 1_555 1_555
H6 C7 1_555 1_555
C8 C7 1_555 1_555
H7 C8 1_555 1_555
C9 C6 1_555 1_555
H8 C9 1_555 1_555
N1 C8 1_555 1_555
O1 C4 1_555 1_555
O2 C2 1_555 1_555
O4 H9 1_555 1_555
H11 O4 1_555 1_555
Cu1H N1H 1_555 1_555
Cu1N N1N 1_555 1_555
Cu1D O1 1_555 1_555
Cu1J O1O 1_555 1_555
Cu1D_2 N1D 1_555 1_555
Cu1L O1K 1_555 1_555
C1H H1H 1_555 1_555
C1O H1O 1_555 1_555
C1N H1N 1_555 1_555
C1D H1D 1_555 1_555
C1K H1K 1_555 1_555
H2H C1H 1_555 1_555
H2O C1O 1_555 1_555
H2N C1N 1_555 1_555
H2D C1D 1_555 1_555
H2K C1K 1_555 1_555
H3H C1H 1_555 1_555
H3O C1O 1_555 1_555
H3N C1N 1_555 1_555
H3D C1D 1_555 1_555
H3K C1K 1_555 1_555
C2H C1H 1_555 1_555
C2O C1O 1_555 1_555
C2N C1N 1_555 1_555
C2D C1D 1_555 1_555
C2K C1K 1_555 1_555
C3H C2H 1_555 1_555
C3O C2O 1_555 1_555
C3N C2N 1_555 1_555
C3D C2D 1_555 1_555
C3K C2K 1_555 1_555
H4H C3H 1_555 1_555
H4O C3O 1_555 1_555
H4N C3N 1_555 1_555
H4D C3D 1_555 1_555
H4K C3K 1_555 1_555
C4H C3H 1_555 1_555
C4O C3O 1_555 1_555
C4N C3N 1_555 1_555
C4D C3D 1_555 1_555
C4K C3K 1_555 1_555
C5H C4H 1_555 1_555
C5O C4O 1_555 1_555
C5N C4N 1_555 1_555
C5D C4D 1_555 1_555
C5K C4K 1_555 1_555
C6H C5H 1_555 1_555
C6O C5O 1_555 1_555
C6N C5N 1_555 1_555
C6D C5D 1_555 1_555
C6K C5K 1_555 1_555
H5H C6H 1_555 1_555
H5O C6O 1_555 1_555
H5N C6N 1_555 1_555
H5D C6D 1_555 1_555
H5K C6K 1_555 1_555
C7H C5H 1_555 1_555
C7O C5O 1_555 1_555
C7N C5N 1_555 1_555
C7D C5D 1_555 1_555
C7K C5K 1_555 1_555
H6H C7H 1_555 1_555
H6O C7O 1_555 1_555
H6N C7N 1_555 1_555
H6D C7D 1_555 1_555
H6K C7K 1_555 1_555
C8H C7H 1_555 1_555
C8O C7O 1_555 1_555
C8N C7N 1_555 1_555
C8D C7D 1_555 1_555
C8K C7K 1_555 1_555
H7H C8H 1_555 1_555
H7O C8O 1_555 1_555
H7N C8N 1_555 1_555
H7D C8D 1_555 1_555
H7K C8K 1_555 1_555
C9H C6H 1_555 1_555
C9O C6O 1_555 1_555
C9N C6N 1_555 1_555
C9D C6D 1_555 1_555
C9K C6K 1_555 1_555
H8H C9H 1_555 1_555
H8O C9O 1_555 1_555
H8N C9N 1_555 1_555
H8D C9D 1_555 1_555
H8K C9K 1_555 1_555
N1H C8H 1_555 1_555
N1O Cu1 1_555 1_555
N1N C8N 1_555 1_555
N1D C8D 1_555 1_555
N1K Cu1H 1_555 1_555
N1E Cu1N 1_555 1_555
O1H Cu1 1_555 1_555
O1O C4O 1_555 1_555
O1N Cu1 1_555 1_555
O1D Cu1H 1_555 1_555
O1K C4K 1_555 1_555
O1P Cu1H 1_555 1_555
O1J Cu1N 1_555 1_555
O1A Cu1N 1_555 1_555
O2H Cu1 1_555 1_555
O2O Cu1J 1_555 1_555
O2N Cu1 1_555 1_555
O2D Cu1H 1_555 1_555
O2K Cu1L 1_555 1_555
O2P Cu1H 1_555 1_555
O2J Cu1N 1_555 1_555
O2A Cu1N 1_555 1_555
C9 N1 1_555 1_555
O2 Cu1D 1_555 1_555
C2H O2H 1_555 1_555
C2O O2O 1_555 1_555
C2N O2N 1_555 1_555
C2D O2D 1_555 1_555
C2K O2K 1_555 1_555
C4H O1H 1_555 1_555
C4N O1N 1_555 1_555
C4D O1D 1_555 1_555
C8O N1O 1_555 1_555
C8K N1K 1_555 1_555
C9H N1H 1_555 1_555
C9O N1O 1_555 1_555
C9N N1N 1_555 1_555
C9D N1D 1_555 1_555
C9K N1K 1_555 1_555

#END
