
#######################################################################
#
#                 Cambridge Crystallographic Data Centre
#                                CCDC 
#
#######################################################################
#
# If this CIF has been generated from an entry in the Cambridge 
# Structural Database, then it will include bibliographic, chemical, 
# crystal, experimental, refinement or atomic coordinate data resulting 
# from the CCDC's data processing and validation procedures.
#
#######################################################################

data_ECEZAO01
_symmetry_cell_setting           monoclinic
_symmetry_space_group_name_H-M   'C 2/m'
_symmetry_Int_Tables_number      12
_space_group_name_Hall           '-C 2y'
loop_
_symmetry_equiv_pos_site_id
_symmetry_equiv_pos_as_xyz
1 x,y,z
2 1/2+x,1/2+y,z
3 -x,y,-z
4 1/2-x,1/2+y,-z
5 -x,-y,-z
6 1/2-x,1/2-y,-z
7 x,-y,z
8 1/2+x,1/2-y,z
_cell_length_a                   20.0967(10)
_cell_length_b                   9.9992(5)
_cell_length_c                   6.3722(4)
_cell_angle_alpha                90
_cell_angle_beta                 97.086(3)
_cell_angle_gamma                90
_cell_volume                     1270.72
loop_
_atom_site_label
_atom_site_type_symbol
_atom_site_fract_x
_atom_site_fract_y
_atom_site_fract_z
Ni1 Ni 0.0000 -0.15118(5) -0.5000
Ni2 Ni 0.0000 0.0000 0.0000
O1 O 0.09511(10) -0.1653(2) -0.3451(3)
O2 O 0.07254(10) -0.1476(2) -0.0112(3)
O3 O 0.02899(13) 0.0000 0.3170(4)
O4 O 0.03376(11) -0.3013(2) -0.6998(3)
C1 C 0.18213(19) -0.2137(8) -0.0703(6)
H1 H 0.1707 -0.3090 -0.0766
C2 C 0.20326(19) -0.2189(8) 0.1481(6)
H2 H 0.1710 -0.2725 0.2122
H3 H 0.2007 -0.1289 0.2033
C3 C 0.22839(18) -0.2276(6) -0.2238(5)
H4 H 0.2338 -0.1405 -0.2864
H5 H 0.2081 -0.2859 -0.3354
C4 C 0.11138(13) -0.1724(3) -0.1497(4)
Ni1G Ni 0.5000 -0.34882(5) 0.5000
Ni1_2 Ni 0.0000 -0.15118(5) 0.5000
Ni1F Ni 0.0000 0.15118(5) 0.5000
Ni1F_2 Ni 0.0000 0.15118(5) -0.5000
Ni1A Ni 0.5000 0.34882(5) 0.5000
Ni2A Ni 0.5000 -0.5000 0.0000
Ni2A_2 Ni 0.5000 0.5000 0.0000
O1E O 0.40489(10) -0.3347(2) 0.3451(3)
O1F O 0.09511(10) 0.1653(2) -0.3451(3)
O1C O 0.40489(10) 0.3347(2) 0.3451(3)
O1B O -0.09511(10) -0.1653(2) -0.6549(3)
O1G O 0.59511(10) -0.3347(2) 0.6549(3)
O2E O 0.42746(10) -0.3524(2) 0.0112(3)
O2F O 0.07254(10) 0.1476(2) -0.0112(3)
O2C O 0.42746(10) 0.3524(2) 0.0112(3)
O2D O -0.07254(10) 0.1476(2) 0.0112(3)
O2B O -0.07254(10) -0.1476(2) 0.0112(3)
O3D O -0.02899(13) 0.0000 -0.3170(4)
O3_2 O 0.02899(13) 0.0000 -0.6830(4)
O3A O 0.52899(13) -0.5000 0.3170(4)
O3E O 0.47101(13) -0.5000 0.6830(4)
O4B O -0.03376(11) -0.3013(2) -0.3002(3)
O4E O 0.46624(11) -0.1987(2) 0.6998(3)
O4G O 0.53376(11) -0.1987(2) 0.3002(3)
C1E C 0.31787(19) -0.2863(8) 0.0703(6)
C1F C 0.18213(19) 0.2137(8) -0.0703(6)
C1C C 0.31787(19) 0.2863(8) 0.0703(6)
H1E H 0.3293 -0.1910 0.0766
H1F H 0.1707 0.3090 -0.0766
H1C H 0.3293 0.1910 0.0766
C2E C 0.29674(19) -0.2811(8) -0.1481(6)
C2F C 0.20326(19) 0.2189(8) 0.1481(6)
C2C C 0.29674(19) 0.2811(8) -0.1481(6)
H2E H 0.3290 -0.2275 -0.2122
H2F H 0.1710 0.2725 0.2122
H2C H 0.3290 0.2275 -0.2122
H3E H 0.2993 -0.3711 -0.2033
H3F H 0.2007 0.1289 0.2033
H3C H 0.2993 0.3711 -0.2033
C3E C 0.27161(18) -0.2724(6) 0.2238(5)
C3F C 0.22839(18) 0.2276(6) -0.2238(5)
C3C C 0.27161(18) 0.2724(6) 0.2238(5)
H4E H 0.2662 -0.3595 0.2864
H4F H 0.2338 0.1405 -0.2864
H4C H 0.2662 0.3595 0.2864
H5E H 0.2919 -0.2141 0.3354
H5F H 0.2081 0.2859 -0.3354
H5C H 0.2919 0.2141 0.3354
C4E C 0.38862(13) -0.3276(3) 0.1497(4)
C4F C 0.11138(13) 0.1724(3) -0.1497(4)
C4C C 0.38862(13) 0.3276(3) 0.1497(4)
O5 O 0.1240(2) -0.5000 0.4687(8)
O6 O 0.0593(2) -0.5000 0.8418(8)
loop_
_geom_bond_atom_site_label_1
_geom_bond_atom_site_label_2
_geom_bond_site_symmetry_1
_geom_bond_site_symmetry_2
Ni1 O1 1_555 1_555
Ni2 O2 1_555 1_555
O1 C4 1_555 1_555
O2 C4 1_555 1_555
O3 Ni2 1_555 1_555
O4 Ni1 1_555 1_555
C1 H1 1_555 1_555
C2 C1 1_555 1_555
H2 C2 1_555 1_555
H3 C2 1_555 1_555
C3 C1 1_555 1_555
H4 C3 1_555 1_555
H5 C3 1_555 1_555
C4 C1 1_555 1_555
Ni1G O1E 1_555 1_555
Ni1_2 O3 1_555 1_555
Ni1F O3 1_555 1_555
Ni1F_2 O1F 1_555 1_555
Ni1A O1C 1_555 1_555
Ni2A O2E 1_555 1_555
Ni2A_2 O2C 1_555 1_555
O1E C4E 1_555 1_555
O1F C4F 1_555 1_555
O1C C4C 1_555 1_555
O1B Ni1 1_555 1_555
O1G Ni1G 1_555 1_555
O2E C4E 1_555 1_555
O2F Ni2 1_555 1_555
O2C C4C 1_555 1_555
O2D Ni2 1_555 1_555
O2B Ni2 1_555 1_555
O3D Ni1 1_555 1_555
O3_2 Ni1 1_555 1_555
O3A Ni1G 1_555 1_555
O3E Ni1G 1_555 1_555
O4B Ni1 1_555 1_555
O4E Ni1G 1_555 1_555
O4G Ni1G 1_555 1_555
C1E H1E 1_555 1_555
C1F H1F 1_555 1_555
C1C H1C 1_555 1_555
C2E C3 1_555 1_555
C2F C1F 1_555 1_555
C2C C1C 1_555 1_555
H2E C2E 1_555 1_555
H2F C2F 1_555 1_555
H2C C2C 1_555 1_555
H3E C2E 1_555 1_555
H3F C2F 1_555 1_555
H3C C2C 1_555 1_555
C3E C2 1_555 1_555
C3F C1F 1_555 1_555
C3C C1C 1_555 1_555
H4E C3E 1_555 1_555
H4F C3F 1_555 1_555
H4C C3C 1_555 1_555
H5E C3E 1_555 1_555
H5F C3F 1_555 1_555
H5C C3C 1_555 1_555
C4E C1E 1_555 1_555
C4F O2F 1_555 1_555
C4C C1C 1_555 1_555
Ni2 O3D 1_555 1_555
Ni1F_2 O3D 1_555 1_555
Ni1F_2 O3_2 1_555 1_555
Ni2A O3A 1_555 1_555
C1E C2E 1_555 1_555
C1E C3E 1_555 1_555
C1F C4F 1_555 1_555
C2F C3C 1_555 1_555
C2C C3F 1_555 1_555

#END
