
#######################################################################
#
#                 Cambridge Crystallographic Data Centre
#                                CCDC 
#
#######################################################################
#
# If this CIF has been generated from an entry in the Cambridge 
# Structural Database, then it will include bibliographic, chemical, 
# crystal, experimental, refinement or atomic coordinate data resulting 
# from the CCDC's data processing and validation procedures.
#
#######################################################################

data_ECEZAO
_symmetry_cell_setting           monoclinic
_symmetry_space_group_name_H-M   'C 2/m'
_symmetry_Int_Tables_number      12
_space_group_name_Hall           '-C 2y'
loop_
_symmetry_equiv_pos_site_id
_symmetry_equiv_pos_as_xyz
1 x,y,z
2 1/2+x,1/2+y,z
3 -x,y,-z
4 1/2-x,1/2+y,-z
5 -x,-y,-z
6 1/2-x,1/2-y,-z
7 x,-y,z
8 1/2+x,1/2-y,z
_cell_length_a                   20.112(3)
_cell_length_b                   10.056(1)
_cell_length_c                   6.3805(8)
_cell_angle_alpha                90
_cell_angle_beta                 97.108(4)
_cell_angle_gamma                90
_cell_volume                     1280.51
loop_
_atom_site_label
_atom_site_type_symbol
_atom_site_fract_x
_atom_site_fract_y
_atom_site_fract_z
Ni1 Ni 0.5000 0.15028(7) 0.0000
Ni2 Ni 0.5000 0.0000 0.5000
O1 O 0.5949(1) 0.1644(3) 0.1553(4)
O2 O 0.5728(1) 0.1463(3) 0.4884(4)
O3 O 0.4712(2) 0.0000 0.1830(5)
O4 O 0.5341(1) 0.3002(3) -0.1992(4)
C1 C 0.6826(2) 0.2084(9) 0.4297(7)
C2 C 0.7039(2) 0.2153(9) 0.6500(7)
C3 C 0.7286(2) 0.2247(8) 0.2748(7)
C4 C 0.6114(2) 0.1713(4) 0.3501(6)
H1 H 0.6730 0.2970 0.4241
H2 H 0.6905 0.3111 0.5861
H3 H 0.6698 0.2348 0.7491
H4 H 0.7183 0.2108 0.1397
H5 H 0.7147 0.3117 0.3126
H6 H 0.4235 0.0000 0.1573
Ni1G Ni 1.0000 0.34972(7) 1.0000
Ni1F Ni 0.5000 -0.15028(7) 0.0000
Ni1A Ni 1.0000 -0.34972(7) 1.0000
Ni1_2 Ni 0.5000 0.15028(7) 1.0000
Ni1F_2 Ni 0.5000 -0.15028(7) 1.0000
Ni2A Ni 1.0000 0.5000 0.5000
Ni2A_2 Ni 1.0000 -0.5000 0.5000
O1E O 0.9051(1) 0.3356(3) 0.8447(4)
O1F O 0.5949(1) -0.1644(3) 0.1553(4)
O1C O 0.9051(1) -0.3356(3) 0.8447(4)
O1B O 0.4051(1) 0.1644(3) -0.1553(4)
O1G O 1.0949(1) 0.3356(3) 1.1553(4)
O2E O 0.9272(1) 0.3537(3) 0.5116(4)
O2F O 0.5728(1) -0.1463(3) 0.4884(4)
O2C O 0.9272(1) -0.3537(3) 0.5116(4)
O2D O 0.4272(1) -0.1463(3) 0.5116(4)
O2B O 0.4272(1) 0.1463(3) 0.5116(4)
O3D O 0.5288(2) 0.0000 0.8170(5)
O3D_2 O 0.5288(2) 0.0000 -0.1830(5)
O3A O 0.9712(2) 0.5000 1.1830(5)
O3E O 1.0288(2) 0.5000 0.8170(5)
O4B O 0.4659(1) 0.3002(3) 0.1992(4)
O4E O 0.9659(1) 0.1998(3) 1.1992(4)
O4G O 1.0341(1) 0.1998(3) 0.8008(4)
C1E C 0.8174(2) 0.2916(9) 0.5703(7)
C1F C 0.6826(2) -0.2084(9) 0.4297(7)
C1C C 0.8174(2) -0.2916(9) 0.5703(7)
C2E C 0.7961(2) 0.2847(9) 0.3500(7)
C2F C 0.7039(2) -0.2153(9) 0.6500(7)
C2C C 0.7961(2) -0.2847(9) 0.3500(7)
C3E C 0.7714(2) 0.2753(8) 0.7252(7)
C3F C 0.7286(2) -0.2247(8) 0.2748(7)
C3C C 0.7714(2) -0.2753(8) 0.7252(7)
C4E C 0.8886(2) 0.3287(4) 0.6499(6)
C4F C 0.6114(2) -0.1713(4) 0.3501(6)
C4C C 0.8886(2) -0.3287(4) 0.6499(6)
H1E H 0.8270 0.2030 0.5759
H1F H 0.6730 -0.2970 0.4241
H1C H 0.8270 -0.2030 0.5759
H2E H 0.8095 0.1889 0.4139
H2F H 0.6905 -0.3111 0.5861
H2C H 0.8095 -0.1889 0.4139
H3E H 0.8302 0.2652 0.2509
H3F H 0.6698 -0.2348 0.7491
H3C H 0.8302 -0.2652 0.2509
H4E H 0.7817 0.2892 0.8603
H4F H 0.7183 -0.2108 0.1397
H4C H 0.7817 -0.2892 0.8603
H5E H 0.7853 0.1883 0.6874
H5F H 0.7147 -0.3117 0.3126
H5C H 0.7853 -0.1883 0.6874
H6D H 0.5765 0.0000 0.8427
H6D_2 H 0.5765 0.0000 -0.1573
H6A H 0.9235 0.5000 1.1573
H6E H 1.0765 0.5000 0.8427
O5 O 0.0587(3) 0.0000 0.341(1)
O6 O 0.8759(3) 0.0000 0.0335(10)
loop_
_geom_bond_atom_site_label_1
_geom_bond_atom_site_label_2
_geom_bond_site_symmetry_1
_geom_bond_site_symmetry_2
Ni1 O1 1_555 1_555
Ni2 O2 1_555 1_555
O1 C4 1_555 1_555
O2 C4 1_555 1_555
O3 Ni1 1_555 1_555
O4 Ni1 1_555 1_555
C1 C2 1_555 1_555
C2 H2 1_555 1_555
C3 C1 1_555 1_555
C4 C1 1_555 1_555
H1 C1 1_555 1_555
H3 C2 1_555 1_555
H4 C3 1_555 1_555
H5 C3 1_555 1_555
H6 O3 1_555 1_555
Ni1G O1E 1_555 1_555
Ni1F O3 1_555 1_555
Ni1A O1C 1_555 1_555
Ni1_2 O3D 1_555 1_555
Ni1F_2 O3D 1_555 1_555
Ni2A O2E 1_555 1_555
Ni2A_2 O2C 1_555 1_555
O1E C4E 1_555 1_555
O1F Ni1F 1_555 1_555
O1C C4C 1_555 1_555
O1B Ni1 1_555 1_555
O1G Ni1G 1_555 1_555
O2E C4E 1_555 1_555
O2F Ni2 1_555 1_555
O2C C4C 1_555 1_555
O2D Ni2 1_555 1_555
O2B Ni2 1_555 1_555
O3D Ni2 1_555 1_555
O3D_2 Ni1 1_555 1_555
O3A Ni1G 1_555 1_555
O3E Ni1G 1_555 1_555
O4B Ni1 1_555 1_555
O4E Ni1G 1_555 1_555
O4G Ni1G 1_555 1_555
C1E C2E 1_555 1_555
C1F C2F 1_555 1_555
C1C C2C 1_555 1_555
C2E C3 1_555 1_555
C2F C3C 1_555 1_555
C2C C3F 1_555 1_555
C3E C2 1_555 1_555
C3F C1F 1_555 1_555
C3C C1C 1_555 1_555
C4E C1E 1_555 1_555
C4F O1F 1_555 1_555
C4C C1C 1_555 1_555
H1E C1E 1_555 1_555
H1F C1F 1_555 1_555
H1C C1C 1_555 1_555
H2E C2E 1_555 1_555
H2F C2F 1_555 1_555
H2C C2C 1_555 1_555
H3E C2E 1_555 1_555
H3F C2F 1_555 1_555
H3C C2C 1_555 1_555
H4E C3E 1_555 1_555
H4F C3F 1_555 1_555
H4C C3C 1_555 1_555
H5E C3E 1_555 1_555
H5F C3F 1_555 1_555
H5C C3C 1_555 1_555
H6D O3D 1_555 1_555
H6D_2 O3D_2 1_555 1_555
H6A O3A 1_555 1_555
H6E O3E 1_555 1_555
Ni2 O3 1_555 1_555
Ni1F O3D_2 1_555 1_555
Ni2A O3E 1_555 1_555
O2F C4F 1_555 1_555
C1E C3E 1_555 1_555
C1F C4F 1_555 1_555

#END
