
#######################################################################
#
#                 Cambridge Crystallographic Data Centre
#                                CCDC 
#
#######################################################################
#
# If this CIF has been generated from an entry in the Cambridge 
# Structural Database, then it will include bibliographic, chemical, 
# crystal, experimental, refinement or atomic coordinate data resulting 
# from the CCDC's data processing and validation procedures.
#
#######################################################################

data_ECOSIY
_symmetry_cell_setting           trigonal
_symmetry_space_group_name_H-M   'P -3 c 1'
_symmetry_Int_Tables_number      165
_space_group_name_Hall           '-P 3 2"c'
loop_
_symmetry_equiv_pos_site_id
_symmetry_equiv_pos_as_xyz
1 x,y,z
2 -y,x-y,z
3 -x+y,-x,z
4 y,x,1/2-z
5 x-y,-y,1/2-z
6 -x,-x+y,1/2-z
7 -x,-y,-z
8 y,-x+y,-z
9 x-y,x,-z
10 -y,-x,1/2+z
11 -x+y,y,1/2+z
12 x,x-y,1/2+z
_cell_length_a                   8.3030(3)
_cell_length_b                   8.3030(3)
_cell_length_c                   20.3340(10)
_cell_angle_alpha                90
_cell_angle_beta                 90
_cell_angle_gamma                120
_cell_volume                     1214.01
loop_
_atom_site_label
_atom_site_type_symbol
_atom_site_fract_x
_atom_site_fract_y
_atom_site_fract_z
Co1 Co -0.42224(10) -0.13692(10) -0.00066(4)
Co2 Co 0.0000 0.0000 -0.08472(6)
S1 S -0.6667 -0.3333 -0.13730(11)
O1 O -0.2499(5) -0.1964(5) -0.0595(2)
H1 H -0.305(18) -0.220(16) -0.090(5)
O2 O -0.4771(5) -0.3755(5) 0.04738(19)
H2 H -0.4773 -0.3745 0.0966
O3 O -0.8525(6) -0.4785(6) -0.1589(2)
O4 O -0.6667 -0.3333 -0.0615(3)
N1 N 0.0000 0.0000 -0.1855(4)
C1 C -0.0238(9) -0.1785(9) -0.2129(3)
H3 H -0.1511 -0.2776 -0.2066
H4 H 0.0575 -0.2121 -0.1899
O3A O -0.5215(6) -0.3740(8) -0.1589(2)
O3B O -0.6260(8) -0.1475(6) -0.1589(2)
C1E C 0.0238(9) -0.1547(13) -0.2871(3)
N1C N 0.0000 0.0000 -0.3145(4)
C1C C -0.1785(9) -0.0238(9) -0.2871(3)
C1B C -0.1547(13) 0.0238(9) -0.2129(3)
C1A C 0.1785(9) 0.1547(13) -0.2129(3)
C1D C 0.1547(13) 0.1785(9) -0.2871(3)
H3D H 0.1265 0.2776 -0.2934
H4D H 0.2696 0.2121 -0.3101
H3A H 0.2776 0.1265 -0.2066
H4A H 0.2121 0.2696 -0.1899
H3B H -0.1265 0.1511 -0.2066
H4B H -0.2696 -0.0575 -0.1899
H3C H -0.2776 -0.1511 -0.2934
H4C H -0.2121 0.0575 -0.3101
H3E H 0.1511 -0.1265 -0.2934
H4E H -0.0575 -0.2696 -0.3101
O1A O 0.1964(5) -0.0535(7) -0.0595(2)
H1A H 0.220(16) -0.085(24) -0.090(5)
O1B O 0.0535(7) 0.2499(5) -0.0595(2)
H1B H 0.085(24) 0.305(18) -0.090(5)
Co2C Co 0.0000 0.0000 -0.41528(6)
Co1A Co 0.13692(10) -0.28532(14) -0.00066(4)
Co1B Co 0.28532(14) 0.42224(10) -0.00066(4)
Co1H Co -0.28532(14) -0.42224(10) 0.00066(4)
Co1F Co 0.42224(10) 0.13692(10) 0.00066(4)
Co1G Co -0.13692(10) 0.28532(14) 0.00066(4)
O1G O -0.1964(5) 0.0535(7) 0.0595(2)
H1G H -0.220(16) 0.085(24) 0.090(5)
O2A O -0.6245(5) -0.1016(7) 0.04738(19)
H2A H -0.6255 -0.1028 0.0966
O2G O -0.3755(5) 0.1016(7) -0.04738(19)
H2G H -0.3745 0.1028 -0.0966
O1E O 0.2499(5) 0.0535(7) -0.4405(2)
H1E H 0.305(18) 0.085(24) -0.410(5)
O1C O -0.1964(5) -0.2499(5) -0.4405(2)
H1C H -0.220(16) -0.305(18) -0.410(5)
O2B O 0.1016(7) -0.5229(5) 0.04738(19)
H2B H 0.1028 -0.5227 0.0966
O2A_2 O 0.3755(5) -0.1016(7) 0.04738(19)
H2A_2 H 0.3745 -0.1028 0.0966
O2H O -0.1016(7) -0.4771(5) -0.04738(19)
H2H H -0.1028 -0.4773 -0.0966
S1_2 S 0.3333 -0.3333 -0.13730(11)
O3A_2 O 0.4785(6) -0.3740(8) -0.1589(2)
O4_2 O 0.3333 -0.3333 -0.0615(3)
O3B_2 O 0.3740(8) -0.1475(6) -0.1589(2)
O3_2 O 0.1475(6) -0.4785(6) -0.1589(2)
Co1A_2 Co -0.86308(10) -0.28532(14) -0.00066(4)
Co1F_2 Co -0.57776(10) 0.13692(10) 0.00066(4)
Co1B_2 Co -0.71468(14) -0.57776(10) -0.00066(4)
O1D O -0.0535(7) 0.1964(5) -0.4405(2)
O1H O -0.0535(7) -0.2499(5) 0.0595(2)
O1F O 0.2499(5) 0.1964(5) 0.0595(2)
O2B_2 O 0.1016(7) 0.4771(5) 0.04738(19)
O2_2 O 0.5229(5) 0.6245(5) 0.04738(19)
O2F O 0.4771(5) 0.3755(5) -0.04738(19)
O4_3 O 0.3333 0.6667 -0.0615(3)
O2F_2 O -0.5229(5) -0.6245(5) -0.04738(19)
O4F O -0.3333 -0.6667 0.0615(3)
O2G_2 O 0.6245(5) 0.1016(7) -0.04738(19)
O4F_2 O 0.6667 0.3333 0.0615(3)
O2H_2 O -0.1016(7) 0.5229(5) -0.04738(19)
O4F_3 O -0.3333 0.3333 0.0615(3)
Co2F Co 0.0000 0.0000 0.08472(6)
Co1J Co 0.28532(14) -0.13692(10) -0.50066(4)
Co1E Co 0.42224(10) 0.28532(14) -0.49934(4)
Co1K Co -0.42224(10) -0.28532(14) -0.50066(4)
Co1C Co -0.13692(10) -0.42224(10) -0.49934(4)
Co1B_3 Co 0.28532(14) -0.57776(10) -0.00066(4)
Co1G_2 Co -0.13692(10) -0.71468(14) 0.00066(4)
Co1_2 Co 0.57776(10) -0.13692(10) -0.00066(4)
H1D H -0.085(24) 0.220(16) -0.410(5)
H1H H -0.085(24) -0.305(18) 0.090(5)
H1F H 0.305(18) 0.220(16) 0.090(5)
H2B_2 H 0.1028 0.4773 0.0966
H2_2 H 0.5227 0.6255 0.0966
H2F H 0.4773 0.3745 -0.0966
H2F_2 H -0.5227 -0.6255 -0.0966
H2G_2 H 0.6255 0.1028 -0.0966
H2H_2 H -0.1028 0.5227 -0.0966
O5 O -0.6667 -0.3333 -0.3137(10)
loop_
_geom_bond_atom_site_label_1
_geom_bond_atom_site_label_2
_geom_bond_site_symmetry_1
_geom_bond_site_symmetry_2
Co1 O1 1_555 1_555
Co2 O1 1_555 1_555
S1 O3 1_555 1_555
O1 H1 1_555 1_555
O2 Co1 1_555 1_555
H2 O2 1_555 1_555
O4 Co1 1_555 1_555
N1 Co2 1_555 1_555
C1 N1 1_555 1_555
H3 C1 1_555 1_555
H4 C1 1_555 1_555
O3A S1 1_555 1_555
O3B S1 1_555 1_555
C1E C1 1_555 1_555
N1C C1E 1_555 1_555
C1C N1C 1_555 1_555
C1B N1 1_555 1_555
C1A N1 1_555 1_555
C1D N1C 1_555 1_555
H3D C1D 1_555 1_555
H4D C1D 1_555 1_555
H3A C1A 1_555 1_555
H4A C1A 1_555 1_555
H3B C1B 1_555 1_555
H4B C1B 1_555 1_555
H3C C1C 1_555 1_555
H4C C1C 1_555 1_555
H3E C1E 1_555 1_555
H4E C1E 1_555 1_555
O1A Co2 1_555 1_555
H1A O1A 1_555 1_555
O1B Co2 1_555 1_555
H1B O1B 1_555 1_555
Co2C N1C 1_555 1_555
Co1A O1A 1_555 1_555
Co1B O1B 1_555 1_555
Co1H O1 1_555 1_555
Co1F O1A 1_555 1_555
Co1G O1B 1_555 1_555
O1G Co1 1_555 1_555
H1G O1G 1_555 1_555
O2A Co1 1_555 1_555
H2A O2A 1_555 1_555
O2G Co1 1_555 1_555
H2G O2G 1_555 1_555
O1E Co2C 1_555 1_555
H1E O1E 1_555 1_555
O1C Co2C 1_555 1_555
H1C O1C 1_555 1_555
O2B Co1A 1_555 1_555
H2B O2B 1_555 1_555
O2A_2 Co1A 1_555 1_555
H2A_2 O2A_2 1_555 1_555
O2H Co1A 1_555 1_555
H2H O2H 1_555 1_555
S1_2 O3A_2 1_555 1_555
O4_2 Co1A 1_555 1_555
O3B_2 S1_2 1_555 1_555
O3_2 S1_2 1_555 1_555
Co1A_2 O4 1_555 1_555
Co1F_2 O2A 1_555 1_555
Co1B_2 O2 1_555 1_555
O1D Co2C 1_555 1_555
O1H Co1A 1_555 1_555
O1F Co1B 1_555 1_555
O2B_2 Co1B 1_555 1_555
O2_2 Co1B 1_555 1_555
O2F Co1B 1_555 1_555
O4_3 Co1B 1_555 1_555
O2F_2 Co1H 1_555 1_555
O4F Co1H 1_555 1_555
O2G_2 Co1F 1_555 1_555
O4F_2 Co1F 1_555 1_555
O2H_2 Co1G 1_555 1_555
O4F_3 Co1G 1_555 1_555
Co2F O1G 1_555 1_555
Co1J O1E 1_555 1_555
Co1E O1E 1_555 1_555
Co1K O1C 1_555 1_555
Co1C O1C 1_555 1_555
Co1B_3 O2B 1_555 1_555
Co1G_2 O2B 1_555 1_555
Co1_2 O2A_2 1_555 1_555
H1D O1D 1_555 1_555
H1H O1H 1_555 1_555
H1F O1F 1_555 1_555
H2B_2 O2B_2 1_555 1_555
H2_2 O2_2 1_555 1_555
H2F O2F 1_555 1_555
H2F_2 O2F_2 1_555 1_555
H2G_2 O2G_2 1_555 1_555
H2H_2 O2H_2 1_555 1_555
S1 O4 1_555 1_555
O2 Co1H 1_555 1_555
O4 Co1B_2 1_555 1_555
C1C C1B 1_555 1_555
C1A C1D 1_555 1_555
Co1H O2H 1_555 1_555
Co1H O1H 1_555 1_555
Co1F O2A_2 1_555 1_555
Co1F O1F 1_555 1_555
Co1F O2F 1_555 1_555
Co1G O1G 1_555 1_555
Co1G O2G 1_555 1_555
Co1G O2B_2 1_555 1_555
O2A Co1A_2 1_555 1_555
O2G Co1F_2 1_555 1_555
O2H Co1G_2 1_555 1_555
S1_2 O4_2 1_555 1_555
O4_2 Co1B_3 1_555 1_555
O4_2 Co1_2 1_555 1_555
Co1F_2 O4F_3 1_555 1_555
Co1B_2 O2F_2 1_555 1_555
O1H Co2F 1_555 1_555
O1F Co2F 1_555 1_555
O4F Co1G_2 1_555 1_555
O2G_2 Co1_2 1_555 1_555

#END
