
#######################################################################
#
#                 Cambridge Crystallographic Data Centre
#                                CCDC 
#
#######################################################################
#
# If this CIF has been generated from an entry in the Cambridge 
# Structural Database, then it will include bibliographic, chemical, 
# crystal, experimental, refinement or atomic coordinate data resulting 
# from the CCDC's data processing and validation procedures.
#
#######################################################################

data_ECUTON
_symmetry_cell_setting           monoclinic
_symmetry_space_group_name_H-M   'P 21/n'
_symmetry_Int_Tables_number      14
_space_group_name_Hall           '-P 2yn'
loop_
_symmetry_equiv_pos_site_id
_symmetry_equiv_pos_as_xyz
1 x,y,z
2 1/2-x,1/2+y,1/2-z
3 -x,-y,-z
4 1/2+x,1/2-y,1/2+z
_cell_length_a                   9.417(9)
_cell_length_b                   13.128(12)
_cell_length_c                   15.913(14)
_cell_angle_alpha                90
_cell_angle_beta                 90.00
_cell_angle_gamma                90
_cell_volume                     1967.27
loop_
_atom_site_label
_atom_site_type_symbol
_atom_site_fract_x
_atom_site_fract_y
_atom_site_fract_z
Zn1 Zn 0.23147(8) 0.33006(6) 0.19900(5)
N1 N 0.2762(9) 0.5257(6) 0.2958(5)
O1 O 0.3744(5) 0.3373(4) 0.1085(3)
O2 O 0.7771(5) 0.2591(4) -0.2060(3)
N2 N 0.0711(6) 0.2809(4) 0.1286(3)
C1 C 0.5797(7) 0.3387(5) -0.0197(4)
H1 H 0.4957 0.3033 -0.0293
N3 N -0.0221(6) 0.1958(4) 0.0283(4)
N4 N 0.1838(6) 0.4623(4) 0.2555(4)
C2 C 0.4859(7) 0.3869(6) 0.1226(4)
C3 C 0.6882(7) 0.3367(5) -0.0816(4)
C4 C 0.5960(7) 0.3917(5) 0.0537(4)
N5 N 0.9480(6) 0.5063(5) 0.0231(4)
O3 O 0.5486(6) 0.2419(4) -0.1747(3)
N6 N 0.0746(7) 0.5543(4) 0.3487(4)
N7 N -0.1233(7) 0.2012(5) 0.0890(5)
C5 C 0.6669(8) 0.2757(5) -0.1595(4)
C6 C 0.8109(7) 0.3916(5) -0.0694(4)
H2 H 0.8824 0.3919 -0.1098
C7 C 0.8251(7) 0.4461(5) 0.0044(4)
C8 C 0.7189(8) 0.4468(5) 0.0643(4)
H3 H 0.7308 0.4853 0.1128
O4 O 0.5075(6) 0.4273(5) 0.1904(4)
C9 C 0.2120(8) 0.5804(5) 0.3536(4)
H4 H 0.2531 0.6272 0.3902
C10 C 0.0933(8) 0.2435(5) 0.0533(4)
H5 H 0.1769 0.2496 0.0226
C11 C 0.0591(9) 0.4838(6) 0.2912(5)
H6 H -0.0267 0.4531 0.2772
C12 C -0.0022(10) 0.5570(6) 0.4956(6)
H7 H 0.0883 0.5846 0.5137
H8 H -0.0747 0.5835 0.5330
C13 C -0.0322(10) 0.5939(6) 0.4087(5)
H9 H -0.1261 0.5716 0.3917
H10 H -0.0308 0.6678 0.4079
C14 C -0.0625(8) 0.2530(6) 0.1479(5)
H11 H -0.1066 0.2693 0.1984
C15 C -0.0389(9) 0.1335(6) -0.0451(5)
H12 H 0.0060 0.1666 -0.0927
H13 H -0.1391 0.1260 -0.0576
C16 C 0.0260(13) 0.0303(7) -0.0324(6)
H14 H 0.0157 -0.0074 -0.0844
H15 H 0.1270 0.0398 -0.0230
Zn1B Zn -0.23147(8) -0.33006(6) -0.19900(5)
Zn1A Zn 1.26853(8) 0.83006(6) 0.30100(5)
Zn1B_2 Zn -0.23147(8) 0.66994(6) 0.80100(5)
Zn1B_3 Zn 1.76853(8) 0.66994(6) -0.19900(5)
Zn1C Zn 0.73147(8) 0.16994(6) -0.30100(5)
N1B N -0.2762(9) 0.4743(6) 0.7042(5)
O1B O 1.6256(5) 0.6627(4) -0.1085(3)
O1B_2 O -0.3744(5) -0.3373(4) -0.1085(3)
O2B O 1.2229(5) 0.7409(4) 0.2060(3)
O2A O -0.2771(5) -0.2409(4) -0.2940(3)
O2C O 0.2771(5) 0.2409(4) 0.2940(3)
N2B N -0.0711(6) -0.2809(4) -0.1286(3)
C1B C 1.4203(7) 0.6613(5) 0.0197(4)
H1B H 1.5043 0.6967 0.0293
N3B N 0.0221(6) -0.1958(4) -0.0283(4)
N4B N -0.1838(6) 0.5377(4) 0.7445(4)
N4B_2 N -0.1838(6) -0.4623(4) -0.2555(4)
C2B C 1.5141(7) 0.6131(6) -0.1226(4)
C3B C 1.3118(7) 0.6633(5) 0.0816(4)
C4B C 1.4040(7) 0.6083(5) -0.0537(4)
N5B N 1.0520(6) 0.4937(5) -0.0231(4)
O3B O 1.4514(6) 0.7581(4) 0.1747(3)
N6B N -0.0746(7) 0.4457(4) 0.6513(4)
N7B N 0.1233(7) -0.2012(5) -0.0890(5)
C5B C 1.3331(8) 0.7243(5) 0.1595(4)
C6B C 1.1891(7) 0.6084(5) 0.0694(4)
H2B H 1.1176 0.6081 0.1098
C7B C 1.1749(7) 0.5539(5) -0.0044(4)
C8B C 1.2811(8) 0.5532(5) -0.0643(4)
H3B H 1.2692 0.5147 -0.1128
O4B O 1.4925(6) 0.5727(5) -0.1904(4)
C9B C -0.2120(8) 0.4196(5) 0.6464(4)
H4B H -0.2531 0.3728 0.6098
C10B C -0.0933(8) -0.2435(5) -0.0533(4)
H5B H -0.1769 -0.2496 -0.0226
C11B C -0.0591(9) 0.5162(6) 0.7088(5)
H6B H 0.0267 0.5469 0.7228
C12B C 0.0022(10) 0.4430(6) 0.5044(6)
H7B H -0.0883 0.4154 0.4863
H8B H 0.0747 0.4165 0.4670
C13B C 0.0322(10) 0.4061(6) 0.5913(5)
H9B H 0.1261 0.4284 0.6083
H10B H 0.0308 0.3322 0.5921
C14B C 0.0625(8) -0.2530(6) -0.1479(5)
H11B H 0.1066 -0.2693 -0.1984
C15B C 0.0389(9) -0.1335(6) 0.0451(5)
H12B H -0.0060 -0.1666 0.0927
H13B H 0.1391 -0.1260 0.0576
C16B C -0.0260(13) -0.0303(7) 0.0324(6)
H14B H -0.0157 0.0074 0.0844
H15B H -0.1270 -0.0398 0.0230
O5 O 0.7355(10) 0.4364(16) 0.2884(6)
O6 O 0.7720(11) 0.2526(14) 0.3743(7)
loop_
_geom_bond_atom_site_label_1
_geom_bond_atom_site_label_2
_geom_bond_site_symmetry_1
_geom_bond_site_symmetry_2
Zn1 O1 1_555 1_555
N1 N4 1_555 1_555
O1 C2 1_555 1_555
O2 C5 1_555 1_555
N2 Zn1 1_555 1_555
C1 H1 1_555 1_555
N3 N7 1_555 1_555
N4 Zn1 1_555 1_555
C2 C4 1_555 1_555
C3 C1 1_555 1_555
C4 C1 1_555 1_555
N5 C7 1_555 1_555
O3 C5 1_555 1_555
N6 C9 1_555 1_555
N7 C14 1_555 1_555
C5 C3 1_555 1_555
C6 C3 1_555 1_555
H2 C6 1_555 1_555
C7 C6 1_555 1_555
C8 C4 1_555 1_555
H3 C8 1_555 1_555
O4 C2 1_555 1_555
C9 N1 1_555 1_555
H4 C9 1_555 1_555
C10 N2 1_555 1_555
H5 C10 1_555 1_555
C11 N4 1_555 1_555
H6 C11 1_555 1_555
C12 H7 1_555 1_555
H8 C12 1_555 1_555
C13 N6 1_555 1_555
H9 C13 1_555 1_555
H10 C13 1_555 1_555
C14 N2 1_555 1_555
H11 C14 1_555 1_555
C15 N3 1_555 1_555
H12 C15 1_555 1_555
H13 C15 1_555 1_555
C16 C15 1_555 1_555
H14 C16 1_555 1_555
H15 C16 1_555 1_555
Zn1B O1B_2 1_555 1_555
Zn1A O2B 1_555 1_555
Zn1B_2 N4B 1_555 1_555
Zn1B_3 O1B 1_555 1_555
Zn1C O2 1_555 1_555
N1B N4B 1_555 1_555
O1B C2B 1_555 1_555
O2B C5B 1_555 1_555
O2A Zn1B 1_555 1_555
O2C Zn1 1_555 1_555
N2B Zn1B 1_555 1_555
C1B H1B 1_555 1_555
N3B N7B 1_555 1_555
N4B C11B 1_555 1_555
N4B_2 Zn1B 1_555 1_555
C2B C4B 1_555 1_555
C3B C1B 1_555 1_555
C4B C1B 1_555 1_555
N5B N5 1_555 1_555
O3B C5B 1_555 1_555
N6B C9B 1_555 1_555
N7B C14B 1_555 1_555
C5B C3B 1_555 1_555
C6B C3B 1_555 1_555
H2B C6B 1_555 1_555
C7B N5B 1_555 1_555
C8B C4B 1_555 1_555
H3B C8B 1_555 1_555
O4B C2B 1_555 1_555
C9B N1B 1_555 1_555
H4B C9B 1_555 1_555
C10B N2B 1_555 1_555
H5B C10B 1_555 1_555
C11B N6B 1_555 1_555
H6B C11B 1_555 1_555
C12B C12 1_555 1_555
H7B C12B 1_555 1_555
H8B C12B 1_555 1_555
C13B N6B 1_555 1_555
H9B C13B 1_555 1_555
H10B C13B 1_555 1_555
C14B N2B 1_555 1_555
H11B C14B 1_555 1_555
C15B N3B 1_555 1_555
H12B C15B 1_555 1_555
H13B C15B 1_555 1_555
C16B C16 1_555 1_555
H14B C16B 1_555 1_555
H15B C16B 1_555 1_555
N3 C10 1_555 1_555
N6 C11 1_555 1_555
C7 C8 1_555 1_555
C12 C13 1_555 1_555
N3B C10B 1_555 1_555
C6B C7B 1_555 1_555
C7B C8B 1_555 1_555
C12B C13B 1_555 1_555
C15B C16B 1_555 1_555

#END
