
#######################################################################
#
#                 Cambridge Crystallographic Data Centre
#                                CCDC 
#
#######################################################################
#
# If this CIF has been generated from an entry in the Cambridge 
# Structural Database, then it will include bibliographic, chemical, 
# crystal, experimental, refinement or atomic coordinate data resulting 
# from the CCDC's data processing and validation procedures.
#
#######################################################################

data_EDAGEX
_symmetry_cell_setting           monoclinic
_symmetry_space_group_name_H-M   'P 21/n'
_symmetry_Int_Tables_number      14
_space_group_name_Hall           '-P 2yn'
loop_
_symmetry_equiv_pos_site_id
_symmetry_equiv_pos_as_xyz
1 x,y,z
2 1/2-x,1/2+y,1/2-z
3 -x,-y,-z
4 1/2+x,1/2-y,1/2+z
_cell_length_a                   11.323(3)
_cell_length_b                   9.935(3)
_cell_length_c                   14.708(4)
_cell_angle_alpha                90
_cell_angle_beta                 91.171(13)
_cell_angle_gamma                90
_cell_volume                     1654.22
loop_
_atom_site_label
_atom_site_type_symbol
_atom_site_fract_x
_atom_site_fract_y
_atom_site_fract_z
Co1 Co 0.74435(6) 0.07396(7) 0.36637(5)
Co2 Co 0.75983(6) -0.12025(7) 0.19414(5)
Co3 Co 1.0000 0.0000 0.5000
Co4 Co 0.5000 0.0000 0.5000
O1 O 0.6914(4) 0.0485(4) 0.1344(3)
O2 O 0.6943(3) 0.1906(4) 0.2519(3)
O3 O 0.8457(3) 0.2502(4) 0.3877(3)
O4 O 0.9852(4) 0.2054(4) 0.4924(3)
O5 O 0.8706(3) -0.0162(4) 0.2849(3)
O6 O 1.0404(4) -0.0106(5) 0.3633(3)
O7 O 0.6500(3) -0.0884(4) 0.3069(3)
O8 O 0.4843(4) -0.1161(5) 0.3832(3)
O9 O 0.8918(4) -0.1333(4) 0.1023(3)
O10 O 0.8992(3) -0.3506(4) 0.0653(3)
O11 O 0.6505(3) -0.1045(5) 0.5395(3)
O12 O 0.8150(3) -0.0262(4) 0.4777(3)
C1 C 0.6762(5) 0.1596(6) 0.1690(4)
H1 H 0.6487 0.2277 0.1307
C2 C 0.9265(5) 0.2824(6) 0.4430(4)
H2 H 0.9442 0.3736 0.4474
C3 C 0.9813(5) -0.0297(7) 0.2940(4)
H3 H 1.0218 -0.0570 0.2428
C4 C 0.5506(5) -0.1405(7) 0.3208(4)
H4 H 0.5248 -0.2046 0.2788
C5 C 0.9332(5) -0.2302(6) 0.0609(4)
H5 H 0.9958 -0.2123 0.0227
C6 C 0.7577(5) -0.0976(6) 0.5330(4)
H6 H 0.8023 -0.1505 0.5731
Co1B Co 0.25565(6) -0.07396(7) 0.63363(5)
Co1A Co 0.75565(6) -0.42604(7) 0.13363(5)
Co1C Co 0.24435(6) 0.42604(7) 0.86637(5)
Co2B Co 0.24017(6) 0.12025(7) 0.80586(5)
Co2A Co 0.74017(6) 0.37975(7) 0.30586(5)
Co2C Co 0.25983(6) -0.37975(7) 0.69414(5)
Co3_2 Co 0.0000 0.0000 0.5000
Co4A Co 0.0000 0.5000 1.0000
Co4A_2 Co 1.0000 -0.5000 0.0000
O1B O 0.3086(4) -0.0485(4) 0.8656(3)
O2B O 0.3057(3) -0.1906(4) 0.7481(3)
O2A O 0.8057(3) -0.3094(4) 0.2481(3)
O2C O 0.1943(3) 0.3094(4) 0.7519(3)
O3B O 0.1543(3) -0.2502(4) 0.6123(3)
O3A O 0.6543(3) -0.2498(4) 0.1123(3)
O3C O 0.3457(3) 0.2498(4) 0.8877(3)
O4B O 0.0148(4) -0.2054(4) 0.5076(3)
O4B_2 O 1.0148(4) -0.2054(4) 0.5076(3)
O5B O 0.1294(3) 0.0162(4) 0.7151(3)
O6B O -0.0404(4) 0.0106(5) 0.6367(3)
O6B_2 O 0.9596(4) 0.0106(5) 0.6367(3)
O7B O 0.3500(3) 0.0884(4) 0.6931(3)
O8B O 0.5157(4) 0.1161(5) 0.6168(3)
O9B O 0.1082(4) 0.1333(4) 0.8977(3)
O10B O 0.1008(3) 0.3506(4) 0.9347(3)
O10A O 0.6008(3) 0.1494(4) 0.4347(3)
O10C O 0.3992(3) -0.1494(4) 0.5653(3)
O11B O 0.3495(3) 0.1045(5) 0.4605(3)
O12B O 0.1850(3) 0.0262(4) 0.5223(3)
O12B_2 O 1.1850(3) 0.0262(4) 0.5223(3)
C1B C 0.3238(5) -0.1596(6) 0.8310(4)
H1B H 0.3513 -0.2277 0.8693
C2B C 0.0735(5) -0.2824(6) 0.5570(4)
H2B H 0.0558 -0.3736 0.5526
C3B C 0.0187(5) 0.0297(7) 0.7060(4)
H3B H -0.0218 0.0570 0.7572
C4B C 0.4494(5) 0.1405(7) 0.6792(4)
H4B H 0.4752 0.2046 0.7212
C5B C 0.0668(5) 0.2302(6) 0.9391(4)
H5B H 0.0042 0.2123 0.9773
C6B C 0.2423(5) 0.0976(6) 0.4670(4)
H6B H 0.1977 0.1505 0.4269
O13 O 1.196(3) 0.093(4) 0.113(2)
C7 C 1.257(2) 0.180(3) 0.1818(19)
H7 H 1.2085 0.1881 0.2353
H8 H 1.2692 0.2693 0.1571
C8 C 1.375(2) 0.114(3) 0.2066(16)
H9 H 1.4402 0.1695 0.1873
H10 H 1.3820 0.0987 0.2715
C9 C 1.369(2) -0.018(2) 0.1543(15)
H11 H 1.4279 -0.0162 0.1070
H12 H 1.3892 -0.0912 0.1953
C10 C 1.256(2) -0.042(3) 0.1139(18)
H13 H 1.2116 -0.1058 0.1497
H14 H 1.2629 -0.0768 0.0527
loop_
_geom_bond_atom_site_label_1
_geom_bond_atom_site_label_2
_geom_bond_site_symmetry_1
_geom_bond_site_symmetry_2
Co1 O2 1_555 1_555
Co2 O1 1_555 1_555
Co3 O4 1_555 1_555
Co4 O8 1_555 1_555
O1 C1 1_555 1_555
O2 C1 1_555 1_555
O3 Co1 1_555 1_555
O4 C2 1_555 1_555
O5 Co1 1_555 1_555
O6 Co3 1_555 1_555
O7 Co1 1_555 1_555
O8 C4 1_555 1_555
O9 Co2 1_555 1_555
O10 C5 1_555 1_555
O11 Co4 1_555 1_555
O12 Co1 1_555 1_555
C1 H1 1_555 1_555
C2 O3 1_555 1_555
H2 C2 1_555 1_555
C3 O5 1_555 1_555
H3 C3 1_555 1_555
C4 O7 1_555 1_555
H4 C4 1_555 1_555
C5 O9 1_555 1_555
H5 C5 1_555 1_555
C6 O11 1_555 1_555
H6 C6 1_555 1_555
O13 C7 1_555 1_555
C7 H7 1_555 1_555
H8 C7 1_555 1_555
C8 C7 1_555 1_555
H9 C8 1_555 1_555
H10 C8 1_555 1_555
C9 C8 1_555 1_555
H11 C9 1_555 1_555
H12 C9 1_555 1_555
C10 O13 1_555 1_555
H13 C10 1_555 1_555
H14 C10 1_555 1_555
Co1B O2B 1_555 1_555
Co1A O10 1_555 1_555
Co1C O2C 1_555 1_555
Co2B O1B 1_555 1_555
Co2A O2 1_555 1_555
Co2C O2B 1_555 1_555
Co3_2 O4B 1_555 1_555
Co4A O10B 1_555 1_555
Co4A_2 O10 1_555 1_555
O1B C1B 1_555 1_555
O2B C1B 1_555 1_555
O2A Co2 1_555 1_555
O2C Co2B 1_555 1_555
O3B Co1B 1_555 1_555
O3A Co2 1_555 1_555
O3C Co1C 1_555 1_555
O4B C2B 1_555 1_555
O4B_2 Co3 1_555 1_555
O5B Co1B 1_555 1_555
O6B Co3_2 1_555 1_555
O6B_2 Co3 1_555 1_555
O7B Co1B 1_555 1_555
O8B Co4 1_555 1_555
O9B Co2B 1_555 1_555
O10B Co1C 1_555 1_555
O10A Co1 1_555 1_555
O10C Co4 1_555 1_555
O11B Co4 1_555 1_555
O12B Co1B 1_555 1_555
O12B_2 Co3 1_555 1_555
C1B H1B 1_555 1_555
C2B O3B 1_555 1_555
H2B C2B 1_555 1_555
C3B O5B 1_555 1_555
H3B C3B 1_555 1_555
C4B O7B 1_555 1_555
H4B C4B 1_555 1_555
C5B O9B 1_555 1_555
H5B C5B 1_555 1_555
C6B O11B 1_555 1_555
H6B C6B 1_555 1_555
Co2 O5 1_555 1_555
Co2 O7 1_555 1_555
Co3 O12 1_555 1_555
Co4 O10A 1_555 1_555
O3 Co2A 1_555 1_555
O6 C3 1_555 1_555
O12 C6 1_555 1_555
C9 C10 1_555 1_555
Co1B O10C 1_555 1_555
Co1A O2A 1_555 1_555
Co1A O3A 1_555 1_555
Co2B O3C 1_555 1_555
Co2B O5B 1_555 1_555
Co2B O7B 1_555 1_555
Co2C O3B 1_555 1_555
Co3_2 O12B 1_555 1_555
O6B C3B 1_555 1_555
O8B C4B 1_555 1_555
O10B C5B 1_555 1_555
O12B C6B 1_555 1_555

#END
