
#######################################################################
#
#                 Cambridge Crystallographic Data Centre
#                                CCDC 
#
#######################################################################
#
# If this CIF has been generated from an entry in the Cambridge 
# Structural Database, then it will include bibliographic, chemical, 
# crystal, experimental, refinement or atomic coordinate data resulting 
# from the CCDC's data processing and validation procedures.
#
#######################################################################

data_EDAVOV
_symmetry_cell_setting           rhombohedral
_symmetry_space_group_name_H-M   'R -3'
_symmetry_Int_Tables_number      148
_space_group_name_Hall           '-R 3'
loop_
_symmetry_equiv_pos_site_id
_symmetry_equiv_pos_as_xyz
1 x,y,z
2 -y,x-y,z
3 -x+y,-x,z
4 2/3+x,1/3+y,1/3+z
5 2/3-y,1/3+x-y,1/3+z
6 2/3-x+y,1/3-x,1/3+z
7 1/3+x,2/3+y,2/3+z
8 1/3-y,2/3+x-y,2/3+z
9 1/3-x+y,2/3-x,2/3+z
10 -x,-y,-z
11 y,-x+y,-z
12 x-y,x,-z
13 1/3-x,2/3-y,2/3-z
14 1/3+y,2/3-x+y,2/3-z
15 1/3+x-y,2/3+x,2/3-z
16 2/3-x,1/3-y,1/3-z
17 2/3+y,1/3-x+y,1/3-z
18 2/3+x-y,1/3+x,1/3-z
_cell_length_a                   26.9909(14)
_cell_length_b                   26.9909(14)
_cell_length_c                   6.9875(4)
_cell_angle_alpha                90
_cell_angle_beta                 90
_cell_angle_gamma                120
_cell_volume                     4408.46
loop_
_atom_site_label
_atom_site_type_symbol
_atom_site_fract_x
_atom_site_fract_y
_atom_site_fract_z
Cu1 Cu 0.123736(11) 0.345771(12) 1.23897(4)
O2 O 0.09655(8) 0.39993(8) 1.2472(2)
O3 O 0.05387(9) 0.43736(9) 1.0812(3)
O4 O 0.15487(6) 0.29488(7) 1.2091(2)
N1 N 0.09280(8) 0.33118(8) 0.9834(3)
C2 C 0.07341(10) 0.40489(10) 1.0961(3)
C3 C 0.06963(11) 0.36785(11) 0.9275(3)
H1 H 0.0301 0.3445 0.8880
H2 H 0.0912 0.3918 0.8205
C4 C 0.09230(9) 0.29536(10) 0.8637(3)
H3 H 0.0778 0.2946 0.7423
C5 C 0.11247(9) 0.25590(9) 0.9018(4)
C6 C 0.10215(12) 0.21579(12) 0.7565(4)
H4 H 0.0855 0.2177 0.6424
C7 C 0.11619(14) 0.17397(14) 0.7802(5)
H5 H 0.1093 0.1478 0.6830
C8 C 0.14078(13) 0.17129(13) 0.9513(5)
H6 H 0.1496 0.1424 0.9693
C9 C 0.15235(12) 0.21037(12) 1.0945(5)
H7 H 0.1686 0.2073 1.2080
C10 C 0.14007(9) 0.25493(9) 1.0730(3)
Cu1L Cu 0.209597(11) 0.320896(12) 1.42770(4)
Cu1G Cu -0.012438(12) 0.444632(16) 0.90564(4)
Cu1J Cu 0.345771(12) 0.222035(16) 1.76103(4)
O2L O 0.23678(8) 0.26674(8) 1.4195(2)
O3E O 0.05016(13) 0.27946(9) 1.4145(3)
O3L O 0.27946(9) 0.22931(9) 1.5855(3)
O3Q O 0.28318(13) 0.38720(9) 1.2521(3)
O4L O 0.17846(6) 0.37179(7) 1.4576(2)
N1L N 0.24053(8) 0.33549(8) 1.6833(3)
C2L C 0.25992(10) 0.26178(10) 1.5706(3)
C3L C 0.26370(11) 0.29882(11) 1.7392(3)
H1L H 0.3032 0.3222 1.7787
H2L H 0.2421 0.2749 1.8462
C4L C 0.24103(9) 0.37131(10) 1.8030(3)
H3L H 0.2555 0.3721 1.9244
C5L C 0.22086(9) 0.41077(9) 1.7649(4)
C6L C 0.23118(12) 0.45088(12) 1.9102(4)
H4L H 0.2478 0.4490 2.0243
C7L C 0.21714(14) 0.49270(14) 1.8865(5)
H5L H 0.2240 0.5189 1.9837
C8L C 0.19255(13) 0.49538(13) 1.7154(5)
H6L H 0.1837 0.5243 1.6974
C9L C 0.18098(12) 0.45630(12) 1.5722(5)
H7L H 0.1647 0.4594 1.4587
C10L C 0.19326(9) 0.41174(9) 1.5937(3)
O1 O 0.0000 0.0000 0.168(4)
C1 C 0.0000 0.0000 0.377(4)
O1I O 0.0000 0.0000 0.832(4)
C1I C 0.0000 0.0000 0.623(4)
loop_
_geom_bond_atom_site_label_1
_geom_bond_atom_site_label_2
_geom_bond_site_symmetry_1
_geom_bond_site_symmetry_2
O1 C1 1_555 1_555
C1 C1I 1_555 1_555
Cu1 O2 1_555 1_555
O2 C2 1_555 1_555
O3 C2 1_555 1_555
O4 Cu1 1_555 1_555
N1 Cu1 1_555 1_555
C2 C3 1_555 1_555
C3 N1 1_555 1_555
H1 C3 1_555 1_555
H2 C3 1_555 1_555
C4 N1 1_555 1_555
H3 C4 1_555 1_555
C5 C4 1_555 1_555
C6 C5 1_555 1_555
H4 C6 1_555 1_555
C7 C6 1_555 1_555
H5 C7 1_555 1_555
C8 C7 1_555 1_555
H6 C8 1_555 1_555
C9 C8 1_555 1_555
H7 C9 1_555 1_555
C10 O4 1_555 1_555
O1I C1I 1_555 1_555
Cu1L O4 1_555 1_555
Cu1G O3 1_555 1_555
Cu1J O3L 1_555 1_555
O2L Cu1L 1_555 1_555
O3E Cu1 1_555 1_555
O3L C2L 1_555 1_555
O3Q Cu1L 1_555 1_555
O4L Cu1 1_555 1_555
N1L Cu1L 1_555 1_555
C2L O2L 1_555 1_555
C3L N1L 1_555 1_555
H1L C3L 1_555 1_555
H2L C3L 1_555 1_555
C4L N1L 1_555 1_555
H3L C4L 1_555 1_555
C5L C4L 1_555 1_555
C6L C5L 1_555 1_555
H4L C6L 1_555 1_555
C7L C6L 1_555 1_555
H5L C7L 1_555 1_555
C8L C7L 1_555 1_555
H6L C8L 1_555 1_555
C9L C8L 1_555 1_555
H7L C9L 1_555 1_555
C10L O4L 1_555 1_555
C5 C10 1_555 1_555
C9 C10 1_555 1_555
Cu1L O4L 1_555 1_555
C2L C3L 1_555 1_555
C5L C10L 1_555 1_555
C9L C10L 1_555 1_555

#END
