
#######################################################################
#
#                 Cambridge Crystallographic Data Centre
#                                CCDC 
#
#######################################################################
#
# If this CIF has been generated from an entry in the Cambridge 
# Structural Database, then it will include bibliographic, chemical, 
# crystal, experimental, refinement or atomic coordinate data resulting 
# from the CCDC's data processing and validation procedures.
#
#######################################################################

data_EDIKIL
_symmetry_cell_setting           monoclinic
_symmetry_space_group_name_H-M   'C c'
_symmetry_Int_Tables_number      9
_space_group_name_Hall           'C -2yc'
loop_
_symmetry_equiv_pos_site_id
_symmetry_equiv_pos_as_xyz
1 x,y,z
2 x,-y,1/2+z
3 1/2+x,1/2+y,z
4 1/2+x,1/2-y,1/2+z
_cell_length_a                   11.5516(4)
_cell_length_b                   17.16770(10)
_cell_length_c                   8.7185(3)
_cell_angle_alpha                90
_cell_angle_beta                 130.6350(10)
_cell_angle_gamma                90
_cell_volume                     1312.1
loop_
_atom_site_label
_atom_site_type_symbol
_atom_site_fract_x
_atom_site_fract_y
_atom_site_fract_z
Y1 Y 0.4410(4) 0.1280(1) 0.2605(5)
O1 O 0.6706(11) 0.1705(6) 0.3615(15)
O2 O 0.5685(11) 0.0759(7) 0.5843(14)
O3 O 0.5238(11) 0.2365(7) 0.4722(15)
O4 O 0.7081(11) 0.3250(6) 0.6524(14)
O5 O 0.8523(11) 0.2631(5) 0.5384(14)
O6 O 0.5722(11) -0.0166(4) 0.7700(13)
O7 O 0.3185(11) -0.0784(6) 0.4330(12)
O8 O 0.3093(10) 0.0176(5) 0.2530(12)
C1 C 0.7371(16) 0.2343(7) 0.4842(18)
C2 C 0.6529(13) 0.2717(8) 0.5495(18)
C3 C 0.5190(14) 0.0194(7) 0.6056(17)
C4 C 0.3714(17) -0.0156(7) 0.4130(20)
O4C O 0.2081(11) 0.1750(6) 0.1524(14)
O5C O 0.3523(11) 0.2369(5) 0.0384(14)
O6A O 0.5722(11) 0.0166(4) 0.2700(13)
O7A O 0.3185(11) 0.0784(6) -0.0670(12)
Y1C Y 0.9410(4) 0.3720(1) 0.7605(5)
Y1A Y 0.4410(4) -0.1280(1) 0.7605(5)
N1 N 0.8332(16) -0.0724(9) 0.5908(20)
C5 C 0.8142(33) -0.1629(14) 0.6103(33)
C6 C 0.9639(23) -0.1954(4) 0.7806(29)
C7 C 1.0483(27) -0.1605(15) 0.9582(41)
N2 N 1.0570(15) -0.0742(9) 0.9154(22)
C8 C 0.9446(22) -0.0371(3) 0.7728(28)
C9 C 0.9390(31) 0.0491(4) 0.7523(41)
H1 H 0.913(13) 0.0592(45) 0.613(15)
H2 H 0.840(12) 0.0784(48) 0.760(17)
H3 H 0.8535(83) 0.0684(37) 0.641(12)
H4 H 1.0919(90) -0.0524(36) 1.0139(99)
H5 H 1.007(12) -0.1924(53) 0.682(15)
H6 H 1.126(10) -0.1740(41) 1.067(12)
H7 H 1.079(11) -0.1409(50) 0.917(16)
H8 H 0.8995(71) -0.2493(33) 0.714(10)
H9 H 0.831(11) -0.1460(49) 0.528(14)
H10 H 0.6984(96) -0.1654(44) 0.457(14)
H11 H 0.7227(67) -0.0407(30) 0.4872(81)
loop_
_geom_bond_atom_site_label_1
_geom_bond_atom_site_label_2
_geom_bond_site_symmetry_1
_geom_bond_site_symmetry_2
Y1 O1 1_555 1_555
O1 C1 1_555 1_555
O2 Y1 1_555 1_555
O3 Y1 1_555 1_555
O4 C2 1_555 1_555
O5 C1 1_555 1_555
O6 C3 1_555 1_555
O7 C4 1_555 1_555
O8 Y1 1_555 1_555
C1 C2 1_555 1_555
C2 O3 1_555 1_555
C3 O2 1_555 1_555
C4 O8 1_555 1_555
N1 C5 1_555 1_555
C5 C6 1_555 1_555
C6 C7 1_555 1_555
C7 N2 1_555 1_555
N2 C8 1_555 1_555
C8 N1 1_555 1_555
C9 C8 1_555 1_555
H1 C9 1_555 1_555
H2 C9 1_555 1_555
H3 C9 1_555 1_555
H4 N2 1_555 1_555
H5 C6 1_555 1_555
H6 C7 1_555 1_555
H7 C7 1_555 1_555
H8 C6 1_555 1_555
H9 C5 1_555 1_555
H10 C5 1_555 1_555
H11 N1 1_555 1_555
O4C Y1 1_555 1_555
O5C Y1 1_555 1_555
O6A Y1 1_555 1_555
O7A Y1 1_555 1_555
Y1C O4 1_555 1_555
Y1A O6 1_555 1_555
O5 Y1C 1_555 1_555
O7 Y1A 1_555 1_555
C3 C4 1_555 1_555

#END
