
#######################################################################
#
#                 Cambridge Crystallographic Data Centre
#                                CCDC 
#
#######################################################################
#
# If this CIF has been generated from an entry in the Cambridge 
# Structural Database, then it will include bibliographic, chemical, 
# crystal, experimental, refinement or atomic coordinate data resulting 
# from the CCDC's data processing and validation procedures.
#
#######################################################################

data_EDUSIF
_symmetry_cell_setting           cubic
_symmetry_space_group_name_H-M   'F m -3 m'
_symmetry_Int_Tables_number      225
_space_group_name_Hall           '-F 4 2 3'
loop_
_symmetry_equiv_pos_site_id
_symmetry_equiv_pos_as_xyz
1 x,y,z
2 z,x,y
3 y,z,x
4 y,x,-z
5 y,-x,z
6 -y,x,z
7 x,z,-y
8 -x,z,y
9 x,-z,y
10 z,y,-x
11 z,-y,x
12 -z,y,x
13 x,1/2+y,1/2+z
14 z,1/2+x,1/2+y
15 y,1/2+z,1/2+x
16 y,1/2+x,1/2-z
17 y,1/2-x,1/2+z
18 -y,1/2+x,1/2+z
19 x,1/2+z,1/2-y
20 -x,1/2+z,1/2+y
21 x,1/2-z,1/2+y
22 z,1/2+y,1/2-x
23 z,1/2-y,1/2+x
24 -z,1/2+y,1/2+x
25 1/2+x,y,1/2+z
26 1/2+z,x,1/2+y
27 1/2+y,z,1/2+x
28 1/2+y,x,1/2-z
29 1/2+y,-x,1/2+z
30 1/2-y,x,1/2+z
31 1/2+x,z,1/2-y
32 1/2-x,z,1/2+y
33 1/2+x,-z,1/2+y
34 1/2+z,y,1/2-x
35 1/2+z,-y,1/2+x
36 1/2-z,y,1/2+x
37 1/2+x,1/2+y,z
38 1/2+z,1/2+x,y
39 1/2+y,1/2+z,x
40 1/2+y,1/2+x,-z
41 1/2+y,1/2-x,z
42 1/2-y,1/2+x,z
43 1/2+x,1/2+z,-y
44 1/2-x,1/2+z,y
45 1/2+x,1/2-z,y
46 1/2+z,1/2+y,-x
47 1/2+z,1/2-y,x
48 1/2-z,1/2+y,x
49 -x,-y,z
50 -x,y,-z
51 x,-y,-z
52 z,-x,-y
53 -z,-x,y
54 -z,x,-y
55 -y,z,-x
56 y,-z,-x
57 -y,-z,x
58 -y,-x,-z
59 -x,-z,-y
60 -z,-y,-x
61 -x,1/2-y,1/2+z
62 -x,1/2+y,1/2-z
63 x,1/2-y,1/2-z
64 z,1/2-x,1/2-y
65 -z,1/2-x,1/2+y
66 -z,1/2+x,1/2-y
67 -y,1/2+z,1/2-x
68 y,1/2-z,1/2-x
69 -y,1/2-z,1/2+x
70 -y,1/2-x,1/2-z
71 -x,1/2-z,1/2-y
72 -z,1/2-y,1/2-x
73 1/2-x,-y,1/2+z
74 1/2-x,y,1/2-z
75 1/2+x,-y,1/2-z
76 1/2+z,-x,1/2-y
77 1/2-z,-x,1/2+y
78 1/2-z,x,1/2-y
79 1/2-y,z,1/2-x
80 1/2+y,-z,1/2-x
81 1/2-y,-z,1/2+x
82 1/2-y,-x,1/2-z
83 1/2-x,-z,1/2-y
84 1/2-z,-y,1/2-x
85 1/2-x,1/2-y,z
86 1/2-x,1/2+y,-z
87 1/2+x,1/2-y,-z
88 1/2+z,1/2-x,-y
89 1/2-z,1/2-x,y
90 1/2-z,1/2+x,-y
91 1/2-y,1/2+z,-x
92 1/2+y,1/2-z,-x
93 1/2-y,1/2-z,x
94 1/2-y,1/2-x,-z
95 1/2-x,1/2-z,-y
96 1/2-z,1/2-y,-x
97 -x,-y,-z
98 -z,-x,-y
99 -y,-z,-x
100 -y,-x,z
101 -y,x,-z
102 y,-x,-z
103 -x,-z,y
104 x,-z,-y
105 -x,z,-y
106 -z,-y,x
107 -z,y,-x
108 z,-y,-x
109 -x,1/2-y,1/2-z
110 -z,1/2-x,1/2-y
111 -y,1/2-z,1/2-x
112 -y,1/2-x,1/2+z
113 -y,1/2+x,1/2-z
114 y,1/2-x,1/2-z
115 -x,1/2-z,1/2+y
116 x,1/2-z,1/2-y
117 -x,1/2+z,1/2-y
118 -z,1/2-y,1/2+x
119 -z,1/2+y,1/2-x
120 z,1/2-y,1/2-x
121 1/2-x,-y,1/2-z
122 1/2-z,-x,1/2-y
123 1/2-y,-z,1/2-x
124 1/2-y,-x,1/2+z
125 1/2-y,x,1/2-z
126 1/2+y,-x,1/2-z
127 1/2-x,-z,1/2+y
128 1/2+x,-z,1/2-y
129 1/2-x,z,1/2-y
130 1/2-z,-y,1/2+x
131 1/2-z,y,1/2-x
132 1/2+z,-y,1/2-x
133 1/2-x,1/2-y,-z
134 1/2-z,1/2-x,-y
135 1/2-y,1/2-z,-x
136 1/2-y,1/2-x,z
137 1/2-y,1/2+x,-z
138 1/2+y,1/2-x,-z
139 1/2-x,1/2-z,y
140 1/2+x,1/2-z,-y
141 1/2-x,1/2+z,-y
142 1/2-z,1/2-y,x
143 1/2-z,1/2+y,-x
144 1/2+z,1/2-y,-x
145 x,y,-z
146 x,-y,z
147 -x,y,z
148 -z,x,y
149 z,x,-y
150 z,-x,y
151 y,-z,x
152 -y,z,x
153 y,z,-x
154 y,x,z
155 x,z,y
156 z,y,x
157 x,1/2+y,1/2-z
158 x,1/2-y,1/2+z
159 -x,1/2+y,1/2+z
160 -z,1/2+x,1/2+y
161 z,1/2+x,1/2-y
162 z,1/2-x,1/2+y
163 y,1/2-z,1/2+x
164 -y,1/2+z,1/2+x
165 y,1/2+z,1/2-x
166 y,1/2+x,1/2+z
167 x,1/2+z,1/2+y
168 z,1/2+y,1/2+x
169 1/2+x,y,1/2-z
170 1/2+x,-y,1/2+z
171 1/2-x,y,1/2+z
172 1/2-z,x,1/2+y
173 1/2+z,x,1/2-y
174 1/2+z,-x,1/2+y
175 1/2+y,-z,1/2+x
176 1/2-y,z,1/2+x
177 1/2+y,z,1/2-x
178 1/2+y,x,1/2+z
179 1/2+x,z,1/2+y
180 1/2+z,y,1/2+x
181 1/2+x,1/2+y,-z
182 1/2+x,1/2-y,z
183 1/2-x,1/2+y,z
184 1/2-z,1/2+x,y
185 1/2+z,1/2+x,-y
186 1/2+z,1/2-x,y
187 1/2+y,1/2-z,x
188 1/2-y,1/2+z,x
189 1/2+y,1/2+z,-x
190 1/2+y,1/2+x,z
191 1/2+x,1/2+z,y
192 1/2+z,1/2+y,x
_cell_length_a                   25.8320(5)
_cell_length_b                   25.8320(5)
_cell_length_c                   25.8320(5)
_cell_angle_alpha                90
_cell_angle_beta                 90
_cell_angle_gamma                90
_cell_volume                     17237.5
loop_
_atom_site_label
_atom_site_type_symbol
_atom_site_fract_x
_atom_site_fract_y
_atom_site_fract_z
O2 O 0.5000 0.5000 0.0000
O3 O 0.3805(16) 0.1195(16) 0.1195(16)
Zn1 Zn 0.29338(3) 0.20662(3) 0.20662(3)
O4 O 0.2500 0.2500 0.2500
O5 O 0.36600(17) 0.21813(17) 0.2181(2)
C1 C 0.3887 0.2500 0.2500(3)
C2 C 0.4462 0.2500 0.2500(3)
C3 C 0.4731(3) 0.2171(3) 0.2171(3)
H1 H 0.4552 0.1951 0.1951
O5OD O 0.2181(2) 0.28187(17) 0.13400(17)
O5EE O 0.28187(17) 0.13400(17) 0.2181(2)
O5ID O 0.21813(17) 0.13400(17) 0.2819(2)
O5ZD O 0.2819(2) 0.21813(17) 0.13400(17)
O5KD O 0.36600(17) 0.2819(2) 0.28187(17)
C3G C 0.5269(3) 0.2171(3) 0.2171(3)
C2G C 0.5538 0.2500(3) 0.2500
C1G C 0.6113 0.2500(3) 0.2500
O5G O 0.63400(17) 0.2181(2) 0.21813(17)
O5DD O 0.63400(17) 0.28187(17) 0.2819(2)
C3DD C 0.5269(3) 0.2829(3) 0.2829(3)
C3KD C 0.4731(3) 0.2829(3) 0.2829(3)
H1KD H 0.4552 0.3049 0.3049
H1DD H 0.5448 0.3049 0.3049
H1G H 0.5448 0.1951 0.1951
Zn1B Zn 0.20662(3) 0.20662(3) 0.29338(3)
Zn1A Zn 0.20662(3) 0.29338(3) 0.20662(3)
Zn1TD Zn 0.29338(3) 0.29338(3) 0.29338(3)
O5XD O 0.13400(17) 0.2181(2) 0.28187(17)
O5HE O 0.13400(17) 0.2819(2) 0.21813(17)
O5B O 0.21813(17) 0.2181(2) 0.36600(17)
C1B C 0.2500 0.2500(3) 0.3887
C2B C 0.2500 0.2500(3) 0.4462
C3B C 0.2171(3) 0.2171(3) 0.4731(3)
H1B H 0.1951 0.1951 0.4552
O5KE O 0.2819(2) 0.28187(17) 0.36600(17)
C3I C 0.2171(3) 0.2171(3) 0.5269(3)
C2I C 0.2500(3) 0.2500 0.5538
C1I C 0.2500(3) 0.2500 0.6113
O5I O 0.2181(2) 0.21813(17) 0.63400(17)
O5DE O 0.28187(17) 0.2819(2) 0.63400(17)
C3DE C 0.2829(3) 0.2829(3) 0.5269(3)
C3KE C 0.2829(3) 0.2829(3) 0.4731(3)
H1KE H 0.3049 0.3049 0.4552
H1DE H 0.3049 0.3049 0.5448
H1I H 0.1951 0.1951 0.5448
O5A O 0.2181(2) 0.36600(17) 0.21813(17)
C1A C 0.2500(3) 0.3887 0.2500
C2A C 0.2500(3) 0.4462 0.2500
C3A C 0.2171(3) 0.4731(3) 0.2171(3)
H1A H 0.1951 0.4552 0.1951
O5TD O 0.28187(17) 0.36600(17) 0.2819(2)
C3D C 0.2171(3) 0.5269(3) 0.2171(3)
C2D C 0.2500 0.5538 0.2500(3)
C1D C 0.2500 0.6113 0.2500(3)
O5D O 0.21813(17) 0.63400(17) 0.2181(2)
O5QD O 0.2819(2) 0.63400(17) 0.28187(17)
C3QD C 0.2829(3) 0.5269(3) 0.2829(3)
C3TD C 0.2829(3) 0.4731(3) 0.2829(3)
H1TD H 0.3049 0.4552 0.3049
H1QD H 0.3049 0.5448 0.3049
H1D H 0.1951 0.5448 0.1951
Zn1G Zn 0.70662(3) 0.20662(3) 0.20662(3)
Zn1AA Zn 0.70662(3) 0.29338(3) 0.29338(3)
Zn1I Zn 0.20662(3) 0.20662(3) 0.70662(3)
Zn1T Zn 0.29338(3) 0.29338(3) 0.70662(3)
Zn1D Zn 0.20662(3) 0.70662(3) 0.20662(3)
Zn1R Zn 0.29338(3) 0.70662(3) 0.29338(3)
O1 O 0.1384(19) 0.1384(19) 0.1384(19)
loop_
_geom_bond_atom_site_label_1
_geom_bond_atom_site_label_2
_geom_bond_site_symmetry_1
_geom_bond_site_symmetry_2
Zn1 O4 1_555 1_555
O4 Zn1B 1_555 1_555
O5 Zn1 1_555 1_555
C1 O5 1_555 1_555
C2 C1 1_555 1_555
C3 C2 1_555 1_555
H1 C3 1_555 1_555
O5OD Zn1A 1_555 1_555
O5EE Zn1 1_555 1_555
O5ID Zn1B 1_555 1_555
O5ZD Zn1 1_555 1_555
O5KD C1 1_555 1_555
C3G C3 1_555 1_555
C2G C3G 1_555 1_555
C1G C2G 1_555 1_555
O5G C1G 1_555 1_555
O5DD C1G 1_555 1_555
C3DD C2G 1_555 1_555
C3KD C2 1_555 1_555
H1KD C3KD 1_555 1_555
H1DD C3DD 1_555 1_555
H1G C3G 1_555 1_555
Zn1B O5XD 1_555 1_555
Zn1A O4 1_555 1_555
Zn1TD O4 1_555 1_555
O5HE Zn1A 1_555 1_555
O5B Zn1B 1_555 1_555
C1B O5B 1_555 1_555
C2B C1B 1_555 1_555
C3B C2B 1_555 1_555
H1B C3B 1_555 1_555
O5KE Zn1TD 1_555 1_555
C3I C3B 1_555 1_555
C2I C3I 1_555 1_555
C1I C2I 1_555 1_555
O5I C1I 1_555 1_555
O5DE C1I 1_555 1_555
C3DE C2I 1_555 1_555
C3KE C2B 1_555 1_555
H1KE C3KE 1_555 1_555
H1DE C3DE 1_555 1_555
H1I C3I 1_555 1_555
O5A Zn1A 1_555 1_555
C1A O5A 1_555 1_555
C2A C1A 1_555 1_555
C3A C2A 1_555 1_555
H1A C3A 1_555 1_555
O5TD Zn1TD 1_555 1_555
C3D C3A 1_555 1_555
C2D C3D 1_555 1_555
C1D C2D 1_555 1_555
O5D C1D 1_555 1_555
O5QD C1D 1_555 1_555
C3QD C2D 1_555 1_555
C3TD C2A 1_555 1_555
H1TD C3TD 1_555 1_555
H1QD C3QD 1_555 1_555
H1D C3D 1_555 1_555
Zn1G O5G 1_555 1_555
Zn1AA O5DD 1_555 1_555
Zn1I O5I 1_555 1_555
Zn1T O5DE 1_555 1_555
Zn1D O5D 1_555 1_555
Zn1R O5QD 1_555 1_555
O5KD Zn1TD 1_555 1_555
C3DD C3KD 1_555 1_555
C1B O5KE 1_555 1_555
C3DE C3KE 1_555 1_555
C1A O5TD 1_555 1_555
C3QD C3TD 1_555 1_555

#END
