
#######################################################################
#
#                 Cambridge Crystallographic Data Centre
#                                CCDC 
#
#######################################################################
#
# If this CIF has been generated from an entry in the Cambridge 
# Structural Database, then it will include bibliographic, chemical, 
# crystal, experimental, refinement or atomic coordinate data resulting 
# from the CCDC's data processing and validation procedures.
#
#######################################################################

data_EFANOP
_symmetry_cell_setting           monoclinic
_symmetry_space_group_name_H-M   'P 21/a'
_symmetry_Int_Tables_number      14
_space_group_name_Hall           '-P 2yab'
loop_
_symmetry_equiv_pos_site_id
_symmetry_equiv_pos_as_xyz
1 x,y,z
2 1/2-x,1/2+y,-z
3 -x,-y,-z
4 1/2+x,1/2-y,z
_cell_length_a                   13.758(7)
_cell_length_b                   11.753(5)
_cell_length_c                   15.648(7)
_cell_angle_alpha                90
_cell_angle_beta                 111.588(3)
_cell_angle_gamma                90
_cell_volume                     2352.76
loop_
_atom_site_label
_atom_site_type_symbol
_atom_site_fract_x
_atom_site_fract_y
_atom_site_fract_z
Cd1 Cd -0.08671(6) 0.53639(6) -0.39894(5)
N1 N -0.0832(5) 0.3437(7) -0.3941(5)
O1 O -0.1746(5) 0.5572(6) 0.4502(4)
C1 C -0.0902(8) -0.2023(9) -0.4654(7)
H1 H -0.0928 -0.2422 -0.5183
C2 C -0.1312(7) 0.2803(8) -0.4697(7)
H2 H -0.1668 0.3188 -0.5251
C3 C -0.1318(8) 0.1625(8) -0.4717(6)
H3 H -0.1662 0.1242 -0.5274
C4 C -0.1405(7) 0.5195(8) 0.3909(6)
N2 N -0.0867(6) -0.2616(6) -0.3920(6)
C5 C -0.0305(9) 0.1673(8) -0.3136(7)
H4 H 0.0058 0.1302 -0.2577
C6 C -0.0317(8) 0.2832(8) -0.3159(7)
H5 H 0.0045 0.3232 -0.2614
C7 C -0.0901(9) -0.0864(8) -0.4675(8)
H6 H -0.0939 -0.0487 -0.5216
C8 C -0.0819(8) -0.2017(8) -0.3188(6)
H7 H -0.0783 -0.2414 -0.2656
C9 C -0.0845(7) -0.0240(7) -0.3917(6)
C10 C -0.0817(8) -0.0841(8) -0.3163(6)
H8 H -0.0798 -0.0459 -0.2629
C11 C -0.1880(8) 0.5649(10) 0.2962(6)
C12 C -0.1206(10) 0.5992(12) -0.0950(7)
H9 H -0.0497 0.5824 -0.0813
C13 C -0.2337(8) 0.6752(10) 0.2787(7)
H10 H -0.2415 0.7174 0.3268
C14 C -0.1786(9) 0.5030(11) 0.2241(7)
H11 H -0.1474 0.4306 0.2353
C15 C -0.0823(7) 0.1013(7) -0.3926(6)
C16 C -0.2152(10) 0.5476(13) 0.1346(7)
H12 H -0.2127 0.5032 0.0855
C17 C -0.2666(10) 0.7205(12) 0.1913(7)
H13 H -0.2967 0.7934 0.1802
C18 C -0.1526(11) 0.6376(12) -0.0245(8)
H14 H -0.1042 0.6429 0.0362
C19 C -0.2555(10) 0.6581(14) 0.1187(8)
C20 C -0.2905(13) 0.6176(14) -0.2021(8)
H15 H -0.3382 0.6130 -0.2632
C21 C -0.3272(12) 0.6574(16) -0.1352(8)
H16 H -0.3979 0.6767 -0.1508
C22 C -0.2570(12) 0.6677(14) -0.0454(9)
C23 C -0.2952(13) 0.7103(15) 0.0262(9)
O2 O -0.0609(5) 0.5386(6) -0.2423(5)
O3 O -0.2245(6) 0.5403(6) -0.3400(5)
C24 C -0.1563(9) 0.5507(8) -0.2600(7)
C25 C -0.1910(8) 0.5854(11) -0.1842(7)
O4 O -0.0717(6) 0.4443(6) 0.4078(5)
O5 O -0.3606(11) 0.7882(13) 0.0066(7)
Cd1B Cd 0.08671(6) 0.46361(6) 0.39894(5)
Cd1_2 Cd -0.08671(6) 0.53639(6) 0.60106(5)
Cd1_3 Cd -0.08671(6) -0.46361(6) -0.39894(5)
O1_2 O -0.1746(5) 0.5572(6) -0.5498(4)
N2_2 N -0.0867(6) 0.7384(6) -0.3920(6)
O4B O 0.0717(6) 0.5557(6) -0.4078(5)
loop_
_geom_bond_atom_site_label_1
_geom_bond_atom_site_label_2
_geom_bond_site_symmetry_1
_geom_bond_site_symmetry_2
Cd1 N1 1_555 1_555
N1 C2 1_555 1_555
O1 C4 1_555 1_555
C1 H1 1_555 1_555
C2 H2 1_555 1_555
C3 C2 1_555 1_555
H3 C3 1_555 1_555
C4 C11 1_555 1_555
N2 C1 1_555 1_555
C5 H4 1_555 1_555
C6 N1 1_555 1_555
H5 C6 1_555 1_555
C7 C1 1_555 1_555
H6 C7 1_555 1_555
C8 N2 1_555 1_555
H7 C8 1_555 1_555
C9 C7 1_555 1_555
C10 C8 1_555 1_555
H8 C10 1_555 1_555
C11 C13 1_555 1_555
C12 H9 1_555 1_555
C13 H10 1_555 1_555
C14 C11 1_555 1_555
H11 C14 1_555 1_555
C15 C3 1_555 1_555
C16 C14 1_555 1_555
H12 C16 1_555 1_555
C17 C13 1_555 1_555
H13 C17 1_555 1_555
C18 C12 1_555 1_555
H14 C18 1_555 1_555
C19 C16 1_555 1_555
C20 H15 1_555 1_555
C21 C20 1_555 1_555
H16 C21 1_555 1_555
C22 C18 1_555 1_555
C23 C19 1_555 1_555
O2 Cd1 1_555 1_555
O3 Cd1 1_555 1_555
C24 O2 1_555 1_555
C25 C12 1_555 1_555
O4 C4 1_555 1_555
O5 C23 1_555 1_555
Cd1B O4 1_555 1_555
Cd1_2 O1 1_555 1_555
Cd1_3 N2 1_555 1_555
O1_2 Cd1 1_555 1_555
N2_2 Cd1 1_555 1_555
O4B Cd1 1_555 1_555
C5 C6 1_555 1_555
C5 C15 1_555 1_555
C9 C10 1_555 1_555
C9 C15 1_555 1_555
C17 C19 1_555 1_555
C20 C25 1_555 1_555
C21 C22 1_555 1_555
C22 C23 1_555 1_555
O3 C24 1_555 1_555
C24 C25 1_555 1_555

#END
