
#######################################################################
#
#                 Cambridge Crystallographic Data Centre
#                                CCDC 
#
#######################################################################
#
# If this CIF has been generated from an entry in the Cambridge 
# Structural Database, then it will include bibliographic, chemical, 
# crystal, experimental, refinement or atomic coordinate data resulting 
# from the CCDC's data processing and validation procedures.
#
#######################################################################

data_EFOGOX
_symmetry_cell_setting           cubic
_symmetry_space_group_name_H-M   'I a -3 d'
_symmetry_Int_Tables_number      230
_space_group_name_Hall           '-I 4bd 2c 3'
loop_
_symmetry_equiv_pos_site_id
_symmetry_equiv_pos_as_xyz
1 x,y,z
2 1/4-y,3/4+x,1/4+z
3 1/2-x,-y,1/2+z
4 1/4+y,1/4-x,3/4+z
5 x,-y,1/2-z
6 1/4+y,3/4+x,3/4-z
7 1/2-x,y,-z
8 1/4-y,1/4-x,1/4-z
9 z,x,y
10 1/4-x,3/4+z,1/4+y
11 1/2-z,-x,1/2+y
12 1/4+x,1/4-z,3/4+y
13 z,-x,1/2-y
14 1/4+x,3/4+z,3/4-y
15 1/2-z,x,-y
16 1/4-x,1/4-z,1/4-y
17 y,z,x
18 1/4-z,1/4-y,1/4-x
19 3/4-z,1/4+y,3/4+x
20 3/4+z,1/4+y,1/4-x
21 1/4+z,1/4-y,3/4+x
22 y,-z,1/2-x
23 -y,1/2-z,x
24 -y,1/2+z,1/2-x
25 1/2+x,1/2+y,1/2+z
26 3/4-y,1/4+x,3/4+z
27 -x,1/2-y,z
28 3/4+y,3/4-x,1/4+z
29 1/2+x,1/2-y,-z
30 3/4+y,1/4+x,1/4-z
31 -x,1/2+y,1/2-z
32 3/4-y,3/4-x,3/4-z
33 1/2+z,1/2+x,1/2+y
34 3/4-x,1/4+z,3/4+y
35 -z,1/2-x,y
36 3/4+x,3/4-z,1/4+y
37 1/2+z,1/2-x,-y
38 3/4+x,1/4+z,1/4-y
39 -z,1/2+x,1/2-y
40 3/4-x,3/4-z,3/4-y
41 1/2+y,1/2+z,1/2+x
42 3/4-z,3/4-y,3/4-x
43 1/4-z,3/4+y,1/4+x
44 1/4+z,3/4+y,3/4-x
45 3/4+z,3/4-y,1/4+x
46 1/2+y,1/2-z,-x
47 1/2-y,-z,1/2+x
48 1/2-y,z,-x
49 -x,-y,-z
50 3/4+y,1/4-x,3/4-z
51 1/2+x,y,1/2-z
52 3/4-y,3/4+x,1/4-z
53 -x,y,1/2+z
54 3/4-y,1/4-x,1/4+z
55 1/2+x,-y,z
56 3/4+y,3/4+x,3/4+z
57 -z,-x,-y
58 3/4+x,1/4-z,3/4-y
59 1/2+z,x,1/2-y
60 3/4-x,3/4+z,1/4-y
61 -z,x,1/2+y
62 3/4-x,1/4-z,1/4+y
63 1/2+z,-x,y
64 3/4+x,3/4+z,3/4+y
65 -y,-z,-x
66 3/4+z,3/4+y,3/4+x
67 1/4+z,3/4-y,1/4-x
68 1/4-z,3/4-y,3/4+x
69 3/4-z,3/4+y,1/4-x
70 -y,z,1/2+x
71 y,1/2+z,-x
72 y,1/2-z,1/2+x
73 1/2-x,1/2-y,1/2-z
74 1/4+y,3/4-x,1/4-z
75 x,1/2+y,-z
76 1/4-y,1/4+x,3/4-z
77 1/2-x,1/2+y,z
78 1/4-y,3/4-x,3/4+z
79 x,1/2-y,1/2+z
80 1/4+y,1/4+x,1/4+z
81 1/2-z,1/2-x,1/2-y
82 1/4+x,3/4-z,1/4-y
83 z,1/2+x,-y
84 1/4-x,1/4+z,3/4-y
85 1/2-z,1/2+x,y
86 1/4-x,3/4-z,3/4+y
87 z,1/2-x,1/2+y
88 1/4+x,1/4+z,1/4+y
89 1/2-y,1/2-z,1/2-x
90 1/4+z,1/4+y,1/4+x
91 3/4+z,1/4-y,3/4-x
92 3/4-z,1/4-y,1/4+x
93 1/4-z,1/4+y,3/4-x
94 1/2-y,1/2+z,x
95 1/2+y,z,1/2-x
96 1/2+y,-z,x
_cell_length_a                   31.8181(5)
_cell_length_b                   31.8181(5)
_cell_length_c                   31.8181(5)
_cell_angle_alpha                90
_cell_angle_beta                 90
_cell_angle_gamma                90
_cell_volume                     32212.4
loop_
_atom_site_label
_atom_site_type_symbol
_atom_site_fract_x
_atom_site_fract_y
_atom_site_fract_z
Cd1 Cd 0.6250 1.0000 0.7500
N1 N 0.70592(14) 0.95375(13) 0.73778(13)
N2 N 0.65438(13) 1.00016(14) 0.68634(13)
N3 N 0.70759(13) 1.00463(13) 0.64208(13)
C1 C 0.77827(17) 0.94140(18) 0.76382(17)
H1 H 0.7895 0.9589 0.7424
C2 C 0.8045(2) 0.9229(2) 0.7933(2)
H2 H 0.8340 0.9274 0.7921
C3 C 0.7875(2) 0.8977(2) 0.8242(2)
H3 H 0.8054 0.8852 0.8445
C4 C 0.7443(2) 0.8904(2) 0.8261(2)
H4 H 0.7330 0.8727 0.8472
C5 C 0.7180(2) 0.90930(18) 0.79675(18)
H5 H 0.6884 0.9052 0.7980
C6 C 0.73540(18) 0.93399(16) 0.76604(17)
N4 N 0.72275(13) 0.96869(13) 0.70500(13)
C7 C 0.69431(17) 0.98991(16) 0.67959(16)
C8 C 0.64175(18) 1.02161(17) 0.65150(17)
H6 H 0.6144 1.0327 0.6472
C9 C 0.67438(19) 1.02484(17) 0.62363(17)
H7 H 0.6740 1.0383 0.5970
C10 C 0.74919(16) 0.99919(16) 0.6250
H8 H 0.7703 1.0040 0.6474
N1CA N 0.70375(13) 0.95592(14) 0.51222(13)
N2CA N 0.75016(14) 0.90438(13) 0.56366(13)
N3CA N 0.75463(13) 0.95759(13) 0.60792(13)
C1CA C 0.69140(18) 1.02827(17) 0.48618(17)
H1CA H 0.7089 1.0395 0.5076
C2CA C 0.6729(2) 1.0545(2) 0.4567(2)
H2CA H 0.6774 1.0840 0.4579
C3CA C 0.6477(2) 1.0375(2) 0.4258(2)
H3CA H 0.6352 1.0554 0.4055
C4CA C 0.6404(2) 0.9943(2) 0.4239(2)
H4CA H 0.6227 0.9830 0.4028
C5CA C 0.65930(18) 0.9680(2) 0.45325(18)
H5CA H 0.6552 0.9384 0.4520
C6CA C 0.68399(16) 0.98540(18) 0.48396(17)
N4CA N 0.71869(13) 0.97275(13) 0.54500(13)
C7CA C 0.73991(16) 0.94431(17) 0.57041(16)
C8CA C 0.77161(17) 0.89175(18) 0.59850(17)
H6CA H 0.7827 0.8644 0.6028
C9CA C 0.77484(17) 0.92438(19) 0.62637(17)
H7CA H 0.7883 0.9240 0.6530
H8CA H 0.7540 1.0203 0.6026
N1EC N 0.54408(14) 0.98778(13) 0.79625(13)
N2EC N 0.59562(13) 0.93634(13) 0.74984(14)
N3EC N 0.54241(13) 0.89208(13) 0.74537(13)
C1EC C 0.47173(17) 1.01382(17) 0.80860(18)
H1EC H 0.4605 0.9924 0.7911
C2EC C 0.4455(2) 1.0433(2) 0.8271(2)
H2EC H 0.4160 1.0421 0.8226
C3EC C 0.4625(2) 1.0742(2) 0.8523(2)
H3EC H 0.4446 1.0945 0.8648
C4EC C 0.5057(2) 1.0761(2) 0.8596(2)
H4EC H 0.5170 1.0972 0.8773
C5EC C 0.5320(2) 1.04675(18) 0.84070(18)
H5EC H 0.5616 1.0480 0.8448
C6EC C 0.51460(18) 1.01604(17) 0.81601(16)
N4EC N 0.52725(13) 0.95500(13) 0.78131(13)
C7EC C 0.55569(17) 0.92959(16) 0.76009(16)
C8EC C 0.60825(18) 0.90150(17) 0.72839(17)
H6EC H 0.6356 0.8972 0.7173
C9EC C 0.57562(19) 0.87363(17) 0.72516(17)
H7EC H 0.5760 0.8470 0.7117
C10EC C 0.50081(16) 0.8750 0.75081(16)
H8EC H 0.4797 0.8974 0.7460
N1JC N 0.54625(13) 0.76222(13) 0.79408(14)
N2JC N 0.49984(14) 0.81366(13) 0.84562(13)
N3JC N 0.49537(13) 0.85792(13) 0.79241(13)
C1JC C 0.55860(18) 0.73618(17) 0.72173(17)
H1JC H 0.5411 0.7576 0.7105
C2JC C 0.5771(2) 0.7067(2) 0.6955(2)
H2JC H 0.5726 0.7079 0.6660
C3JC C 0.6023(2) 0.6758(2) 0.7125(2)
H3JC H 0.6148 0.6555 0.6946
C4JC C 0.6096(2) 0.6739(2) 0.7557(2)
H4JC H 0.6273 0.6528 0.7670
C5JC C 0.59070(18) 0.70325(18) 0.7820(2)
H5JC H 0.5948 0.7020 0.8116
C6JC C 0.56601(16) 0.73396(17) 0.76460(18)
N4JC N 0.53131(13) 0.79500(13) 0.77725(13)
C7JC C 0.51009(16) 0.82041(16) 0.80569(17)
C8JC C 0.47839(17) 0.84850(17) 0.85825(18)
H6JC H 0.4673 0.8528 0.8856
C9JC C 0.47516(17) 0.87637(17) 0.82562(19)
H7JC H 0.4617 0.9030 0.8260
H8JC H 0.4960 0.8526 0.7297
Cd1Y Cd 0.7500 0.8750 0.5000
Cd1PA Cd 0.5000 0.7500 0.8750
N2D N 0.65438(13) 0.99984(14) 0.81366(13)
N2GC N 0.59562(13) 1.06366(13) 0.75016(14)
Cl1 Cl 0.94100(5) 0.80900(5) 0.3750
O1 O 0.94014(18) 0.84532(15) 0.40225(15)
O2 O 0.93954(16) 0.77195(14) 0.40053(14)
O1EA O 0.90468(15) 0.80986(18) 0.34775(15)
O2EA O 0.97805(14) 0.81046(16) 0.34947(14)
O3 O 0.9649(2) 0.9087(2) 0.4720(3)
O4 O 0.8750 0.8525(4) 0.6025(4)
H9 H 0.898(6) 0.870(5) 0.586(3)
H9GA H 0.852(6) 0.836(3) 0.620(5)
O5 O 0.9385(3) 0.8968(3) 0.5490(3)
O6 O 1.0273(3) 0.9727(3) 0.4727(3)
H10? H 0.7703 1.0040 0.6474
loop_
_geom_bond_atom_site_label_1
_geom_bond_atom_site_label_2
_geom_bond_site_symmetry_1
_geom_bond_site_symmetry_2
Cd1 N2 1_555 1_555
N1 C6 1_555 1_555
N2 C7 1_555 1_555
N3 C7 1_555 1_555
C1 H1 1_555 1_555
C2 C1 1_555 1_555
H2 C2 1_555 1_555
C3 C2 1_555 1_555
H3 C3 1_555 1_555
C4 C3 1_555 1_555
H4 C4 1_555 1_555
C5 C4 1_555 1_555
H5 C5 1_555 1_555
C6 C1 1_555 1_555
N4 N1 1_555 1_555
C7 N4 1_555 1_555
C8 N2 1_555 1_555
H6 C8 1_555 1_555
C9 N3 1_555 1_555
H7 C9 1_555 1_555
C10 N3 1_555 1_555
H8 C10 1_555 1_555
Cl1 O1 1_555 1_555
O2 Cl1 1_555 1_555
O4 H9 1_555 1_555
N1CA C6CA 1_555 1_555
N2CA C7CA 1_555 1_555
N3CA C10 1_555 1_555
C1CA H1CA 1_555 1_555
C2CA C1CA 1_555 1_555
H2CA C2CA 1_555 1_555
C3CA C2CA 1_555 1_555
H3CA C3CA 1_555 1_555
C4CA C3CA 1_555 1_555
H4CA C4CA 1_555 1_555
C5CA C4CA 1_555 1_555
H5CA C5CA 1_555 1_555
C6CA C1CA 1_555 1_555
N4CA N1CA 1_555 1_555
C7CA N3CA 1_555 1_555
C8CA N2CA 1_555 1_555
H6CA C8CA 1_555 1_555
C9CA N3CA 1_555 1_555
H7CA C9CA 1_555 1_555
H8CA C10 1_555 1_555
N1EC C6EC 1_555 1_555
N2EC Cd1 1_555 1_555
N3EC C7EC 1_555 1_555
C1EC H1EC 1_555 1_555
C2EC C1EC 1_555 1_555
H2EC C2EC 1_555 1_555
C3EC C2EC 1_555 1_555
H3EC C3EC 1_555 1_555
C4EC C3EC 1_555 1_555
H4EC C4EC 1_555 1_555
C5EC C4EC 1_555 1_555
H5EC C5EC 1_555 1_555
C6EC C1EC 1_555 1_555
N4EC N1EC 1_555 1_555
C7EC N2EC 1_555 1_555
C8EC N2EC 1_555 1_555
H6EC C8EC 1_555 1_555
C9EC N3EC 1_555 1_555
H7EC C9EC 1_555 1_555
C10EC N3EC 1_555 1_555
H8EC C10EC 1_555 1_555
N1JC C6JC 1_555 1_555
N2JC C7JC 1_555 1_555
N3JC C10EC 1_555 1_555
C1JC H1JC 1_555 1_555
C2JC C1JC 1_555 1_555
H2JC C2JC 1_555 1_555
C3JC C2JC 1_555 1_555
H3JC C3JC 1_555 1_555
C4JC C3JC 1_555 1_555
H4JC C4JC 1_555 1_555
C5JC C4JC 1_555 1_555
H5JC C5JC 1_555 1_555
C6JC C1JC 1_555 1_555
N4JC N1JC 1_555 1_555
C7JC N3JC 1_555 1_555
C8JC N2JC 1_555 1_555
H6JC C8JC 1_555 1_555
C9JC N3JC 1_555 1_555
H7JC C9JC 1_555 1_555
H8JC C10EC 1_555 1_555
Cd1Y N2CA 1_555 1_555
Cd1PA N2JC 1_555 1_555
N2D Cd1 1_555 1_555
N2GC Cd1 1_555 1_555
O1EA Cl1 1_555 1_555
O2EA Cl1 1_555 1_555
H9GA O4 1_555 1_555
C5 C6 1_555 1_555
C8 C9 1_555 1_555
C5CA C6CA 1_555 1_555
N4CA C7CA 1_555 1_555
C8CA C9CA 1_555 1_555
C5EC C6EC 1_555 1_555
N4EC C7EC 1_555 1_555
C8EC C9EC 1_555 1_555
C5JC C6JC 1_555 1_555
N4JC C7JC 1_555 1_555
C8JC C9JC 1_555 1_555

#END
