
#######################################################################
#
#                 Cambridge Crystallographic Data Centre
#                                CCDC 
#
#######################################################################
#
# If this CIF has been generated from an entry in the Cambridge 
# Structural Database, then it will include bibliographic, chemical, 
# crystal, experimental, refinement or atomic coordinate data resulting 
# from the CCDC's data processing and validation procedures.
#
#######################################################################

data_EGABAR
_symmetry_cell_setting           monoclinic
_symmetry_space_group_name_H-M   'C 2/c'
_symmetry_Int_Tables_number      15
_space_group_name_Hall           '-C 2yn'
loop_
_symmetry_equiv_pos_site_id
_symmetry_equiv_pos_as_xyz
1 x,y,z
2 -x,y,1/2-z
3 1/2+x,1/2+y,z
4 1/2-x,1/2+y,1/2-z
5 -x,-y,-z
6 x,-y,1/2+z
7 1/2-x,1/2-y,-z
8 1/2+x,1/2-y,1/2+z
_cell_length_a                   11.126(2)
_cell_length_b                   17.361(4)
_cell_length_c                   16.119(3)
_cell_angle_alpha                90
_cell_angle_beta                 102.40(3)
_cell_angle_gamma                90
_cell_volume                     3040.89
loop_
_atom_site_label
_atom_site_type_symbol
_atom_site_fract_x
_atom_site_fract_y
_atom_site_fract_z
Cd1 Cd -0.84157(5) 0.44530(3) -0.11675(3)
Cd2 Cd -0.66443(4) 0.40609(3) 0.09503(3)
O1 O -0.8234(5) 0.5592(3) -0.1862(3)
O2 O -0.7554(7) 0.4197(3) -0.2313(4)
O3 O -0.9758(4) 0.4917(3) 0.1106(3)
O4 O -0.5295(6) 0.1613(5) 0.1479(6)
O5 O -0.8664(4) 0.4439(3) 0.0217(3)
O6 O -0.6576(5) 0.4881(4) -0.0248(4)
O7 O -0.7763(11) 0.1690(7) 0.0908(10)
O8 O -0.6756(5) 0.4739(3) -0.3322(4)
O9 O -0.7725(7) 0.2855(5) 0.0903(5)
O10 O -0.5332(11) 0.2998(6) 0.1201(9)
O11 O -0.7266(5) 0.6136(3) -0.2769(3)
O12 O -0.5344(5) 0.5461(4) -0.0970(4)
C1 C -0.7618(6) 0.5561(4) -0.2416(4)
C2 C -0.9558(6) 0.4821(4) 0.0388(4)
C3 C -0.5540(6) 0.5096(4) -0.0357(5)
C4 C -0.7285(7) 0.4765(4) -0.2723(5)
C5 C -0.7258(15) 0.2361(11) 0.0947(11)
C6 C -0.5842(16) 0.2351(9) 0.1179(11)
O3D O -1.0242(4) 0.5083(3) -0.1106(3)
O5D O -1.1336(4) 0.5561(3) -0.0217(3)
C2D C -1.0442(6) 0.5179(4) -0.0388(4)
O6D O -0.3424(5) 0.5119(4) 0.0248(4)
O12D O -0.4656(5) 0.4539(4) 0.0970(4)
C3D C -0.4460(6) 0.4904(4) 0.0357(5)
Cd1D Cd -1.15843(5) 0.55470(3) 0.11675(3)
Cd2D Cd -1.33557(4) 0.59391(3) -0.09503(3)
O1D O -1.1766(5) 0.4408(3) 0.1862(3)
O2D O -1.2446(7) 0.5803(3) 0.2313(4)
O4D O -1.4705(6) 0.8387(5) -0.1479(6)
O7D O -1.2237(11) 0.8310(7) -0.0908(10)
O8D O -1.3244(5) 0.5261(3) 0.3322(4)
O9D O -1.2275(7) 0.7145(5) -0.0903(5)
O10D O -1.4668(11) 0.7002(6) -0.1201(9)
O11D O -1.2734(5) 0.3864(3) 0.2769(3)
C1D C -1.2382(6) 0.4439(4) 0.2416(4)
C4D C -1.2715(7) 0.5235(4) 0.2723(5)
C5D C -1.2742(15) 0.7639(11) -0.0947(11)
C6D C -1.4158(16) 0.7649(9) -0.1179(11)
Cd1B Cd -1.34157(5) 0.94530(3) -0.11675(3)
Cd1D_2 Cd -0.15843(5) 0.55470(3) 0.11675(3)
Cd1F Cd -0.65843(5) 0.05470(3) 0.11675(3)
Cd2A Cd -1.33557(4) 0.40609(3) 0.40497(3)
Cd2D_2 Cd -0.33557(4) 0.59391(3) -0.09503(3)
Cd2E Cd -0.66443(4) 0.59391(3) -0.40497(3)
O4B O -1.0295(6) 0.6613(5) 0.1479(6)
O4F O -0.9705(6) 0.3387(5) -0.1479(6)
O6D_2 O -1.3424(5) 0.5119(4) 0.0248(4)
O7B O -1.2763(11) 0.6690(7) 0.0908(10)
O7F O -0.7237(11) 0.3310(7) -0.0908(10)
O8A O -1.3244(5) 0.4739(3) -0.1678(4)
O8E O -0.6756(5) 0.5261(3) 0.1678(4)
O11A O -1.2734(5) 0.6136(3) -0.2231(3)
O11E O -0.7266(5) 0.3864(3) 0.2231(3)
O12_2 O -1.5344(5) 0.5461(4) -0.0970(4)
Co1 Co -0.5000 0.73751(7) 0.2500
N1 N -0.5004(6) 0.6581(4) 0.1618(5)
H1 H -0.5010 0.6115 0.1847
H2 H -0.4334 0.6633 0.1405
H3 H -0.5671 0.6638 0.1205
N2 N -0.6804(6) 0.7376(3) 0.2211(4)
H4 H -0.7086 0.7711 0.2540
H5 H -0.7081 0.6907 0.2291
H6 H -0.7063 0.7510 0.1669
N3 N -0.4987(6) 0.8173(4) 0.1638(5)
H7 H -0.4981 0.8636 0.1876
H8 H -0.5655 0.8126 0.1224
H9 H -0.4318 0.8119 0.1424
N1A N -0.4996(6) 0.6581(4) 0.3382(5)
H1A H -0.4990 0.6115 0.3153
H2A H -0.5666 0.6633 0.3595
H3A H -0.4329 0.6638 0.3795
N2A N -0.3196(6) 0.7376(3) 0.2789(4)
H4A H -0.2914 0.7711 0.2460
H5A H -0.2919 0.6907 0.2709
H6A H -0.2937 0.7510 0.3331
N3A N -0.5013(6) 0.8173(4) 0.3362(5)
H7A H -0.5019 0.8636 0.3124
H8A H -0.4345 0.8126 0.3776
H9A H -0.5682 0.8119 0.3576
O13 O -0.6740(13) 0.6860(8) -0.0420(10)
O14 O -0.8295(11) 0.6379(6) 0.0567(8)
O15? O -0.8046(11) 0.1629(6) 0.0348(8)
O16? O -0.5114(12) 0.3209(8) 0.1897(10)
C7? C -0.7688(13) 0.2325(7) 0.0403(12)
loop_
_geom_bond_atom_site_label_1
_geom_bond_atom_site_label_2
_geom_bond_site_symmetry_1
_geom_bond_site_symmetry_2
Cd1 O1 1_555 1_555
Cd2 O5 1_555 1_555
O1 C1 1_555 1_555
O2 Cd1 1_555 1_555
O3 C2 1_555 1_555
O4 C6 1_555 1_555
O5 Cd1 1_555 1_555
O6 Cd1 1_555 1_555
O7 C5 1_555 1_555
O8 C4 1_555 1_555
O9 Cd2 1_555 1_555
O10 Cd2 1_555 1_555
O11 C1 1_555 1_555
O12 C3 1_555 1_555
C1 C4 1_555 1_555
C2 O5 1_555 1_555
C3 O6 1_555 1_555
C4 O2 1_555 1_555
C5 O9 1_555 1_555
C6 O10 1_555 1_555
Co1 N1 1_555 1_555
N1 H1 1_555 1_555
H2 N1 1_555 1_555
H3 N1 1_555 1_555
N2 Co1 1_555 1_555
H4 N2 1_555 1_555
H5 N2 1_555 1_555
H6 N2 1_555 1_555
N3 Co1 1_555 1_555
H7 N3 1_555 1_555
H8 N3 1_555 1_555
H9 N3 1_555 1_555
O3D Cd1 1_555 1_555
O5D C2D 1_555 1_555
C2D C2 1_555 1_555
O6D C3D 1_555 1_555
O12D Cd2 1_555 1_555
C3D C3 1_555 1_555
Cd1D O3 1_555 1_555
Cd2D O5D 1_555 1_555
O1D Cd1D 1_555 1_555
O2D Cd1D 1_555 1_555
O4D C6D 1_555 1_555
O7D C5D 1_555 1_555
O8D C4D 1_555 1_555
O9D Cd2D 1_555 1_555
O10D Cd2D 1_555 1_555
O11D C1D 1_555 1_555
C1D O1D 1_555 1_555
C4D O2D 1_555 1_555
C5D O9D 1_555 1_555
C6D O10D 1_555 1_555
Cd1B O4D 1_555 1_555
Cd1D_2 O6D 1_555 1_555
Cd1F O4 1_555 1_555
Cd2A O8D 1_555 1_555
Cd2D_2 O12 1_555 1_555
Cd2E O8 1_555 1_555
O4B Cd1D 1_555 1_555
O4F Cd1 1_555 1_555
O6D_2 Cd1D 1_555 1_555
O7B Cd1D 1_555 1_555
O7F Cd1 1_555 1_555
O8A Cd2D 1_555 1_555
O8E Cd2 1_555 1_555
O11A Cd2D 1_555 1_555
O11E Cd2 1_555 1_555
O12_2 Cd2D 1_555 1_555
N1A Co1 1_555 1_555
H1A N1A 1_555 1_555
H2A N1A 1_555 1_555
H3A N1A 1_555 1_555
N2A Co1 1_555 1_555
H4A N2A 1_555 1_555
H5A N2A 1_555 1_555
H6A N2A 1_555 1_555
N3A Co1 1_555 1_555
H7A N3A 1_555 1_555
H8A N3A 1_555 1_555
H9A N3A 1_555 1_555
Cd2 O6 1_555 1_555
O7 Cd1F 1_555 1_555
O11 Cd2E 1_555 1_555
C5 C6 1_555 1_555
O3D C2D 1_555 1_555
O5D Cd1D 1_555 1_555
O6D Cd2D_2 1_555 1_555
O12D C3D 1_555 1_555
Cd2D O6D_2 1_555 1_555
O7D Cd1B 1_555 1_555
O11D Cd2A 1_555 1_555
C1D C4D 1_555 1_555
C5D C6D 1_555 1_555

#END
