
#######################################################################
#
#                 Cambridge Crystallographic Data Centre
#                                CCDC 
#
#######################################################################
#
# If this CIF has been generated from an entry in the Cambridge 
# Structural Database, then it will include bibliographic, chemical, 
# crystal, experimental, refinement or atomic coordinate data resulting 
# from the CCDC's data processing and validation procedures.
#
#######################################################################

data_EGAFUP
_symmetry_cell_setting           triclinic
_symmetry_space_group_name_H-M   'P -1'
_symmetry_Int_Tables_number      2
_space_group_name_Hall           '-P 1'
loop_
_symmetry_equiv_pos_site_id
_symmetry_equiv_pos_as_xyz
1 x,y,z
2 -x,-y,-z
_cell_length_a                   9.1400(5)
_cell_length_b                   11.1538(3)
_cell_length_c                   11.2716(6)
_cell_angle_alpha                77.261(3)
_cell_angle_beta                 68.453(5)
_cell_angle_gamma                78.843(3)
_cell_volume                     1034.43
loop_
_atom_site_label
_atom_site_type_symbol
_atom_site_fract_x
_atom_site_fract_y
_atom_site_fract_z
Nd1 Nd 0.73063(2) 0.017910(18) 0.019351(19)
S1 S 0.69499(13) 0.11981(10) 0.49523(10)
O1 O 0.4287(3) 0.0720(3) 0.7528(3)
O2 O 0.5361(4) 0.2073(3) 0.0631(3)
C1 C 0.5575(4) 0.0729(3) 0.7665(4)
S2 S 0.91645(14) -0.26390(10) 0.43742(11)
O3 O 0.5703(3) 0.0464(3) 0.8781(2)
O4 O 0.7803(3) 0.1323(3) 0.1640(3)
C2 C 0.7062(4) 0.1012(4) 0.6534(4)
H1 H 0.7902 0.0350 0.6604
H2 H 0.7371 0.1767 0.6615
S3 S 0.8486(2) -0.44608(13) -0.12460(19)
O5 O 0.9416(4) -0.1040(3) 0.0940(3)
C3 C 0.7114(5) -0.0412(4) 0.4816(4)
H3 H 0.6461 -0.0852 0.5622
H4 H 0.6729 -0.0470 0.4138
O6 O 1.1443(3) -0.1830(3) 0.1578(3)
C4 C 0.8828(5) -0.1015(4) 0.4506(4)
H5 H 0.9208 -0.0920 0.5175
H6 H 0.9463 -0.0567 0.3697
O7 O 0.9149(3) -0.0964(2) -0.1655(3)
C5 C 0.8944(5) -0.2578(4) 0.2834(4)
H7 H 0.9160 -0.3413 0.2641
H8 H 0.7851 -0.2275 0.2907
O8 O 0.7335(3) -0.2042(2) -0.0155(3)
C6 C 1.0009(4) -0.1770(3) 0.1718(4)
C7 C 0.9127(7) -0.4864(6) 0.0179(7)
H9 H 0.8755 -0.4182 0.0664
H10 H 0.8646 -0.5583 0.0734
C8 C 0.9166(7) -0.3008(4) -0.1972(5)
H11 H 1.0308 -0.3120 -0.2193
H12 H 0.8945 -0.2754 -0.2776
C9 C 0.8488(5) -0.1946(4) -0.1195(4)
S3A S 1.1514(2) -0.55392(13) 0.12460(19)
O7A O 1.0851(3) -0.9036(2) 0.1655(3)
O8A O 1.2665(3) -0.7958(2) 0.0155(3)
C7A C 1.0873(7) -0.5136(6) -0.0179(7)
H9A H 1.1245 -0.5818 -0.0664
H10A H 1.1354 -0.4417 -0.0734
C8A C 1.0834(7) -0.6992(4) 0.1972(5)
H11A H 0.9692 -0.6880 0.2193
H12A H 1.1055 -0.7246 0.2776
C9A C 1.1512(5) -0.8054(4) 0.1195(4)
Nd1A Nd 0.26937(2) -0.017910(18) 0.980649(19)
S1A S 0.30501(13) -0.11981(10) 0.50477(10)
O1A O 0.5713(3) -0.0720(3) 0.2472(3)
O2A O 0.4639(4) -0.2073(3) 0.9369(3)
C1A C 0.4425(4) -0.0729(3) 0.2335(4)
S2A S 0.08355(14) 0.26390(10) 0.56258(11)
O3A O 0.4297(3) -0.0464(3) 0.1219(2)
O4A O 0.2197(3) -0.1323(3) 0.8360(3)
C2A C 0.2938(4) -0.1012(4) 0.3466(4)
H1A H 0.2098 -0.0350 0.3396
H2A H 0.2629 -0.1767 0.3385
O5A O 0.0584(4) 0.1040(3) 0.9060(3)
C3A C 0.2886(5) 0.0412(4) 0.5184(4)
H3A H 0.3539 0.0852 0.4378
H4A H 0.3271 0.0470 0.5862
O6A O -0.1443(3) 0.1830(3) 0.8422(3)
C4A C 0.1172(5) 0.1015(4) 0.5494(4)
H5A H 0.0792 0.0920 0.4825
H6A H 0.0537 0.0567 0.6303
C5A C 0.1056(5) 0.2578(4) 0.7166(4)
H7A H 0.0840 0.3413 0.7359
H8A H 0.2149 0.2275 0.7093
C6A C -0.0009(4) 0.1770(3) 0.8282(4)
Nd1_2 Nd -0.26937(2) 0.017910(18) 1.019351(19)
Nd1_3 Nd 0.73063(2) 0.017910(18) 1.019351(19)
Nd1A_2 Nd 0.26937(2) -0.017910(18) -0.019351(19)
Nd1A_3 Nd 1.26937(2) -1.017910(18) -0.019351(19)
Nd1A_4 Nd 1.26937(2) -0.017910(18) -0.019351(19)
O3_2 O 0.5703(3) 0.0464(3) -0.1219(2)
O3A_2 O 0.4297(3) -0.0464(3) 1.1219(2)
O6_2 O 0.1443(3) -0.1830(3) 1.1578(3)
O6A_2 O 0.8557(3) 0.1830(3) -0.1578(3)
O7A_2 O 0.0851(3) 0.0964(2) 1.1655(3)
O8A_2 O 0.2665(3) 0.2042(2) 1.0155(3)
N1 N 0.5730(5) -0.4957(4) -0.3275(5)
O9 O 0.4154(6) -0.3433(4) -0.2229(5)
C10 C 0.5093(7) -0.3814(5) -0.3226(7)
H13 H 0.5359 -0.3244 -0.3986
C11 C 0.5443(10) -0.5886(6) -0.2112(7)
H14 H 0.4745 -0.5511 -0.1382
H15 H 0.6430 -0.6224 -0.1979
H16 H 0.4964 -0.6537 -0.2207
C12 C 0.6802(9) -0.5348(6) -0.4481(7)
H17 H 0.6898 -0.4656 -0.5172
H18 H 0.6389 -0.5990 -0.4662
H19 H 0.7825 -0.5658 -0.4405
loop_
_geom_bond_atom_site_label_1
_geom_bond_atom_site_label_2
_geom_bond_site_symmetry_1
_geom_bond_site_symmetry_2
Nd1 O2 1_555 1_555
S1 C2 1_555 1_555
O1 C1 1_555 1_555
C1 O3 1_555 1_555
S2 C4 1_555 1_555
O3 Nd1A 1_555 1_555
O4 Nd1 1_555 1_555
C2 C1 1_555 1_555
H1 C2 1_555 1_555
H2 C2 1_555 1_555
S3 C7 1_555 1_555
O5 Nd1 1_555 1_555
C3 S1 1_555 1_555
H3 C3 1_555 1_555
H4 C3 1_555 1_555
O6 C6 1_555 1_555
C4 C3 1_555 1_555
H5 C4 1_555 1_555
H6 C4 1_555 1_555
O7 Nd1 1_555 1_555
C5 S2 1_555 1_555
H7 C5 1_555 1_555
H8 C5 1_555 1_555
O8 Nd1 1_555 1_555
C6 O5 1_555 1_555
C7 H9 1_555 1_555
H10 C7 1_555 1_555
C8 S3 1_555 1_555
H11 C8 1_555 1_555
H12 C8 1_555 1_555
C9 O7 1_555 1_555
N1 C10 1_555 1_555
O9 C10 1_555 1_555
C10 H13 1_555 1_555
C11 N1 1_555 1_555
H14 C11 1_555 1_555
H15 C11 1_555 1_555
H16 C11 1_555 1_555
C12 N1 1_555 1_555
H17 C12 1_555 1_555
H18 C12 1_555 1_555
H19 C12 1_555 1_555
S3A C7A 1_555 1_555
O7A C9A 1_555 1_555
O8A C9A 1_555 1_555
C7A C7 1_555 1_555
H9A C7A 1_555 1_555
H10A C7A 1_555 1_555
C8A S3A 1_555 1_555
H11A C8A 1_555 1_555
H12A C8A 1_555 1_555
C9A C8A 1_555 1_555
Nd1A O1 1_555 1_555
S1A C2A 1_555 1_555
O1A Nd1 1_555 1_555
O2A Nd1A 1_555 1_555
C1A O1A 1_555 1_555
S2A C4A 1_555 1_555
O3A Nd1 1_555 1_555
O4A Nd1A 1_555 1_555
C2A C1A 1_555 1_555
H1A C2A 1_555 1_555
H2A C2A 1_555 1_555
O5A Nd1A 1_555 1_555
C3A S1A 1_555 1_555
H3A C3A 1_555 1_555
H4A C3A 1_555 1_555
O6A C6A 1_555 1_555
C4A C3A 1_555 1_555
H5A C4A 1_555 1_555
H6A C4A 1_555 1_555
C5A S2A 1_555 1_555
H7A C5A 1_555 1_555
H8A C5A 1_555 1_555
C6A O5A 1_555 1_555
Nd1_2 O6A 1_555 1_555
Nd1_3 O3 1_555 1_555
Nd1A_2 O3A 1_555 1_555
Nd1A_3 O7A 1_555 1_555
Nd1A_4 O6 1_555 1_555
O3_2 Nd1 1_555 1_555
O3A_2 Nd1A 1_555 1_555
O6_2 Nd1A 1_555 1_555
O6A_2 Nd1 1_555 1_555
O7A_2 Nd1A 1_555 1_555
O8A_2 Nd1A 1_555 1_555
C5 C6 1_555 1_555
O8 C9 1_555 1_555
C8 C9 1_555 1_555
O8A Nd1A_3 1_555 1_555
C1A O3A 1_555 1_555
C5A C6A 1_555 1_555
Nd1_3 O3A_2 1_555 1_555
Nd1A_2 O3_2 1_555 1_555

#END
