
#######################################################################
#
#                 Cambridge Crystallographic Data Centre
#                                CCDC 
#
#######################################################################
#
# If this CIF has been generated from an entry in the Cambridge 
# Structural Database, then it will include bibliographic, chemical, 
# crystal, experimental, refinement or atomic coordinate data resulting 
# from the CCDC's data processing and validation procedures.
#
#######################################################################

data_EGAGAW
_symmetry_cell_setting           triclinic
_symmetry_space_group_name_H-M   'P -1'
_symmetry_Int_Tables_number      2
_space_group_name_Hall           '-P 1'
loop_
_symmetry_equiv_pos_site_id
_symmetry_equiv_pos_as_xyz
1 x,y,z
2 -x,-y,-z
_cell_length_a                   9.1686(5)
_cell_length_b                   11.1145(7)
_cell_length_c                   11.1899(8)
_cell_angle_alpha                77.156(6)
_cell_angle_beta                 68.195(6)
_cell_angle_gamma                78.350(5)
_cell_volume                     1023.21
loop_
_atom_site_label
_atom_site_type_symbol
_atom_site_fract_x
_atom_site_fract_y
_atom_site_fract_z
Eu1 Eu 0.72641(4) 0.51635(3) 0.52012(3)
S1 S 0.0778(2) 0.76299(16) 1.06503(17)
O1 O -0.1381(5) 0.6744(4) 1.3489(4)
O2 O 0.5379(5) 0.7043(4) 0.5619(5)
C1 C 0.0055(7) 0.6736(5) 1.3319(6)
S2 S 0.3059(2) 0.37920(15) 1.00618(16)
O3 O 0.0721(5) 0.6050(4) 1.4057(5)
O4 O 0.7818(5) 0.6299(4) 0.6593(4)
C2 C 0.1034(7) 0.7583(6) 1.2172(6)
H1 H 0.2144 0.7318 1.2065
H2 H 0.0772 0.8421 1.2376
S3 S 0.8485(3) 0.0555(2) 0.3754(3)
O5 O 0.4259(5) 0.4532(4) 0.6215(4)
C3 C 0.1148(7) 0.6006(6) 1.0514(6)
H3 H 0.0520 0.5554 1.1330
H4 H 0.0774 0.5907 0.9841
O6 O 0.5679(5) 0.4315(4) 0.7449(4)
C4 C 0.2861(7) 0.5404(6) 1.0198(7)
H5 H 0.3243 0.5468 1.0879
H6 H 0.3508 0.5846 0.9383
O7 O 0.7292(5) 0.2986(4) 0.4852(4)
C5 C 0.2939(7) 0.3980(6) 0.8471(6)
H7 H 0.2649 0.3218 0.8389
H8 H 0.2081 0.4638 0.8414
O8 O 0.9131(5) 0.4055(4) 0.3367(4)
C6 C 0.4389(7) 0.4279(5) 0.7327(6)
C7 C 0.8455(7) 0.3076(6) 0.3820(6)
C8 C 0.9159(10) 0.2001(6) 0.3027(8)
H9 H 1.0300 0.1885 0.2813
H10 H 0.8951 0.2256 0.2212
C9 C 0.9135(9) 0.0144(9) 0.5177(9)
H11 H 0.8768 0.0832 0.5665
H12 H 0.8650 -0.0572 0.5742
S3A S 1.1515(3) -0.0555(2) 0.6246(3)
O7A O 1.2708(5) -0.2986(4) 0.5148(4)
O8A O 1.0869(5) -0.4055(4) 0.6633(4)
C7A C 1.1545(7) -0.3076(6) 0.6180(6)
C8A C 1.0841(10) -0.2001(6) 0.6973(8)
H9A H 0.9700 -0.1885 0.7187
H10A H 1.1049 -0.2256 0.7788
C9A C 1.0865(9) -0.0144(9) 0.4823(9)
H11A H 1.1232 -0.0832 0.4335
H12A H 1.1350 0.0572 0.4258
Eu1A Eu 0.27359(4) 0.48365(3) 0.47988(3)
S1A S 0.9222(2) 0.23701(16) -0.06503(17)
O1A O 1.1381(5) 0.3256(4) -0.3489(4)
O2A O 0.4621(5) 0.2957(4) 0.4381(5)
C1A C 0.9945(7) 0.3264(5) -0.3319(6)
S2A S 0.6941(2) 0.62080(15) -0.00618(16)
O3A O 0.9279(5) 0.3950(4) -0.4057(5)
O4A O 0.2182(5) 0.3701(4) 0.3407(4)
C2A C 0.8966(7) 0.2417(6) -0.2172(6)
H1A H 0.7856 0.2682 -0.2065
H2A H 0.9228 0.1579 -0.2376
O5A O 0.5741(5) 0.5468(4) 0.3785(4)
C3A C 0.8852(7) 0.3994(6) -0.0514(6)
H3A H 0.9480 0.4446 -0.1330
H4A H 0.9226 0.4093 0.0159
O6A O 0.4321(5) 0.5685(4) 0.2551(4)
C4A C 0.7139(7) 0.4596(6) -0.0198(7)
H5A H 0.6757 0.4532 -0.0879
H6A H 0.6492 0.4154 0.0617
C5A C 0.7061(7) 0.6020(6) 0.1529(6)
H7A H 0.7351 0.6782 0.1611
H8A H 0.7919 0.5362 0.1586
C6A C 0.5611(7) 0.5721(5) 0.2673(6)
Eu1_2 Eu -0.27359(4) 0.51635(3) 1.52012(3)
Eu1_3 Eu 0.72641(4) 0.51635(3) -0.47988(3)
Eu1A_2 Eu 0.27359(4) 0.48365(3) 1.47988(3)
Eu1A_3 Eu 1.27359(4) -0.51635(3) 0.47988(3)
Eu1A_4 Eu 1.27359(4) 0.48365(3) -0.52012(3)
O1_2 O 0.8619(5) 0.6744(4) 0.3489(4)
O1A_2 O 0.1381(5) 0.3256(4) 0.6511(4)
O3_2 O 0.0721(5) 0.6050(4) 0.4057(5)
O3A_2 O 0.9279(5) 0.3950(4) 0.5943(5)
O7A_2 O 0.2708(5) 0.7014(4) 0.5148(4)
O8A_2 O 0.0869(5) 0.5945(4) 0.6633(4)
N1 N 0.4255(7) 0.9942(5) 0.8264(7)
O9 O 0.5852(8) 0.8425(6) 0.7180(7)
C10 C 0.4907(10) 0.8795(7) 0.8194(10)
H13 H 0.4649 0.8214 0.8954
C11 C 0.4540(14) 1.0885(9) 0.7107(11)
H14 H 0.5251 1.0518 0.6366
H15 H 0.5001 1.1536 0.7219
H16 H 0.3554 1.1226 0.6970
C12 C 0.3184(11) 1.0324(8) 0.9488(10)
H17 H 0.3109 0.9625 1.0180
H18 H 0.2154 1.0625 0.9423
H19 H 0.3581 1.0974 0.9670
loop_
_geom_bond_atom_site_label_1
_geom_bond_atom_site_label_2
_geom_bond_site_symmetry_1
_geom_bond_site_symmetry_2
Eu1 O2 1_555 1_555
S1 C2 1_555 1_555
O1 C1 1_555 1_555
C1 O3 1_555 1_555
S2 C4 1_555 1_555
O3 Eu1A_2 1_555 1_555
O4 Eu1 1_555 1_555
C2 C1 1_555 1_555
H1 C2 1_555 1_555
H2 C2 1_555 1_555
S3 C8 1_555 1_555
O5 Eu1 1_555 1_555
C3 S1 1_555 1_555
H3 C3 1_555 1_555
H4 C3 1_555 1_555
O6 Eu1 1_555 1_555
C4 C3 1_555 1_555
H5 C4 1_555 1_555
H6 C4 1_555 1_555
O7 Eu1 1_555 1_555
C5 S2 1_555 1_555
H7 C5 1_555 1_555
H8 C5 1_555 1_555
O8 Eu1 1_555 1_555
C6 O5 1_555 1_555
C7 O7 1_555 1_555
C8 C7 1_555 1_555
H9 C8 1_555 1_555
H10 C8 1_555 1_555
C9 S3 1_555 1_555
H11 C9 1_555 1_555
H12 C9 1_555 1_555
N1 C10 1_555 1_555
O9 C10 1_555 1_555
C10 H13 1_555 1_555
C11 N1 1_555 1_555
H14 C11 1_555 1_555
H15 C11 1_555 1_555
H16 C11 1_555 1_555
C12 N1 1_555 1_555
H17 C12 1_555 1_555
H18 C12 1_555 1_555
H19 C12 1_555 1_555
S3A C8A 1_555 1_555
O7A C7A 1_555 1_555
O8A C7A 1_555 1_555
C7A C8A 1_555 1_555
C8A H9A 1_555 1_555
H10A C8A 1_555 1_555
C9A C9 1_555 1_555
H11A C9A 1_555 1_555
H12A C9A 1_555 1_555
Eu1A O5 1_555 1_555
S1A C2A 1_555 1_555
O1A C1A 1_555 1_555
O2A Eu1A 1_555 1_555
C1A O3A 1_555 1_555
S2A C4A 1_555 1_555
O3A Eu1_3 1_555 1_555
O4A Eu1A 1_555 1_555
C2A C1A 1_555 1_555
H1A C2A 1_555 1_555
H2A C2A 1_555 1_555
O5A Eu1 1_555 1_555
C3A S1A 1_555 1_555
H3A C3A 1_555 1_555
H4A C3A 1_555 1_555
O6A Eu1A 1_555 1_555
C4A C3A 1_555 1_555
H5A C4A 1_555 1_555
H6A C4A 1_555 1_555
C5A S2A 1_555 1_555
H7A C5A 1_555 1_555
H8A C5A 1_555 1_555
C6A O5A 1_555 1_555
Eu1_2 O1 1_555 1_555
Eu1A_3 O7A 1_555 1_555
Eu1A_4 O1A 1_555 1_555
O1_2 Eu1 1_555 1_555
O1A_2 Eu1A 1_555 1_555
O3_2 Eu1A 1_555 1_555
O3A_2 Eu1 1_555 1_555
O7A_2 Eu1A 1_555 1_555
O8A_2 Eu1A 1_555 1_555
O6 C6 1_555 1_555
C5 C6 1_555 1_555
O8 C7 1_555 1_555
S3A C9A 1_555 1_555
O8A Eu1A_3 1_555 1_555
Eu1A O5A 1_555 1_555
O6A C6A 1_555 1_555
C5A C6A 1_555 1_555

#END
