
#######################################################################
#
#                 Cambridge Crystallographic Data Centre
#                                CCDC 
#
#######################################################################
#
# If this CIF has been generated from an entry in the Cambridge 
# Structural Database, then it will include bibliographic, chemical, 
# crystal, experimental, refinement or atomic coordinate data resulting 
# from the CCDC's data processing and validation procedures.
#
#######################################################################

data_EHAFEA
_symmetry_cell_setting           triclinic
_symmetry_space_group_name_H-M   'P -1'
_symmetry_Int_Tables_number      2
_space_group_name_Hall           '-P 1'
loop_
_symmetry_equiv_pos_site_id
_symmetry_equiv_pos_as_xyz
1 x,y,z
2 -x,-y,-z
_cell_length_a                   10.509(2)
_cell_length_b                   11.480(3)
_cell_length_c                   13.426(3)
_cell_angle_alpha                69.137(3)
_cell_angle_beta                 78.671(4)
_cell_angle_gamma                63.564(3)
_cell_volume                     1353.9
loop_
_atom_site_label
_atom_site_type_symbol
_atom_site_fract_x
_atom_site_fract_y
_atom_site_fract_z
U1 U 0.62233(6) 0.71400(6) 0.83603(5)
U2 U 1.0000 0.5000 0.5000
Yb1 Yb 0.59779(8) 0.23117(7) 0.75074(6)
C1 C 0.9970(18) 0.3426(17) 0.8523(14)
C2 C 1.1096(17) 0.3130(16) 0.9100(15)
H1 H 1.0944 0.3591 0.9588
C3 C 1.2457(18) 0.2149(17) 0.8958(14)
C4 C 1.2656(17) 0.1427(16) 0.8233(14)
C5 C 1.1467(18) 0.1650(17) 0.7732(15)
H2 H 1.1574 0.1121 0.7308
C6 C 1.0123(17) 0.2668(16) 0.7872(13)
C7 C 0.6287(19) 1.0019(17) 0.4480(15)
H3 H 0.7145 1.0017 0.4133
C8 C 0.6165(18) 0.8762(17) 0.5049(14)
C9 C 0.4862(17) 0.8768(17) 0.5556(13)
C10 C 0.8624(17) 0.4625(16) 0.8574(14)
C11 C 1.360(2) 0.1946(17) 0.9566(15)
C12 C 1.4075(19) 0.0420(17) 0.7950(14)
C13 C 0.8922(18) 0.2929(16) 0.7246(14)
C14 C 0.4655(18) 0.7492(16) 0.6201(13)
C15 C 0.7438(18) 0.7475(18) 0.5061(14)
O1 O 0.5295(14) 0.6369(13) 0.9432(10)
O2 O 0.7204(15) 0.7867(14) 0.7321(11)
O3 O 1.0678(15) 0.4967(14) 0.6121(11)
O4 O 0.8523(15) 0.5344(14) 0.9140(13)
O5 O 0.7614(14) 0.4971(13) 0.7994(11)
O6 O 0.8121(12) 0.2342(13) 0.7726(9)
O7 O 0.8854(12) 0.3625(12) 0.6262(9)
O8 O 1.4153(12) -0.0781(13) 0.8170(11)
O9 O 1.5046(13) 0.0792(13) 0.7553(11)
O10 O 1.4827(13) 0.1799(14) 0.9154(10)
O11 O 1.3284(12) 0.1951(11) 1.0512(10)
O12 O 0.4984(14) 0.6944(13) 0.7190(10)
O13 O 0.4095(16) 0.7026(13) 0.5792(11)
O14 O 0.7347(15) 0.6341(14) 0.5334(13)
O15 O 0.8634(15) 0.7483(14) 0.4814(12)
O16 O 0.7095(16) 0.1539(14) 0.6109(11)
H4 H 0.7227 0.2124 0.5483
H5 H 0.7409 0.0648 0.6175
O17 O 0.6057(14) 0.4207(13) 0.6067(11)
H6 H 0.5815 0.5009 0.6179
H7 H 0.6331 0.4127 0.5407
O18 O 0.3707(18) 0.3735(17) 0.6865(18)
H8 H 0.3567 0.4503 0.6313
H9 H 0.2971 0.3511 0.7168
O19 O 0.5262(19) 0.4077(17) 0.8252(14)
H10 H 0.5218 0.4904 0.7835
H11 H 0.5028 0.3932 0.8954
O20 O 0.7607(14) 0.0153(13) 0.8379(12)
H12 H 0.8534 -0.0118 0.8169
H13 H 0.7311 -0.0413 0.8927
C7A C 0.3713(19) 0.9981(17) 0.5520(15)
H3A H 0.2855 0.9983 0.5867
C8A C 0.3835(18) 1.1238(17) 0.4951(14)
C9A C 0.5138(17) 1.1232(17) 0.4444(13)
C14A C 0.5345(18) 1.2508(16) 0.3799(13)
C15A C 0.2562(18) 1.2525(18) 0.4939(14)
O12A O 0.5016(14) 1.3056(13) 0.2810(10)
O13A O 0.5905(16) 1.2974(13) 0.4208(11)
O14A O 0.2653(15) 1.3659(14) 0.4666(13)
O15A O 0.1366(15) 1.2517(14) 0.5186(12)
U1A U 0.37767(6) 1.28600(6) 0.16397(5)
Yb1A Yb 0.40221(8) 1.76883(7) 0.24926(6)
C1A C 0.0030(18) 1.6574(17) 0.1477(14)
C2A C -0.1096(17) 1.6870(16) 0.0900(15)
H1A H -0.0944 1.6409 0.0412
C3A C -0.2457(18) 1.7851(17) 0.1042(14)
C4A C -0.2656(17) 1.8573(16) 0.1767(14)
C5A C -0.1467(18) 1.8350(17) 0.2268(15)
H2A H -0.1574 1.8879 0.2692
C6A C -0.0123(17) 1.7332(16) 0.2128(13)
C10A C 0.1376(17) 1.5375(16) 0.1426(14)
C11A C -0.360(2) 1.8054(17) 0.0434(15)
C12A C -0.4075(19) 1.9580(17) 0.2050(14)
C13A C 0.1078(18) 1.7071(16) 0.2754(14)
O1A O 0.4705(14) 1.3631(13) 0.0568(10)
O2A O 0.2796(15) 1.2133(14) 0.2679(11)
O4A O 0.1477(15) 1.4656(14) 0.0860(13)
O5A O 0.2386(14) 1.5029(13) 0.2006(11)
O6A O 0.1879(12) 1.7658(13) 0.2274(9)
O7A O 0.1146(12) 1.6375(12) 0.3738(9)
O8A O -0.4153(12) 2.0781(13) 0.1830(11)
O9A O -0.5046(13) 1.9208(13) 0.2447(11)
O10A O -0.4827(13) 1.8201(14) 0.0846(10)
O11A O -0.3284(12) 1.8049(11) -0.0512(10)
O16A O 0.2905(16) 1.8461(14) 0.3891(11)
H4A H 0.2773 1.7876 0.4517
H5A H 0.2591 1.9352 0.3825
O17A O 0.3943(14) 1.5793(13) 0.3933(11)
H6A H 0.4185 1.4991 0.3821
H7A H 0.3669 1.5873 0.4593
O18A O 0.6293(18) 1.6265(17) 0.3135(18)
H8A H 0.6433 1.5497 0.3687
H9A H 0.7029 1.6489 0.2832
O19A O 0.4738(19) 1.5923(17) 0.1748(14)
H10A H 0.4782 1.5096 0.2165
H11A H 0.4972 1.6068 0.1046
O20A O 0.2393(14) 1.9847(13) 0.1621(12)
H12A H 0.1466 2.0118 0.1831
H13A H 0.2689 2.0413 0.1073
O3A O 0.9322(15) 0.5033(14) 0.3879(11)
U1_2 U -0.37767(6) 1.71400(6) -0.16397(5)
U1_3 U 1.62233(6) -0.28600(6) 0.83603(5)
U1A_2 U -0.62233(6) 2.28600(6) 0.16397(5)
U1A_3 U 1.37767(6) 0.28600(6) 1.16397(5)
U2_2 U 0.0000 1.5000 0.5000
Yb1_2 Yb 1.59779(8) 0.23117(7) 0.75074(6)
Yb1A_2 Yb -0.59779(8) 1.76883(7) 0.24926(6)
O7A_2 O 1.1146(12) 0.6375(12) 0.3738(9)
O8_2 O 0.4153(12) 0.9219(13) 0.8170(11)
O8A_2 O 0.5847(12) 1.0781(13) 0.1830(11)
O9_2 O 0.5046(13) 0.0792(13) 0.7553(11)
O9A_2 O 0.4954(13) 1.9208(13) 0.2447(11)
O10_2 O 0.4827(13) 0.1799(14) 0.9154(10)
O10A_2 O 0.5173(13) 1.8201(14) 0.0846(10)
O11_2 O 0.3284(12) 1.1951(11) 0.0512(10)
O11A_2 O 0.6716(12) 0.8049(11) 0.9488(10)
O14A_2 O 1.2653(15) 0.3659(14) 0.4666(13)
O15A_2 O 1.1366(15) 0.2517(14) 0.5186(12)
O21 O 0.054(4) 0.107(6) 0.416(3)
O22 O 0.807(7) 0.391(6) 0.254(8)
O23 O 0.059(6) 0.891(6) 0.800(6)
loop_
_geom_bond_atom_site_label_1
_geom_bond_atom_site_label_2
_geom_bond_site_symmetry_1
_geom_bond_site_symmetry_2
U1 O1 1_555 1_555
U2 O3 1_555 1_555
Yb1 O6 1_555 1_555
C1 C2 1_555 1_555
C2 H1 1_555 1_555
C3 C2 1_555 1_555
C4 C3 1_555 1_555
C5 C4 1_555 1_555
H2 C5 1_555 1_555
C6 C1 1_555 1_555
C7 H3 1_555 1_555
C8 C7 1_555 1_555
C9 C8 1_555 1_555
C10 C1 1_555 1_555
C11 C3 1_555 1_555
C12 C4 1_555 1_555
C13 C6 1_555 1_555
C14 C9 1_555 1_555
C15 C8 1_555 1_555
O2 U1 1_555 1_555
O4 U1 1_555 1_555
O5 U1 1_555 1_555
O6 C13 1_555 1_555
O7 U2 1_555 1_555
O8 C12 1_555 1_555
O9 C12 1_555 1_555
O10 C11 1_555 1_555
O11 C11 1_555 1_555
O12 U1 1_555 1_555
O13 C14 1_555 1_555
O14 U2 1_555 1_555
O15 U2 1_555 1_555
O16 Yb1 1_555 1_555
H4 O16 1_555 1_555
H5 O16 1_555 1_555
O17 Yb1 1_555 1_555
H6 O17 1_555 1_555
H7 O17 1_555 1_555
O18 Yb1 1_555 1_555
H8 O18 1_555 1_555
H9 O18 1_555 1_555
O19 Yb1 1_555 1_555
H10 O19 1_555 1_555
H11 O19 1_555 1_555
O20 Yb1 1_555 1_555
H12 O20 1_555 1_555
H13 O20 1_555 1_555
C7A C9 1_555 1_555
H3A C7A 1_555 1_555
C8A C7A 1_555 1_555
C9A C7 1_555 1_555
C14A C9A 1_555 1_555
C15A C8A 1_555 1_555
O12A C14A 1_555 1_555
O13A C14A 1_555 1_555
O14A C15A 1_555 1_555
O15A C15A 1_555 1_555
U1A O12A 1_555 1_555
Yb1A O6A 1_555 1_555
C1A C2A 1_555 1_555
C2A H1A 1_555 1_555
C3A C2A 1_555 1_555
C4A C3A 1_555 1_555
C5A C4A 1_555 1_555
H2A C5A 1_555 1_555
C6A C1A 1_555 1_555
C10A C1A 1_555 1_555
C11A C3A 1_555 1_555
C12A C4A 1_555 1_555
C13A C6A 1_555 1_555
O1A U1A 1_555 1_555
O2A U1A 1_555 1_555
O4A U1A 1_555 1_555
O5A U1A 1_555 1_555
O6A C13A 1_555 1_555
O7A C13A 1_555 1_555
O8A C12A 1_555 1_555
O9A C12A 1_555 1_555
O10A C11A 1_555 1_555
O11A C11A 1_555 1_555
O16A Yb1A 1_555 1_555
H4A O16A 1_555 1_555
H5A O16A 1_555 1_555
O17A Yb1A 1_555 1_555
H6A O17A 1_555 1_555
H7A O17A 1_555 1_555
O18A Yb1A 1_555 1_555
H8A O18A 1_555 1_555
H9A O18A 1_555 1_555
O19A Yb1A 1_555 1_555
H10A O19A 1_555 1_555
H11A O19A 1_555 1_555
O20A Yb1A 1_555 1_555
H12A O20A 1_555 1_555
H13A O20A 1_555 1_555
O3A U2 1_555 1_555
U1_2 O11A 1_555 1_555
U1_3 O8 1_555 1_555
U1A_2 O8A 1_555 1_555
U1A_3 O11 1_555 1_555
U2_2 O14A 1_555 1_555
Yb1_2 O9 1_555 1_555
Yb1A_2 O9A 1_555 1_555
O7A_2 U2 1_555 1_555
O8_2 U1 1_555 1_555
O8A_2 U1A 1_555 1_555
O9_2 Yb1 1_555 1_555
O9A_2 Yb1A 1_555 1_555
O10_2 Yb1 1_555 1_555
O10A_2 Yb1A 1_555 1_555
O11_2 U1A 1_555 1_555
O11A_2 U1 1_555 1_555
O14A_2 U2 1_555 1_555
O15A_2 U2 1_555 1_555
C5 C6 1_555 1_555
C10 O4 1_555 1_555
C10 O5 1_555 1_555
C13 O7 1_555 1_555
C14 O12 1_555 1_555
C15 O14 1_555 1_555
C15 O15 1_555 1_555
O10 Yb1_2 1_555 1_555
C8A C9A 1_555 1_555
O15A U2_2 1_555 1_555
C5A C6A 1_555 1_555
C10A O4A 1_555 1_555
C10A O5A 1_555 1_555
O7A U2_2 1_555 1_555
O10A Yb1A_2 1_555 1_555

#END
