
#######################################################################
#
#                 Cambridge Crystallographic Data Centre
#                                CCDC 
#
#######################################################################
#
# If this CIF has been generated from an entry in the Cambridge 
# Structural Database, then it will include bibliographic, chemical, 
# crystal, experimental, refinement or atomic coordinate data resulting 
# from the CCDC's data processing and validation procedures.
#
#######################################################################

data_EJAXIW
_symmetry_cell_setting           monoclinic
_symmetry_space_group_name_H-M   'C 2/c'
_symmetry_Int_Tables_number      15
_space_group_name_Hall           '-C 2yn'
loop_
_symmetry_equiv_pos_site_id
_symmetry_equiv_pos_as_xyz
1 x,y,z
2 1/2+x,1/2+y,z
3 x,-y,1/2+z
4 1/2+x,1/2-y,1/2+z
5 -x,-y,-z
6 1/2-x,1/2-y,-z
7 -x,y,1/2-z
8 1/2-x,1/2+y,1/2-z
_cell_length_a                   23.350(11)
_cell_length_b                   19.882(9)
_cell_length_c                   13.644(6)
_cell_angle_alpha                90
_cell_angle_beta                 106.29(2)
_cell_angle_gamma                90
_cell_volume                     6079.87
loop_
_atom_site_label
_atom_site_type_symbol
_atom_site_fract_x
_atom_site_fract_y
_atom_site_fract_z
Co1 Co 0.2500 0.2500 0.5000
Co2 Co 0.5000 0.31207(7) 0.7500
S1 S 0.37835(8) 0.35186(11) 0.5614(2)
O1 O 0.43259(19) 0.3152(3) 0.6126(4)
O2 O 0.32826(19) 0.3051(3) 0.5335(4)
N1 N 0.1984(2) 0.3404(3) 0.5016(6)
O3 O 0.3663(2) 0.4009(3) 0.6358(5)
N2 N 0.2424(3) 0.2596(3) 0.3381(6)
O4 O 0.5485(2) 0.3842(3) 0.6939(5)
O5 O 0.3840(3) 0.3854(3) 0.4709(5)
C1 C 0.0831(3) 0.6944(4) 0.7488(8)
H1 H 0.0925 0.7019 0.8188
C2 C 0.1115(4) 0.6433(5) 0.7167(10)
H2 H 0.1376 0.6156 0.7635
C3 C 0.1350(4) 0.4566(4) 0.5250(9)
N3 N 0.0440(3) 0.7338(3) 0.6902(6)
C4 C 0.2110(4) 0.2135(5) 0.2708(7)
H3 H 0.1935 0.1780 0.2961
C5 C 0.1011(4) 0.6329(4) 0.6135(9)
C6 C 0.1879(4) 0.4589(5) 0.5042(10)
H4 H 0.2047 0.5006 0.4988
C7 C 0.2696(4) 0.3064(5) 0.2997(8)
H5 H 0.2939 0.3368 0.3445
C8 C 0.1467(4) 0.3391(4) 0.5185(8)
H6 H 0.1304 0.2967 0.5213
C9 C 0.2186(4) 0.4010(5) 0.4904(8)
H7 H 0.2541 0.4053 0.4728
C10 C 0.1001(4) 0.5166(4) 0.5444(11)
H8 H 0.0682 0.5255 0.4827
H9 H 0.0816 0.5047 0.5975
C11 C 0.2038(4) 0.2164(5) 0.1711(8)
H10 H 0.1798 0.1844 0.1291
C12 C 0.2310(4) 0.2653(5) 0.1273(6)
C13 C 0.0618(4) 0.6730(5) 0.5505(10)
H11 H 0.0529 0.6670 0.4802
C14 C 0.1129(4) 0.3931(5) 0.5328(10)
H12 H 0.0765 0.3870 0.5471
C15 C 0.0342(4) 0.7237(5) 0.5905(9)
H13 H 0.0077 0.7521 0.5454
C16 C 0.1345(4) 0.5793(4) 0.5749(9)
H14 H 0.1459 0.5967 0.5167
H15 H 0.1708 0.5689 0.6279
C17 C 0.2642(4) 0.3130(5) 0.1970(9)
H16 H 0.2824 0.3488 0.1736
C18 C 0.2265(3) 0.2715(5) 0.0157(6)
H17 H 0.2316 0.3183 -0.0002
H18 H 0.1870 0.2576 -0.0240
C19 C 0.5338(6) 0.4330(7) 0.6214(13)
H19 H 0.5693 0.4559 0.6175
H20 H 0.5072 0.4645 0.6390
H21 H 0.5145 0.4130 0.5565
C18E C 0.2735(3) 0.2285(5) -0.0157(6)
C12E C 0.2690(4) 0.2347(5) -0.1273(6)
C11E C 0.2962(4) 0.2836(5) -0.1711(8)
C4E C 0.2890(4) 0.2865(5) -0.2708(7)
N2E N 0.2576(3) 0.2404(3) -0.3381(6)
C7E C 0.2304(4) 0.1936(5) -0.2997(8)
H5E H 0.2061 0.1632 -0.3445
C17E C 0.2358(4) 0.1870(5) -0.1970(9)
H16E H 0.2176 0.1512 -0.1736
H3E H 0.3065 0.3220 -0.2961
H10E H 0.3202 0.3156 -0.1291
H17E H 0.2684 0.1817 0.0002
H18E H 0.3130 0.2424 0.0240
S1E S 0.12165(8) 0.14814(11) 0.4386(2)
O1E O 0.06741(19) 0.1848(3) 0.3874(4)
O2E O 0.17174(19) 0.1949(3) 0.4665(4)
O3E O 0.1337(2) 0.0991(3) 0.3642(5)
O5E O 0.1160(3) 0.1146(3) 0.5291(5)
N1E N 0.3016(2) 0.1596(3) 0.4984(6)
C1E C 0.4169(3) -0.1944(4) 0.2512(8)
H1E H 0.4075 -0.2019 0.1812
C2E C 0.3885(4) -0.1433(5) 0.2833(10)
H2E H 0.3624 -0.1156 0.2365
C3E C 0.3650(4) 0.0434(4) 0.4750(9)
N3E N 0.4560(3) -0.2338(3) 0.3098(6)
C5E C 0.3989(4) -0.1329(4) 0.3865(9)
C6E C 0.3121(4) 0.0411(5) 0.4958(10)
H4E H 0.2953 -0.0006 0.5012
C8E C 0.3533(4) 0.1609(4) 0.4815(8)
H6E H 0.3696 0.2033 0.4787
C9E C 0.2814(4) 0.0990(5) 0.5096(8)
H7E H 0.2459 0.0947 0.5272
C10E C 0.3999(4) -0.0166(4) 0.4556(11)
H8E H 0.4318 -0.0255 0.5173
H9E H 0.4184 -0.0047 0.4025
C13E C 0.4382(4) -0.1730(5) 0.4495(10)
H11E H 0.4471 -0.1670 0.5198
C14E C 0.3871(4) 0.1069(5) 0.4672(10)
H12E H 0.4235 0.1130 0.4529
C15E C 0.4658(4) -0.2237(5) 0.4095(9)
H13E H 0.4923 -0.2521 0.4546
C16E C 0.3655(4) -0.0793(4) 0.4251(9)
H14E H 0.3541 -0.0967 0.4833
H15E H 0.3292 -0.0689 0.3721
O4F O 0.4515(2) 0.3842(3) 0.8061(5)
C19F C 0.4662(6) 0.4330(7) 0.8786(13)
H19F H 0.4307 0.4559 0.8825
H20F H 0.4928 0.4645 0.8610
H21F H 0.4855 0.4130 0.9435
N2E_2 N 0.2576(3) 0.2404(3) 0.6619(6)
O1F O 0.56741(19) 0.3152(3) 0.8874(4)
N3A N 0.5440(3) 0.2338(3) 0.6902(6)
N3G N 0.4560(3) 0.2338(3) 0.8098(6)
Co2A Co 0.0000 0.81207(7) 0.7500
Co1_2 Co 0.2500 0.2500 -0.5000
Co2C Co 0.0000 0.18793(7) 0.2500
Co2B Co 0.5000 -0.31207(7) 0.2500
loop_
_geom_bond_atom_site_label_1
_geom_bond_atom_site_label_2
_geom_bond_site_symmetry_1
_geom_bond_site_symmetry_2
Co1 O2 1_555 1_555
Co2 O1 1_555 1_555
S1 O1 1_555 1_555
O2 S1 1_555 1_555
N1 Co1 1_555 1_555
O3 S1 1_555 1_555
N2 Co1 1_555 1_555
O4 Co2 1_555 1_555
O5 S1 1_555 1_555
C1 H1 1_555 1_555
C2 C1 1_555 1_555
H2 C2 1_555 1_555
C3 C6 1_555 1_555
N3 C1 1_555 1_555
C4 N2 1_555 1_555
H3 C4 1_555 1_555
C5 C2 1_555 1_555
C6 H4 1_555 1_555
C7 N2 1_555 1_555
H5 C7 1_555 1_555
C8 N1 1_555 1_555
H6 C8 1_555 1_555
C9 N1 1_555 1_555
H7 C9 1_555 1_555
C10 C3 1_555 1_555
H8 C10 1_555 1_555
H9 C10 1_555 1_555
C11 C4 1_555 1_555
H10 C11 1_555 1_555
C12 C11 1_555 1_555
C13 C5 1_555 1_555
H11 C13 1_555 1_555
C14 C3 1_555 1_555
H12 C14 1_555 1_555
C15 N3 1_555 1_555
H13 C15 1_555 1_555
C16 C5 1_555 1_555
H14 C16 1_555 1_555
H15 C16 1_555 1_555
C17 C7 1_555 1_555
H16 C17 1_555 1_555
C18 C12 1_555 1_555
H17 C18 1_555 1_555
H18 C18 1_555 1_555
C19 O4 1_555 1_555
H19 C19 1_555 1_555
H20 C19 1_555 1_555
H21 C19 1_555 1_555
C18E C18 1_555 1_555
C12E C18E 1_555 1_555
C11E C12E 1_555 1_555
C4E C11E 1_555 1_555
N2E C4E 1_555 1_555
C7E N2E 1_555 1_555
H5E C7E 1_555 1_555
C17E C12E 1_555 1_555
H16E C17E 1_555 1_555
H3E C4E 1_555 1_555
H10E C11E 1_555 1_555
H17E C18E 1_555 1_555
H18E C18E 1_555 1_555
S1E O1E 1_555 1_555
O1E Co2C 1_555 1_555
O2E Co1 1_555 1_555
O3E S1E 1_555 1_555
O5E S1E 1_555 1_555
N1E Co1 1_555 1_555
C1E H1E 1_555 1_555
C2E C1E 1_555 1_555
H2E C2E 1_555 1_555
C3E C6E 1_555 1_555
N3E C1E 1_555 1_555
C5E C2E 1_555 1_555
C6E H4E 1_555 1_555
C8E N1E 1_555 1_555
H6E C8E 1_555 1_555
C9E N1E 1_555 1_555
H7E C9E 1_555 1_555
C10E C3E 1_555 1_555
H8E C10E 1_555 1_555
H9E C10E 1_555 1_555
C13E C5E 1_555 1_555
H11E C13E 1_555 1_555
C14E C3E 1_555 1_555
H12E C14E 1_555 1_555
C15E N3E 1_555 1_555
H13E C15E 1_555 1_555
C16E C5E 1_555 1_555
H14E C16E 1_555 1_555
H15E C16E 1_555 1_555
O4F Co2 1_555 1_555
C19F O4F 1_555 1_555
H19F C19F 1_555 1_555
H20F C19F 1_555 1_555
H21F C19F 1_555 1_555
N2E_2 Co1 1_555 1_555
O1F Co2 1_555 1_555
N3A Co2 1_555 1_555
N3G Co2 1_555 1_555
Co2A N3 1_555 1_555
Co1_2 N2E 1_555 1_555
Co2B N3E 1_555 1_555
C6 C9 1_555 1_555
C8 C14 1_555 1_555
C10 C16 1_555 1_555
C12 C17 1_555 1_555
C13 C15 1_555 1_555
C7E C17E 1_555 1_555
S1E O2E 1_555 1_555
C6E C9E 1_555 1_555
C8E C14E 1_555 1_555
C10E C16E 1_555 1_555
C13E C15E 1_555 1_555

#END
