
#######################################################################
#
#                 Cambridge Crystallographic Data Centre
#                                CCDC 
#
#######################################################################
#
# If this CIF has been generated from an entry in the Cambridge 
# Structural Database, then it will include bibliographic, chemical, 
# crystal, experimental, refinement or atomic coordinate data resulting 
# from the CCDC's data processing and validation procedures.
#
#######################################################################

data_EJEFOP
_symmetry_cell_setting           triclinic
_symmetry_space_group_name_H-M   'P -1'
_symmetry_Int_Tables_number      2
_space_group_name_Hall           '-P 1'
loop_
_symmetry_equiv_pos_site_id
_symmetry_equiv_pos_as_xyz
1 x,y,z
2 -x,-y,-z
_cell_length_a                   12.148(3)
_cell_length_b                   13.123(6)
_cell_length_c                   13.980(7)
_cell_angle_alpha                75.633(4)
_cell_angle_beta                 64.450(6)
_cell_angle_gamma                67.616(2)
_cell_volume                     1849.8
loop_
_atom_site_label
_atom_site_type_symbol
_atom_site_fract_x
_atom_site_fract_y
_atom_site_fract_z
Cd1 Cd 0.84938(8) 0.44615(7) 0.55087(6)
Cd2 Cd 0.75022(7) -0.49186(6) 1.27713(5)
C1 C 0.6176(12) 0.2171(12) 0.6740(10)
H1 H 0.5508 0.1923 0.6841
C2 C 0.6538(11) 0.2999(10) 0.6033(9)
H2 H 0.6178 0.3414 0.5536
C3 C 0.7832(11) 0.2375(9) 0.6883(8)
C4 C 0.8915(11) 0.2293(10) 0.7166(8)
C5 C 0.9408(12) 0.1412(12) 0.7787(10)
H3 H 0.9036 0.0849 0.8107
C6 C 1.0448(15) 0.1392(11) 0.7917(10)
H4 H 1.0818 0.0789 0.8316
C7 C 1.0969(11) 0.2211(13) 0.7491(9)
H5 H 1.1677 0.2205 0.7596
C8 C 1.0387(12) 0.3081(11) 0.6876(8)
H6 H 1.0732 0.3660 0.6560
C9 C 0.6787(11) 0.0972(10) 0.8251(8)
H7 H 0.5872 0.1085 0.8620
H8 H 0.7088 0.1130 0.8721
C10 C 0.7465(12) -0.0238(9) 0.8032(8)
H9 H 0.7172 -0.0408 0.7563
H10 H 0.8384 -0.0368 0.7680
C11 C 0.7182(12) -0.0982(9) 0.9066(8)
H11 H 0.6262 -0.0766 0.9466
H12 H 0.7583 -0.0880 0.9489
C12 C 0.7671(12) -0.2211(9) 0.8889(8)
H13 H 0.7368 -0.2299 0.8386
H14 H 0.8603 -0.2456 0.8582
C13 C 0.6044(14) -0.3047(10) 1.0212(9)
H15 H 0.5470 -0.2790 0.9866
C14 C 0.5904(12) -0.3652(10) 1.1160(9)
H16 H 0.5182 -0.3868 1.1598
C15 C 0.7781(12) -0.3442(9) 1.0594(8)
C16 C 0.9015(12) -0.3628(9) 1.0584(7)
C17 C 0.9921(14) -0.3143(12) 0.9817(9)
H17 H 0.9712 -0.2615 0.9289
C18 C 1.1116(15) -0.3445(13) 0.9843(10)
H18 H 1.1717 -0.3117 0.9333
C19 C 1.1439(12) -0.4236(12) 1.0621(10)
H19 H 1.2257 -0.4466 1.0637
C20 C 1.0480(12) -0.4672(10) 1.1383(9)
H20 H 1.0662 -0.5192 1.1926
C21 C 0.9304(9) 0.3328(8) 0.3413(8)
C22 C 1.0045(9) 0.2351(8) 0.3952(7)
C23 C 1.1031(9) 0.2373(8) 0.4176(7)
C24 C 1.1663(10) 0.1432(9) 0.4672(8)
H21 H 1.2364 0.1425 0.4790
C25 C 1.1275(10) 0.0515(9) 0.4991(8)
H22 H 1.1710 -0.0104 0.5332
C26 C 1.0233(9) 0.0484(8) 0.4818(7)
C27 C 0.9665(9) 0.1443(9) 0.4256(7)
H23 H 0.9001 0.1447 0.4089
C28 C 1.1497(10) 0.3395(9) 0.3834(8)
C29 C 0.6293(10) 0.6475(9) 0.4701(9)
C30 C 0.5361(9) 0.7508(8) 0.5213(7)
C31 C 0.5562(9) 0.8498(8) 0.4771(7)
H24 H 0.6230 0.8519 0.4114
C32 C 0.4847(9) 0.9463(8) 0.5232(8)
C33 C 0.3771(10) 0.9425(9) 0.6163(9)
H25 H 0.3219 1.0076 0.6472
C34 C 0.3514(11) 0.8454(10) 0.6628(9)
H26 H 0.2798 0.8452 0.7252
C35 C 0.4316(10) 0.7462(8) 0.6176(8)
C36 C 0.3956(10) 0.6392(10) 0.6691(9)
N1 N 0.9363(8) 0.3117(8) 0.6724(6)
N2 N 0.7525(8) 0.3128(7) 0.6168(6)
N3 N 0.6992(9) 0.1766(8) 0.7283(7)
N4 N 0.9294(8) -0.4364(7) 1.1356(6)
N5 N 0.6969(9) -0.3908(8) 1.1393(7)
N6 N 0.7250(11) -0.2886(7) 0.9854(6)
O1 O 0.9049(7) 0.3225(6) 0.2688(5)
O2 O 0.8945(6) 0.4281(6) 0.3761(5)
O3 O 1.0936(7) 0.4092(6) 0.4497(6)
O4 O 1.2330(8) 0.3482(8) 0.2964(6)
O5 O 0.6666(7) 0.6543(6) 0.3713(5)
O6 O 0.6676(7) 0.5642(6) 0.5326(6)
O7 O 0.3786(7) 0.5890(6) 0.6183(5)
O8 O 0.3781(8) 0.6165(7) 0.7659(6)
Cd1A Cd 1.15062(8) -0.44615(7) 0.44913(6)
Cd1A_2 Cd 1.15062(8) 0.55385(7) 0.44913(6)
Cd1_2 Cd 0.84938(8) -0.55385(7) 0.55087(6)
Cd1A_3 Cd 0.15062(8) 1.55385(7) 0.44913(6)
Cd2_2 Cd 0.75022(7) 0.50814(6) 0.27713(5)
Cd2A Cd 0.24978(7) 0.49186(6) 0.72287(5)
Cd2A_2 Cd 1.24978(7) -0.50814(6) 0.72287(5)
Cd2A_3 Cd 0.24978(7) 1.49186(6) 0.72287(5)
Cd2_3 Cd 0.75022(7) 1.50814(6) 0.27713(5)
Cd2A_4 Cd 1.24978(7) 0.49186(6) -0.27713(5)
C1A C 1.3824(12) -0.2171(12) 0.3260(10)
H1A H 1.4492 -0.1923 0.3159
C2A C 1.3462(11) -0.2999(10) 0.3967(9)
H2A H 1.3822 -0.3414 0.4464
C3A C 1.2168(11) -0.2375(9) 0.3117(8)
C4A C 1.1085(11) -0.2293(10) 0.2834(8)
C5A C 1.0592(12) -0.1412(12) 0.2213(10)
H3A H 1.0964 -0.0849 0.1893
C6A C 0.9552(15) -0.1392(11) 0.2083(10)
H4A H 0.9182 -0.0789 0.1684
C7A C 0.9031(11) -0.2211(13) 0.2509(9)
H5A H 0.8323 -0.2205 0.2404
C8A C 0.9613(12) -0.3081(11) 0.3124(8)
H6A H 0.9268 -0.3660 0.3440
C9A C 1.3213(11) -0.0972(10) 0.1749(8)
H7A H 1.4128 -0.1085 0.1380
H8A H 1.2912 -0.1130 0.1279
C10A C 1.2535(12) 0.0238(9) 0.1968(8)
H9A H 1.2828 0.0408 0.2437
H10A H 1.1616 0.0368 0.2320
C11A C 1.2818(12) 0.0982(9) 0.0934(8)
H11A H 1.3738 0.0766 0.0534
H12A H 1.2417 0.0880 0.0511
C12A C 1.2329(12) 0.2211(9) 0.1111(8)
H13A H 1.2632 0.2299 0.1614
H14A H 1.1397 0.2456 0.1418
C13A C 1.3956(14) 0.3047(10) -0.0212(9)
H15A H 1.4530 0.2790 0.0134
C14A C 1.4096(12) 0.3652(10) -0.1160(9)
H16A H 1.4818 0.3868 -0.1598
C15A C 1.2219(12) 0.3442(9) -0.0594(8)
C16A C 1.0985(12) 0.3628(9) -0.0584(7)
C17A C 1.0079(14) 0.3143(12) 0.0183(9)
H17A H 1.0288 0.2615 0.0711
C18A C 0.8884(15) 0.3445(13) 0.0157(10)
H18A H 0.8283 0.3117 0.0667
C19A C 0.8561(12) 0.4236(12) -0.0621(10)
H19A H 0.7743 0.4466 -0.0637
C20A C 0.9520(12) 0.4672(10) -0.1383(9)
H20A H 0.9338 0.5192 -0.1926
C21A C 1.0696(9) -0.3328(8) 0.6587(8)
C22A C 0.9955(9) -0.2351(8) 0.6048(7)
C23A C 0.8969(9) -0.2373(8) 0.5824(7)
C24A C 0.8337(10) -0.1432(9) 0.5328(8)
H21A H 0.7636 -0.1425 0.5210
C25A C 0.8725(10) -0.0515(9) 0.5009(8)
H22A H 0.8290 0.0104 0.4668
C26A C 0.9767(9) -0.0484(8) 0.5182(7)
C27A C 1.0335(9) -0.1443(9) 0.5744(7)
H23A H 1.0999 -0.1447 0.5911
C28A C 0.8503(10) -0.3395(9) 0.6166(8)
C29A C 0.3707(10) 1.3525(9) 0.5299(9)
C30A C 0.4639(9) 1.2492(8) 0.4787(7)
C31A C 0.4438(9) 1.1502(8) 0.5229(7)
H24A H 0.3770 1.1481 0.5886
C32A C 0.5153(9) 1.0537(8) 0.4768(8)
C33A C 0.6229(10) 1.0575(9) 0.3837(9)
H25A H 0.6781 0.9924 0.3528
C34A C 0.6486(11) 1.1546(10) 0.3372(9)
H26A H 0.7202 1.1548 0.2748
C35A C 0.5684(10) 1.2538(8) 0.3824(8)
C36A C 0.6044(10) 1.3608(10) 0.3309(9)
N1A N 1.0637(8) -0.3117(8) 0.3276(6)
N2A N 1.2475(8) -0.3128(7) 0.3832(6)
N3A N 1.3008(9) -0.1766(8) 0.2717(7)
N4A N 1.0706(8) 0.4364(7) -0.1356(6)
N4_2 N 0.9294(8) 0.5636(7) 0.1356(6)
N5A N 1.3031(9) 0.3908(8) -0.1393(7)
N5_2 N 0.6969(9) 0.6092(8) 0.1393(7)
N6A N 1.2750(11) 0.2886(7) 0.0146(6)
O1A O 1.0951(7) -0.3225(6) 0.7312(5)
O1_2 O 0.9049(7) -0.6775(6) 1.2688(5)
O2A O 1.1055(6) -0.4281(6) 0.6239(5)
O2_2 O 0.8945(6) -0.5719(6) 1.3761(5)
O3A O 0.9064(7) -0.4092(6) 0.5503(6)
O3A_2 O 0.9064(7) 0.5908(6) 0.5503(6)
O3_2 O 1.0936(7) -0.5908(6) 0.4497(6)
O4A O 0.7670(8) -0.3482(8) 0.7036(6)
O5A O 0.3334(7) 1.3457(6) 0.6287(5)
O5_2 O 0.6666(7) -0.3457(6) 1.3713(5)
O6A O 0.3324(7) 1.4358(6) 0.4674(6)
O6A_2 O 1.3324(7) -0.5642(6) 0.4674(6)
O7A O 0.6214(7) 1.4110(6) 0.3817(5)
O7A_2 O 0.6214(7) -0.5890(6) 1.3817(5)
O7A_3 O 0.6214(7) 0.4110(6) 0.3817(5)
O8A O 0.6219(8) 1.3835(7) 0.2341(6)
O9 O 0.6600(14) 0.5050(15) 0.7570(11)
O10 O 0.445(3) 0.703(3) 0.882(2)
O11 O 0.247(3) 0.927(3) 0.939(2)
O12 O 0.512(2) 0.863(3) 0.803(2)
loop_
_geom_bond_atom_site_label_1
_geom_bond_atom_site_label_2
_geom_bond_site_symmetry_1
_geom_bond_site_symmetry_2
Cd1 N1 1_555 1_555
Cd2 N4 1_555 1_555
C1 H1 1_555 1_555
C2 C1 1_555 1_555
H2 C2 1_555 1_555
C3 C4 1_555 1_555
C4 C5 1_555 1_555
C5 H3 1_555 1_555
C6 C5 1_555 1_555
H4 C6 1_555 1_555
C7 C6 1_555 1_555
H5 C7 1_555 1_555
C8 C7 1_555 1_555
H6 C8 1_555 1_555
C9 H7 1_555 1_555
H8 C9 1_555 1_555
C10 C9 1_555 1_555
H9 C10 1_555 1_555
H10 C10 1_555 1_555
C11 C10 1_555 1_555
H11 C11 1_555 1_555
H12 C11 1_555 1_555
C12 C11 1_555 1_555
H13 C12 1_555 1_555
H14 C12 1_555 1_555
C13 H15 1_555 1_555
C14 C13 1_555 1_555
H16 C14 1_555 1_555
C15 C16 1_555 1_555
C16 C17 1_555 1_555
C17 H17 1_555 1_555
C18 C17 1_555 1_555
H18 C18 1_555 1_555
C19 C18 1_555 1_555
H19 C19 1_555 1_555
C20 C19 1_555 1_555
H20 C20 1_555 1_555
C21 C22 1_555 1_555
C22 C23 1_555 1_555
C23 C24 1_555 1_555
C24 H21 1_555 1_555
C25 C24 1_555 1_555
H22 C25 1_555 1_555
C26 C25 1_555 1_555
C27 C22 1_555 1_555
H23 C27 1_555 1_555
C28 C23 1_555 1_555
C29 C30 1_555 1_555
C30 C31 1_555 1_555
C31 H24 1_555 1_555
C32 C31 1_555 1_555
C33 C32 1_555 1_555
H25 C33 1_555 1_555
C34 C33 1_555 1_555
H26 C34 1_555 1_555
C35 C30 1_555 1_555
C36 C35 1_555 1_555
N1 C4 1_555 1_555
N2 Cd1 1_555 1_555
N3 C1 1_555 1_555
N4 C16 1_555 1_555
N5 Cd2 1_555 1_555
N6 C12 1_555 1_555
O1 C21 1_555 1_555
O2 Cd1 1_555 1_555
O3 Cd1 1_555 1_555
O4 C28 1_555 1_555
O5 C29 1_555 1_555
O6 Cd1 1_555 1_555
O7 C36 1_555 1_555
O8 C36 1_555 1_555
Cd1A N1A 1_555 1_555
Cd1A_2 O3 1_555 1_555
Cd1_2 O3A 1_555 1_555
Cd1A_3 O6A 1_555 1_555
Cd2_2 O1 1_555 1_555
Cd2A O7 1_555 1_555
Cd2A_2 O1A 1_555 1_555
Cd2A_3 O5A 1_555 1_555
Cd2_3 O7A 1_555 1_555
Cd2A_4 N4A 1_555 1_555
C1A H1A 1_555 1_555
C2A C1A 1_555 1_555
H2A C2A 1_555 1_555
C3A C4A 1_555 1_555
C4A C5A 1_555 1_555
C5A H3A 1_555 1_555
C6A C5A 1_555 1_555
H4A C6A 1_555 1_555
C7A C6A 1_555 1_555
H5A C7A 1_555 1_555
C8A C7A 1_555 1_555
H6A C8A 1_555 1_555
C9A H7A 1_555 1_555
H8A C9A 1_555 1_555
C10A C9A 1_555 1_555
H9A C10A 1_555 1_555
H10A C10A 1_555 1_555
C11A C10A 1_555 1_555
H11A C11A 1_555 1_555
H12A C11A 1_555 1_555
C12A C11A 1_555 1_555
H13A C12A 1_555 1_555
H14A C12A 1_555 1_555
C13A H15A 1_555 1_555
C14A C13A 1_555 1_555
H16A C14A 1_555 1_555
C15A C16A 1_555 1_555
C16A C17A 1_555 1_555
C17A H17A 1_555 1_555
C18A C17A 1_555 1_555
H18A C18A 1_555 1_555
C19A C18A 1_555 1_555
H19A C19A 1_555 1_555
C20A C19A 1_555 1_555
H20A C20A 1_555 1_555
C21A C22A 1_555 1_555
C22A C23A 1_555 1_555
C23A C24A 1_555 1_555
C24A H21A 1_555 1_555
C25A C24A 1_555 1_555
H22A C25A 1_555 1_555
C26A C26 1_555 1_555
C27A C22A 1_555 1_555
H23A C27A 1_555 1_555
C28A C23A 1_555 1_555
C29A C30A 1_555 1_555
C30A C31A 1_555 1_555
C31A H24A 1_555 1_555
C32A C32 1_555 1_555
C33A C32A 1_555 1_555
H25A C33A 1_555 1_555
C34A C33A 1_555 1_555
H26A C34A 1_555 1_555
C35A C30A 1_555 1_555
C36A C35A 1_555 1_555
N1A C4A 1_555 1_555
N2A Cd1A 1_555 1_555
N3A C1A 1_555 1_555
N4A C16A 1_555 1_555
N4_2 Cd2_2 1_555 1_555
N5A Cd2A_4 1_555 1_555
N5_2 Cd2_2 1_555 1_555
N6A C12A 1_555 1_555
O1A C21A 1_555 1_555
O1_2 Cd2 1_555 1_555
O2A Cd1A 1_555 1_555
O2_2 Cd2 1_555 1_555
O3A Cd1A 1_555 1_555
O3A_2 Cd1 1_555 1_555
O3_2 Cd1A 1_555 1_555
O4A C28A 1_555 1_555
O5A C29A 1_555 1_555
O5_2 Cd2 1_555 1_555
O6A C29A 1_555 1_555
O6A_2 Cd1A 1_555 1_555
O7A C36A 1_555 1_555
O7A_2 Cd2 1_555 1_555
O7A_3 Cd2_2 1_555 1_555
O8A C36A 1_555 1_555
C2 N2 1_555 1_555
C3 N2 1_555 1_555
C3 N3 1_555 1_555
C8 N1 1_555 1_555
C9 N3 1_555 1_555
C13 N6 1_555 1_555
C14 N5 1_555 1_555
C15 N5 1_555 1_555
C15 N6 1_555 1_555
C20 N4 1_555 1_555
C21 O2 1_555 1_555
C26 C27 1_555 1_555
C28 O3 1_555 1_555
C29 O6 1_555 1_555
C34 C35 1_555 1_555
O2 Cd2_2 1_555 1_555
O5 Cd2_2 1_555 1_555
Cd1A_2 O3A_2 1_555 1_555
Cd1_2 O3_2 1_555 1_555
Cd2A_2 O2A 1_555 1_555
C2A N2A 1_555 1_555
C3A N2A 1_555 1_555
C3A N3A 1_555 1_555
C8A N1A 1_555 1_555
C9A N3A 1_555 1_555
C13A N6A 1_555 1_555
C14A N5A 1_555 1_555
C15A N5A 1_555 1_555
C15A N6A 1_555 1_555
C20A N4A 1_555 1_555
C21A O2A 1_555 1_555
C25A C26A 1_555 1_555
C26A C27A 1_555 1_555
C28A O3A 1_555 1_555
C31A C32A 1_555 1_555
C34A C35A 1_555 1_555

#END
