
#######################################################################
#
#                 Cambridge Crystallographic Data Centre
#                                CCDC 
#
#######################################################################
#
# If this CIF has been generated from an entry in the Cambridge 
# Structural Database, then it will include bibliographic, chemical, 
# crystal, experimental, refinement or atomic coordinate data resulting 
# from the CCDC's data processing and validation procedures.
#
#######################################################################

data_EJIDUW02
_symmetry_cell_setting           triclinic
_symmetry_space_group_name_H-M   'P -1'
_symmetry_Int_Tables_number      2
_space_group_name_Hall           '-P 1'
loop_
_symmetry_equiv_pos_site_id
_symmetry_equiv_pos_as_xyz
1 x,y,z
2 -x,-y,-z
_cell_length_a                   9.241(1)
_cell_length_b                   9.751(2)
_cell_length_c                   10.661(2)
_cell_angle_alpha                106.93(3)
_cell_angle_beta                 95.32(2)
_cell_angle_gamma                118.32(2)
_cell_volume                     778.031
loop_
_atom_site_label
_atom_site_type_symbol
_atom_site_fract_x
_atom_site_fract_y
_atom_site_fract_z
Nd1 Nd 0.763822(11) 0.543509(11) 0.018391(9)
O1 O 0.9345(2) 0.4511(2) 0.11082(16)
O2 O 0.50504(19) 0.5332(2) 0.13285(15)
O3 O 0.45757(18) -0.23722(18) 0.01884(16)
O4 O 1.11968(19) 0.3831(2) 0.16619(17)
O5 O 0.30890(18) -0.27039(18) 0.16802(16)
O6 O 0.7559(2) 0.6337(2) 0.26385(16)
C1 C 1.0055(2) 0.4148(2) 0.19054(19)
C2 C 0.5003(3) 0.0135(3) 0.1899(2)
H1 H 0.4490 0.0373 0.1279
H2 H 0.4690 0.0330 0.2728
C3 C 0.7651(2) 0.3006(2) 0.2985(2)
H3 H 0.7340 0.3002 0.3895
H4 H 0.7021 0.3403 0.2494
C4 C 0.6027(3) 0.5949(2) 0.25053(19)
C5 C 0.9572(3) 0.4127(2) 0.3208(2)
H5 H 0.9929 0.5377 0.3820
H6 H 1.0162 0.3780 0.3739
C6 C 0.5375(3) 0.6157(3) 0.3742(2)
H7 H 0.6070 0.7229 0.4305
H8 H 0.4171 0.5938 0.3567
C7 C 0.4196(2) -0.1748(2) 0.1221(2)
C8 C 0.6936(3) 0.1151(2) 0.2149(2)
H9 H 0.7365 0.0601 0.2639
H10 H 0.7156 0.0946 0.1350
O7 O 0.7732(2) 0.8075(2) 0.03738(19)
H11 H 0.6823 0.8025 0.0300
H12 H 0.8536 0.9063 0.0815
O8 O 1.0487(2) 0.7942(2) 0.1505(2)
H13 H 1.0847 0.8908 0.1849
H14 H 1.1333 0.7839 0.1671
C9 C 0.5361(3) 0.4945(3) 0.4388(2)
H19 H 0.6480 0.5221 0.4634
H20 H 0.4657 0.3672 0.3673
Nd1A Nd 0.236178(11) -0.543509(11) -0.018391(9)
Nd1A_2 Nd 0.236178(11) 0.456491(11) -0.018391(9)
Nd1A_3 Nd 1.236178(11) 0.456491(11) -0.018391(9)
Nd1_2 Nd 0.763822(11) 0.543509(11) 1.018391(9)
Nd1A_4 Nd 0.236178(11) 0.456491(11) 0.981609(9)
Nd1_3 Nd -0.236178(11) -0.456491(11) 0.018391(9)
O1A O 0.0655(2) -0.4511(2) -0.11082(16)
O1A_2 O 0.0655(2) 0.5489(2) 0.88918(16)
O2A O 0.49496(19) 0.4668(2) 0.86715(15)
O2A_2 O 0.49496(19) 0.4668(2) -0.13285(15)
O2_2 O 0.50504(19) 0.5332(2) 1.13285(15)
O3A O 0.54243(18) 0.23722(18) -0.01884(16)
O3_2 O 0.45757(18) 0.76278(18) 1.01884(16)
O4A O -0.11968(19) -0.3831(2) -0.16619(17)
O4A_2 O 0.88032(19) 0.6169(2) -0.16619(17)
O4_2 O 0.11968(19) 0.3831(2) 1.16619(17)
O5A O 0.69110(18) 0.27039(18) -0.16802(16)
O5_2 O 0.30890(18) 0.72961(18) 1.16802(16)
O6A O 0.2441(2) 0.3663(2) 0.73615(16)
C1A C -0.0055(2) -0.4148(2) -0.19054(19)
C2A C 0.4997(3) -0.0135(3) -0.1899(2)
H1A H 0.5510 -0.0373 -0.1279
H2A H 0.5310 -0.0330 -0.2728
C3A C 0.2349(2) -0.3006(2) -0.2985(2)
H3A H 0.2660 -0.3002 -0.3895
H4A H 0.2979 -0.3403 -0.2494
C4A C 0.3973(3) 0.4051(2) 0.74947(19)
C5A C 0.0428(3) -0.4127(2) -0.3208(2)
H5A H 0.0071 -0.5377 -0.3820
H6A H -0.0162 -0.3780 -0.3739
C6A C 0.4625(3) 0.3843(3) 0.6258(2)
H7A H 0.3930 0.2771 0.5695
H8A H 0.5829 0.4062 0.6433
C7A C 0.5804(2) 0.1748(2) -0.1221(2)
C8A C 0.3064(3) -0.1151(2) -0.2149(2)
H9A H 0.2635 -0.0601 -0.2639
H10A H 0.2844 -0.0946 -0.1350
O7A O 0.2268(2) 0.1925(2) 0.96262(19)
H11A H 0.3177 0.1975 0.9700
H12A H 0.1464 0.0937 0.9185
O8A O -0.0487(2) 0.2058(2) 0.8495(2)
H13A H -0.0847 0.1092 0.8151
H14A H -0.1333 0.2161 0.8329
C9A C 0.4639(3) 0.5055(3) 0.5612(2)
H19A H 0.3520 0.4779 0.5366
H20A H 0.5343 0.6328 0.6327
O9 O 1.0722(3) 1.1007(2) 0.2359(2)
H15 H 1.0582 1.1355 0.3200
H16 H 1.0952 1.1726 0.2080
O10 O 1.0092(3) 0.8598(3) 0.5048(2)
H17 H 0.9310 0.7791 0.4362
H18 H 1.1224 0.8828 0.5101
O11 O 0.6787(3) 0.1205(4) -0.4514(2)
H21 H 0.7733 0.0984 -0.4644
H22 H 0.7006 0.1814 -0.3611
loop_
_geom_bond_atom_site_label_1
_geom_bond_atom_site_label_2
_geom_bond_site_symmetry_1
_geom_bond_site_symmetry_2
Nd1 O1 1_555 1_555
O1 C1 1_555 1_555
O2 Nd1 1_555 1_555
O3 C7 1_555 1_555
O4 C1 1_555 1_555
O5 C7 1_555 1_555
O6 Nd1 1_555 1_555
C1 C5 1_555 1_555
C2 H1 1_555 1_555
H2 C2 1_555 1_555
C3 H3 1_555 1_555
H4 C3 1_555 1_555
C4 O2 1_555 1_555
C5 C3 1_555 1_555
H5 C5 1_555 1_555
H6 C5 1_555 1_555
C6 C4 1_555 1_555
H7 C6 1_555 1_555
H8 C6 1_555 1_555
C7 C2 1_555 1_555
C8 C2 1_555 1_555
H9 C8 1_555 1_555
H10 C8 1_555 1_555
O7 Nd1 1_555 1_555
H11 O7 1_555 1_555
H12 O7 1_555 1_555
O8 Nd1 1_555 1_555
H13 O8 1_555 1_555
H14 O8 1_555 1_555
O9 H15 1_555 1_555
H16 O9 1_555 1_555
O10 H17 1_555 1_555
H18 O10 1_555 1_555
C9 C6 1_555 1_555
H19 C9 1_555 1_555
H20 C9 1_555 1_555
O11 H21 1_555 1_555
H22 O11 1_555 1_555
Nd1A O3 1_555 1_555
Nd1A_2 O2 1_555 1_555
Nd1A_3 O4 1_555 1_555
Nd1_2 O2A 1_555 1_555
Nd1A_4 O1A_2 1_555 1_555
Nd1_3 O4A 1_555 1_555
O1A Nd1A 1_555 1_555
O2A Nd1A_4 1_555 1_555
O2A_2 Nd1 1_555 1_555
O2_2 Nd1_2 1_555 1_555
O3A Nd1 1_555 1_555
O3_2 Nd1A_4 1_555 1_555
O4A C1A 1_555 1_555
O4A_2 Nd1 1_555 1_555
O4_2 Nd1A_4 1_555 1_555
O5A Nd1 1_555 1_555
O5_2 Nd1A_4 1_555 1_555
O6A Nd1A_4 1_555 1_555
C1A O1A 1_555 1_555
C2A H1A 1_555 1_555
H2A C2A 1_555 1_555
C3A H3A 1_555 1_555
H4A C3A 1_555 1_555
C4A O2A 1_555 1_555
C5A C1A 1_555 1_555
H5A C5A 1_555 1_555
H6A C5A 1_555 1_555
C6A C4A 1_555 1_555
H7A C6A 1_555 1_555
H8A C6A 1_555 1_555
C7A O3A 1_555 1_555
C8A C2A 1_555 1_555
H9A C8A 1_555 1_555
H10A C8A 1_555 1_555
O7A Nd1A_4 1_555 1_555
H11A O7A 1_555 1_555
H12A O7A 1_555 1_555
O8A Nd1A_4 1_555 1_555
H13A O8A 1_555 1_555
H14A O8A 1_555 1_555
C9A C9 1_555 1_555
H19A C9A 1_555 1_555
H20A C9A 1_555 1_555
O5 Nd1A 1_555 1_555
O6 C4 1_555 1_555
C3 C8 1_555 1_555
Nd1A_2 O2A_2 1_555 1_555
Nd1A_4 O2_2 1_555 1_555
O5A C7A 1_555 1_555
O6A C4A 1_555 1_555
C2A C7A 1_555 1_555
C3A C5A 1_555 1_555
C3A C8A 1_555 1_555
C6A C9A 1_555 1_555

#END
