
#######################################################################
#
#                 Cambridge Crystallographic Data Centre
#                                CCDC 
#
#######################################################################
#
# If this CIF has been generated from an entry in the Cambridge 
# Structural Database, then it will include bibliographic, chemical, 
# crystal, experimental, refinement or atomic coordinate data resulting 
# from the CCDC's data processing and validation procedures.
#
#######################################################################

data_EJOGOZ
_symmetry_cell_setting           rhombohedral
_symmetry_space_group_name_H-M   'R -3'
_symmetry_Int_Tables_number      148
_space_group_name_Hall           '-R 3'
loop_
_symmetry_equiv_pos_site_id
_symmetry_equiv_pos_as_xyz
1 x,y,z
2 -y,x-y,z
3 -x+y,-x,z
4 2/3+x,1/3+y,1/3+z
5 2/3-y,1/3+x-y,1/3+z
6 2/3-x+y,1/3-x,1/3+z
7 2/3+y,1/3-x+y,1/3-z
8 2/3+x-y,1/3+x,1/3-z
9 1/3+x,2/3+y,2/3+z
10 -x,-y,-z
11 y,-x+y,-z
12 x-y,x,-z
13 1/3-x,2/3-y,2/3-z
14 1/3+y,2/3-x+y,2/3-z
15 1/3+x-y,2/3+x,2/3-z
16 1/3-y,2/3+x-y,2/3+z
17 1/3-x+y,2/3-x,2/3+z
18 2/3-x,1/3-y,1/3-z
_cell_length_a                   32.602(2)
_cell_length_b                   32.602(2)
_cell_length_c                   10.6162(4)
_cell_angle_alpha                90
_cell_angle_beta                 90
_cell_angle_gamma                120.0
_cell_volume                     9772.11
loop_
_atom_site_label
_atom_site_type_symbol
_atom_site_fract_x
_atom_site_fract_y
_atom_site_fract_z
Cu1 Cu -0.61009(2) 0.01245(2) -0.44138(6)
O1 O -0.5675(1) 0.0577(1) -0.5696(3)
O2 O -0.6345(1) 0.0414(1) -0.6601(3)
O3 O -0.6291(1) 0.0919(1) -0.8722(3)
N1 N -0.3499(2) 0.0491(2) 0.0271(4)
N2 N -0.5485(2) 0.0261(2) -0.3097(4)
C1 C -0.3767(4) 0.0133(3) -0.0451(9)
C2 C -0.4160(4) 0.0077(3) -0.1068(9)
C3 C -0.4302(2) 0.0404(2) -0.0976(5)
C4 C -0.4028(3) 0.0767(3) -0.0186(8)
C5 C -0.3640(3) 0.0799(2) 0.0400(8)
C6 C -0.5333(3) 0.0516(3) -0.2051(7)
C7 C -0.4962(3) 0.0569(3) -0.1332(7)
C8 C -0.4710(2) 0.0356(2) -0.1687(5)
C9 C -0.4858(3) 0.0090(3) -0.2768(7)
C10 C -0.5241(3) 0.0049(3) -0.3424(7)
C11 C -0.5897(2) 0.0637(2) -0.6592(5)
C12 C -0.5625(2) 0.0967(2) -0.7608(5)
C13 C -0.5839(2) 0.1075(2) -0.8606(5)
C14 C -0.5532(3) 0.1377(3) -0.9560(7)
C15 C -0.5055(3) 0.1555(4) -0.9542(9)
C16 C -0.4842(3) 0.1457(3) -0.8551(9)
C17 C -0.5129(2) 0.1161(3) -0.7587(7)
H1 H -0.371(3) -0.006(3) -0.049(8)
H2 H -0.435(3) -0.023(3) -0.145(9)
H3 H -0.406(3) 0.099(3) -0.017(8)
H4 H -0.341(2) 0.107(2) 0.086(6)
H5 H -0.552(2) 0.060(2) -0.181(6)
H6 H -0.490(2) 0.072(2) -0.065(6)
H7 H -0.475(3) -0.008(3) -0.304(7)
H8 H -0.534(2) -0.012(3) -0.412(7)
H9 H -0.567(3) 0.144(3) -1.027(8)
H10 H -0.480(3) 0.178(3) -1.015(7)
H11 H -0.450(3) 0.157(3) -0.853(7)
H12 H -0.497(3) 0.102(3) -0.691(7)
O2E O -0.6574(1) -0.0322(1) -0.3268(3)
Cu1O Cu -0.67912(2) 0.04413(3) -0.77471(6)
Cu1N Cu -0.28921(3) 0.05658(2) 0.10805(6)
N1M N -0.6176(2) 0.0657(3) -0.3604(4)
O3E O -0.6123(1) -0.0376(1) -0.5389(3)
loop_
_geom_bond_atom_site_label_1
_geom_bond_atom_site_label_2
_geom_bond_site_symmetry_1
_geom_bond_site_symmetry_2
Cu1 O1 1_555 1_555
O1 C11 1_555 1_555
O2 C11 1_555 1_555
O3 C13 1_555 1_555
N1 C1 1_555 1_555
N2 Cu1 1_555 1_555
C1 C2 1_555 1_555
C2 C3 1_555 1_555
C3 C4 1_555 1_555
C4 C5 1_555 1_555
C5 N1 1_555 1_555
C6 N2 1_555 1_555
C7 C6 1_555 1_555
C8 C3 1_555 1_555
C9 C8 1_555 1_555
C10 N2 1_555 1_555
C11 C12 1_555 1_555
C12 C13 1_555 1_555
C13 C14 1_555 1_555
C14 C15 1_555 1_555
C15 C16 1_555 1_555
C16 C17 1_555 1_555
C17 C12 1_555 1_555
H1 C1 1_555 1_555
H2 C2 1_555 1_555
H3 C4 1_555 1_555
H4 C5 1_555 1_555
H5 C6 1_555 1_555
H6 C7 1_555 1_555
H7 C9 1_555 1_555
H8 C10 1_555 1_555
H9 C14 1_555 1_555
H10 C15 1_555 1_555
H11 C16 1_555 1_555
H12 C17 1_555 1_555
O2E Cu1 1_555 1_555
Cu1O O2 1_555 1_555
Cu1N N1 1_555 1_555
N1M Cu1 1_555 1_555
O3E Cu1 1_555 1_555
O3 Cu1O 1_555 1_555
C7 C8 1_555 1_555
C9 C10 1_555 1_555

#END
