
#######################################################################
#
#                 Cambridge Crystallographic Data Centre
#                                CCDC 
#
#######################################################################
#
# If this CIF has been generated from an entry in the Cambridge 
# Structural Database, then it will include bibliographic, chemical, 
# crystal, experimental, refinement or atomic coordinate data resulting 
# from the CCDC's data processing and validation procedures.
#
#######################################################################

data_EMUYAM01
_symmetry_cell_setting           trigonal
_symmetry_space_group_name_H-M   'P -3'
_symmetry_Int_Tables_number      147
_space_group_name_Hall           '-P 3'
loop_
_symmetry_equiv_pos_site_id
_symmetry_equiv_pos_as_xyz
1 x,y,z
2 -y,x-y,z
3 -x+y,-x,z
4 -x,-y,-z
5 y,-x+y,-z
6 x-y,x,-z
_cell_length_a                   15.2900(9)
_cell_length_b                   15.2900(9)
_cell_length_c                   6.9050(3)
_cell_angle_alpha                90
_cell_angle_beta                 90
_cell_angle_gamma                120
_cell_volume                     1398.01
loop_
_atom_site_label
_atom_site_type_symbol
_atom_site_fract_x
_atom_site_fract_y
_atom_site_fract_z
Ag1 Ag 0.26446(2) -0.26446(2) -0.00001(3)
Fe1 Fe 0.5000 0.0000 0.5000
N1 N 0.4855(2) -0.1041(2) 0.6823(4)
N2 N 0.4107(2) -0.1036(2) 0.3171(4)
C1 C 0.3574(3) -0.1629(3) 0.2098(4)
C2 C 0.4795(3) -0.1629(3) 0.7907(5)
N3 N 0.6254(3) 0.0148(3) 0.3821(6)
C3 C 0.7056(3) 0.1111(3) 0.3450(7)
H1 H 0.6989 0.1673 0.3692
C4 C 0.7958(3) 0.1235(3) 0.2719(7)
H2 H 0.8494 0.1879 0.2471
C5 C 0.8058(3) 0.0395(3) 0.2358(6)
H3 H 0.8661 0.0477 0.1868
C6 C 0.7256(3) -0.0569(3) 0.2729(6)
C7 C 0.6354(3) -0.0692(3) 0.3460(6)
H4 H 0.5818 -0.1337 0.3708
C8 C 0.7397(6) -0.1391(6) 0.2423(10)
N4 N 0.7530(6) -0.2061(6) 0.2152(9)
N1C N 0.5145(2) 0.1041(2) 0.3177(4)
C2C C 0.5205(3) 0.1629(3) 0.2093(5)
N2C N 0.5893(2) 0.1036(2) 0.6829(4)
C1C C 0.6426(3) 0.1629(3) 0.7902(4)
N3C N 0.3746(3) -0.0148(3) 0.6179(6)
C3C C 0.2944(3) -0.1111(3) 0.6550(7)
H1C H 0.3011 -0.1673 0.6308
C4C C 0.2042(3) -0.1235(3) 0.7281(7)
H2C H 0.1506 -0.1879 0.7529
C5C C 0.1942(3) -0.0395(3) 0.7642(6)
H3C H 0.1339 -0.0477 0.8132
C6C C 0.2744(3) 0.0569(3) 0.7271(6)
C7C C 0.3646(3) 0.0692(3) 0.6540(6)
H4C H 0.4182 0.1337 0.6292
C8C C 0.2603(6) 0.1391(6) 0.7577(10)
N4C N 0.2470(6) 0.2061(6) 0.7848(9)
Ag1C Ag 0.73554(2) 0.26446(2) 1.00001(3)
Ag1B Ag 0.47108(3) -0.26446(2) 0.99999(3)
Ag1E Ag 0.52892(3) 0.26446(2) 0.00001(3)
N1A N 0.1041(2) -0.4104(3) -0.3177(4)
C2A C 0.1629(3) -0.3576(4) -0.2093(5)
N1D N 0.8959(2) 0.4104(3) 1.3177(4)
C2D C 0.8371(3) 0.3576(4) 1.2093(5)
N2B N 0.4857(3) -0.4107(2) 1.3171(4)
C1B C 0.4797(4) -0.3574(3) 1.2098(4)
N2E N 0.5143(3) 0.4107(2) -0.3171(4)
C1E C 0.5203(4) 0.3574(3) -0.2098(4)
Fe1A Fe 0.0000 -0.5000 -0.5000
Fe1D Fe 1.0000 0.5000 1.5000
N1D_2 N -0.1041(2) -0.5896(3) -0.6823(4)
C2D_2 C -0.1629(3) -0.6424(4) -0.7907(5)
N2A N 0.1036(2) -0.4857(3) -0.6829(4)
C1A C 0.1629(3) -0.4797(4) -0.7902(4)
N2D N -0.1036(2) -0.5143(3) -0.3171(4)
C1D C -0.1629(3) -0.5203(4) -0.2098(4)
N3A N -0.0148(3) -0.3894(4) -0.6179(6)
C3A C -0.1111(3) -0.4055(4) -0.6550(7)
H1A H -0.1673 -0.4684 -0.6308
C4A C -0.1235(3) -0.3277(4) -0.7281(7)
H2A H -0.1879 -0.3385 -0.7529
C5A C -0.0395(3) -0.2337(4) -0.7642(6)
H3A H -0.0477 -0.1816 -0.8132
C6A C 0.0569(3) -0.2175(4) -0.7271(6)
C7A C 0.0692(3) -0.2954(4) -0.6540(6)
H4A H 0.1337 -0.2845 -0.6292
C8A C 0.1391(6) -0.1212(8) -0.7577(10)
N4A N 0.2061(6) -0.0409(8) -0.7848(9)
N3D N 0.0148(3) -0.6106(4) -0.3821(6)
C3D C 0.1111(3) -0.5945(4) -0.3450(7)
H1D H 0.1673 -0.5316 -0.3692
C4D C 0.1235(3) -0.6723(4) -0.2719(7)
H2D H 0.1879 -0.6615 -0.2471
C5D C 0.0395(3) -0.7663(4) -0.2358(6)
H3D H 0.0477 -0.8184 -0.1868
C6D C -0.0569(3) -0.7825(4) -0.2729(6)
C7D C -0.0692(3) -0.7046(4) -0.3460(6)
H4D H -0.1337 -0.7155 -0.3708
C8D C -0.1391(6) -0.8788(8) -0.2423(10)
N4D N -0.2061(6) -0.9591(8) -0.2152(9)
N1A_2 N 1.1041(2) 0.5896(3) 1.6823(4)
C2A_2 C 1.1629(3) 0.6424(4) 1.7907(5)
N3D_2 N 1.0148(3) 0.3894(4) 1.6179(6)
C3D_2 C 1.1111(3) 0.4055(4) 1.6550(7)
H1D_2 H 1.1673 0.4684 1.6308
C4D_2 C 1.1235(3) 0.3277(4) 1.7281(7)
H2D_2 H 1.1879 0.3385 1.7529
C5D_2 C 1.0395(3) 0.2337(4) 1.7642(6)
H3D_2 H 1.0477 0.1816 1.8132
C6D_2 C 0.9431(3) 0.2175(4) 1.7271(6)
C7D_2 C 0.9308(3) 0.2954(4) 1.6540(6)
H4D_2 H 0.8663 0.2845 1.6292
C8D_2 C 0.8609(6) 0.1212(8) 1.7577(10)
N4D_2 N 0.7939(6) 0.0409(8) 1.7848(9)
N3A_2 N 0.9852(3) 0.6106(4) 1.3821(6)
C3A_2 C 0.8889(3) 0.5945(4) 1.3450(7)
H1A_2 H 0.8327 0.5316 1.3692
C4A_2 C 0.8765(3) 0.6723(4) 1.2719(7)
H2A_2 H 0.8121 0.6615 1.2471
C5A_2 C 0.9605(3) 0.7663(4) 1.2358(6)
H3A_2 H 0.9523 0.8184 1.1868
C6A_2 C 1.0569(3) 0.7825(4) 1.2729(6)
C7A_2 C 1.0692(3) 0.7046(4) 1.3460(6)
H4A_2 H 1.1337 0.7155 1.3708
C8A_2 C 1.1391(6) 0.8788(8) 1.2423(10)
N4A_2 N 1.2061(6) 0.9591(8) 1.2152(9)
Ag1A Ag 0.26446(2) -0.47108(3) -1.00001(3)
Ag1D Ag -0.26446(2) -0.52892(3) 0.00001(3)
Fe1B Fe 0.5000 -0.5000 1.5000
Fe1B_2 Fe 0.5000 0.5000 -0.5000
N2A_2 N 1.1036(2) 0.5143(3) 1.3171(4)
N2D_2 N 0.8964(2) 0.4857(3) 1.6829(4)
Ag1C_2 Ag -0.26446(2) -0.73554(2) -0.99999(3)
Ag1_2 Ag 1.26446(2) 0.73554(2) 1.99999(3)
C2B C 0.3576(4) -0.4795(3) -1.2093(5)
C2E C -0.3576(4) -0.5205(3) 0.2093(5)
O1 O 1.0000 0.0000 0.5000
O2 O 1.0000 0.0000 0.0000
N5? N 0.6102(3) -0.0154(3) 0.3825(6)
C9? C 0.7041(3) 0.0688(3) 0.3470(6)
H5? H 0.7146 0.1332 0.3718
C10? C 0.7824(3) 0.0569(3) 0.2744(6)
C11? C 0.7667(3) -0.0392(3) 0.2373(6)
H6? H 0.8190 -0.0472 0.1887
C12? C 0.6728(3) -0.1235(3) 0.2728(6)
H7? H 0.6623 -0.1878 0.2480
C13? C 0.5946(3) -0.1116(3) 0.3454(6)
H8? H 0.5317 -0.1680 0.3692
C14? C 0.8798(6) 0.1399(6) 0.2403(10)
N6? N 0.9604(6) 0.2066(6) 0.2171(9)
loop_
_geom_bond_atom_site_label_1
_geom_bond_atom_site_label_2
_geom_bond_site_symmetry_1
_geom_bond_site_symmetry_2
Ag1 C1 1_555 1_555
Fe1 N1 1_555 1_555
N1 C2 1_555 1_555
N2 Fe1 1_555 1_555
C1 N2 1_555 1_555
C2 Ag1B 1_555 1_555
N3 Fe1 1_555 1_555
C3 N3 1_555 1_555
H1 C3 1_555 1_555
C4 C3 1_555 1_555
H2 C4 1_555 1_555
C5 C4 1_555 1_555
H3 C5 1_555 1_555
C6 C5 1_555 1_555
C7 N3 1_555 1_555
H4 C7 1_555 1_555
C8 C6 1_555 1_555
N4 C8 1_555 1_555
N1C Fe1 1_555 1_555
C2C N1C 1_555 1_555
N2C Fe1 1_555 1_555
C1C N2C 1_555 1_555
N3C Fe1 1_555 1_555
C3C N3C 1_555 1_555
H1C C3C 1_555 1_555
C4C C3C 1_555 1_555
H2C C4C 1_555 1_555
C5C C4C 1_555 1_555
H3C C5C 1_555 1_555
C6C C5C 1_555 1_555
C7C N3C 1_555 1_555
H4C C7C 1_555 1_555
C8C C6C 1_555 1_555
N4C C8C 1_555 1_555
Ag1C C1C 1_555 1_555
Ag1B C1B 1_555 1_555
Ag1E C2C 1_555 1_555
N1A C2A 1_555 1_555
C2A Ag1 1_555 1_555
N1D C2D 1_555 1_555
C2D Ag1C 1_555 1_555
N2B C1B 1_555 1_555
N2E C1E 1_555 1_555
C1E Ag1E 1_555 1_555
Fe1A N1A 1_555 1_555
Fe1D N1D 1_555 1_555
N1D_2 Fe1A 1_555 1_555
C2D_2 N1D_2 1_555 1_555
N2A Fe1A 1_555 1_555
C1A N2A 1_555 1_555
N2D Fe1A 1_555 1_555
C1D N2D 1_555 1_555
N3A Fe1A 1_555 1_555
C3A N3A 1_555 1_555
H1A C3A 1_555 1_555
C4A C3A 1_555 1_555
H2A C4A 1_555 1_555
C5A C4A 1_555 1_555
H3A C5A 1_555 1_555
C6A C5A 1_555 1_555
C7A N3A 1_555 1_555
H4A C7A 1_555 1_555
C8A C6A 1_555 1_555
N4A C8A 1_555 1_555
N3D Fe1A 1_555 1_555
C3D N3D 1_555 1_555
H1D C3D 1_555 1_555
C4D C3D 1_555 1_555
H2D C4D 1_555 1_555
C5D C4D 1_555 1_555
H3D C5D 1_555 1_555
C6D C5D 1_555 1_555
C7D N3D 1_555 1_555
H4D C7D 1_555 1_555
C8D C6D 1_555 1_555
N4D C8D 1_555 1_555
N1A_2 Fe1D 1_555 1_555
C2A_2 N1A_2 1_555 1_555
N3D_2 Fe1D 1_555 1_555
C3D_2 N3D_2 1_555 1_555
H1D_2 C3D_2 1_555 1_555
C4D_2 C3D_2 1_555 1_555
H2D_2 C4D_2 1_555 1_555
C5D_2 C4D_2 1_555 1_555
H3D_2 C5D_2 1_555 1_555
C6D_2 C5D_2 1_555 1_555
C7D_2 N3D_2 1_555 1_555
H4D_2 C7D_2 1_555 1_555
C8D_2 C6D_2 1_555 1_555
N4D_2 C8D_2 1_555 1_555
N3A_2 Fe1D 1_555 1_555
C3A_2 N3A_2 1_555 1_555
H1A_2 C3A_2 1_555 1_555
C4A_2 C3A_2 1_555 1_555
H2A_2 C4A_2 1_555 1_555
C5A_2 C4A_2 1_555 1_555
H3A_2 C5A_2 1_555 1_555
C6A_2 C5A_2 1_555 1_555
C7A_2 N3A_2 1_555 1_555
H4A_2 C7A_2 1_555 1_555
C8A_2 C6A_2 1_555 1_555
N4A_2 C8A_2 1_555 1_555
Ag1A C1A 1_555 1_555
Ag1D C1D 1_555 1_555
Fe1B N2B 1_555 1_555
Fe1B_2 N2E 1_555 1_555
N2A_2 Fe1D 1_555 1_555
N2D_2 Fe1D 1_555 1_555
Ag1C_2 C2D_2 1_555 1_555
Ag1_2 C2A_2 1_555 1_555
C2B Ag1A 1_555 1_555
C2E Ag1D 1_555 1_555
C6 C7 1_555 1_555
C6C C7C 1_555 1_555
C6A C7A 1_555 1_555
C6D C7D 1_555 1_555
C6D_2 C7D_2 1_555 1_555
C6A_2 C7A_2 1_555 1_555

#END
