
#######################################################################
#
#                 Cambridge Crystallographic Data Centre
#                                CCDC 
#
#######################################################################
#
# If this CIF has been generated from an entry in the Cambridge 
# Structural Database, then it will include bibliographic, chemical, 
# crystal, experimental, refinement or atomic coordinate data resulting 
# from the CCDC's data processing and validation procedures.
#
#######################################################################

data_ENISOK
_symmetry_cell_setting           monoclinic
_symmetry_space_group_name_H-M   'I 2/a'
_symmetry_Int_Tables_number      15
_space_group_name_Hall           '-I 2ya'
loop_
_symmetry_equiv_pos_site_id
_symmetry_equiv_pos_as_xyz
1 x,y,z
2 1/2-x,y,-z
3 1/2+x,1/2+y,1/2+z
4 -x,1/2+y,1/2-z
5 -x,-y,-z
6 1/2+x,-y,z
7 1/2-x,1/2-y,1/2-z
8 x,1/2-y,1/2+z
_cell_length_a                   12.9161(2)
_cell_length_b                   23.2940(4)
_cell_length_c                   14.1869(2)
_cell_angle_alpha                90
_cell_angle_beta                 94.2482(14)
_cell_angle_gamma                90
_cell_volume                     4256.65
loop_
_atom_site_label
_atom_site_type_symbol
_atom_site_fract_x
_atom_site_fract_y
_atom_site_fract_z
Cd1 Cd 0.2500 0.185943(10) 0.5000
Cd2 Cd 0.2500 0.2500 0.2500
O1 O 0.0914(2) 0.25303(15) 0.29969(19)
Si1 Si 0.7500 0.45678(4) 0.5000
C1 C 0.63398(19) 0.40869(10) 0.48885(18)
C2 C 0.6320(3) 0.35928(14) 0.5440(2)
H1 H 0.6876 0.3523 0.5901
C3 C 0.5518(2) 0.32012(13) 0.5337(2)
H2 H 0.5528 0.2869 0.5724
C4 C 0.4699(2) 0.32935(10) 0.46683(17)
C5 C 0.4682(2) 0.37874(13) 0.4136(2)
H3 H 0.4111 0.3863 0.3693
C6 C 0.5494(2) 0.41750(12) 0.4245(2)
H4 H 0.5471 0.4512 0.3866
C7 C 0.3834(2) 0.28617(11) 0.45223(17)
O2 O 0.38546(15) 0.24415(8) 0.51098(14)
O3 O 0.31657(15) 0.29291(9) 0.38584(13)
C8 C 0.74589(19) 0.50402(10) 0.60613(18)
C9 C 0.8102(2) 0.55272(11) 0.6148(2)
H5 H 0.8572 0.5604 0.5679
C10 C 0.8058(2) 0.58985(11) 0.69135(19)
H6 H 0.8492 0.6228 0.6961
C11 C 0.7383(2) 0.57882(11) 0.76045(17)
C12 C 0.6748(2) 0.53121(11) 0.75357(19)
H7 H 0.6281 0.5239 0.8009
C13 C 0.6790(2) 0.49405(11) 0.67790(18)
H8 H 0.6356 0.4611 0.6745
C14 C 0.7310(2) 0.62051(11) 0.84089(19)
O4 O 0.78081(18) 0.66724(8) 0.84006(14)
O5 O 0.6791(2) 0.60767(10) 0.90881(16)
Cd1_2 Cd 1.2500 0.185943(10) 0.5000
Cd1B Cd 0.7500 0.685943(10) 0.0000
Cd1B_2 Cd 0.7500 0.685943(10) 1.0000
Cd2A Cd 1.2500 0.2500 0.7500
Cd2B Cd 0.7500 0.7500 0.7500
Cd2C Cd 0.7500 0.7500 0.2500
O1F O 0.4086(2) 0.24697(15) 0.20031(19)
C1A C 0.86602(19) 0.40869(10) 0.51115(18)
C2A C 0.8680(3) 0.35928(14) 0.4560(2)
H1A H 0.8124 0.3523 0.4099
C3A C 0.9482(2) 0.32012(13) 0.4663(2)
H2A H 0.9472 0.2869 0.4276
C4A C 1.0301(2) 0.32935(10) 0.53317(17)
C5A C 1.0318(2) 0.37874(13) 0.5864(2)
H3A H 1.0889 0.3863 0.6307
C6A C 0.9506(2) 0.41750(12) 0.5755(2)
H4A H 0.9529 0.4512 0.6134
C7A C 1.1166(2) 0.28617(11) 0.54777(17)
O2A O 1.11454(15) 0.24415(8) 0.48902(14)
O2A_2 O 0.11454(15) 0.24415(8) 0.48902(14)
O3A O 1.18343(15) 0.29291(9) 0.61416(13)
O3F O 0.18343(15) 0.20709(9) 0.11416(13)
C8A C 0.75411(19) 0.50402(10) 0.39387(18)
C9A C 0.6898(2) 0.55272(11) 0.3852(2)
H5A H 0.6428 0.5604 0.4321
C10A C 0.6942(2) 0.58985(11) 0.30865(19)
H6A H 0.6508 0.6228 0.3039
C11A C 0.7617(2) 0.57882(11) 0.23955(17)
C12A C 0.8252(2) 0.53121(11) 0.24643(19)
H7A H 0.8719 0.5239 0.1991
C13A C 0.8210(2) 0.49405(11) 0.32210(18)
H8A H 0.8644 0.4611 0.3255
C14A C 0.7690(2) 0.62051(11) 0.15911(19)
C14B C 0.2310(2) 0.12051(11) 0.34089(19)
C14C C 0.2690(2) 0.12051(11) 0.65911(19)
O4A O 0.71919(18) 0.66724(8) 0.15994(14)
O4B O 0.28081(18) 0.16724(8) 0.34006(14)
O4C O 0.21919(18) 0.16724(8) 0.65994(14)
O4D O 0.21919(18) 0.33276(8) 0.15994(14)
O5A O 0.8209(2) 0.60767(10) 0.09119(16)
O5B O 0.1791(2) 0.10767(10) 0.40881(16)
O5C O 0.3209(2) 0.10767(10) 0.59119(16)
loop_
_geom_bond_atom_site_label_1
_geom_bond_atom_site_label_2
_geom_bond_site_symmetry_1
_geom_bond_site_symmetry_2
Cd1 O2 1_555 1_555
Cd2 O1 1_555 1_555
Si1 C1 1_555 1_555
C1 C2 1_555 1_555
C2 H1 1_555 1_555
C3 C2 1_555 1_555
H2 C3 1_555 1_555
C4 C3 1_555 1_555
C5 C4 1_555 1_555
H3 C5 1_555 1_555
C6 C1 1_555 1_555
H4 C6 1_555 1_555
C7 C4 1_555 1_555
O2 C7 1_555 1_555
O3 Cd2 1_555 1_555
C8 Si1 1_555 1_555
C9 C8 1_555 1_555
H5 C9 1_555 1_555
C10 C9 1_555 1_555
H6 C10 1_555 1_555
C11 C10 1_555 1_555
C12 C11 1_555 1_555
H7 C12 1_555 1_555
C13 C8 1_555 1_555
H8 C13 1_555 1_555
C14 C11 1_555 1_555
O4 C14 1_555 1_555
O5 C14 1_555 1_555
Cd1_2 O2A 1_555 1_555
Cd1B O4A 1_555 1_555
Cd1B_2 O4 1_555 1_555
Cd2A O3A 1_555 1_555
Cd2B O4 1_555 1_555
Cd2C O4A 1_555 1_555
O1F Cd2 1_555 1_555
C1A Si1 1_555 1_555
C2A C1A 1_555 1_555
H1A C2A 1_555 1_555
C3A C2A 1_555 1_555
H2A C3A 1_555 1_555
C4A C3A 1_555 1_555
C5A C4A 1_555 1_555
H3A C5A 1_555 1_555
C6A C1A 1_555 1_555
H4A C6A 1_555 1_555
C7A C4A 1_555 1_555
O2A C7A 1_555 1_555
O2A_2 Cd1 1_555 1_555
O3A C7A 1_555 1_555
O3F Cd2 1_555 1_555
C8A Si1 1_555 1_555
C9A C8A 1_555 1_555
H5A C9A 1_555 1_555
C10A C9A 1_555 1_555
H6A C10A 1_555 1_555
C11A C10A 1_555 1_555
C12A C11A 1_555 1_555
H7A C12A 1_555 1_555
C13A C8A 1_555 1_555
H8A C13A 1_555 1_555
C14A C11A 1_555 1_555
C14B O4B 1_555 1_555
C14C O4C 1_555 1_555
O4A C14A 1_555 1_555
O4B Cd1 1_555 1_555
O4C Cd1 1_555 1_555
O4D Cd2 1_555 1_555
O5A Cd1B 1_555 1_555
O5B Cd1 1_555 1_555
O5C Cd1 1_555 1_555
Cd2 O4B 1_555 1_555
C5 C6 1_555 1_555
C7 O3 1_555 1_555
C12 C13 1_555 1_555
O5 Cd1B_2 1_555 1_555
C5A C6A 1_555 1_555
C12A C13A 1_555 1_555
C14A O5A 1_555 1_555
C14B O5B 1_555 1_555
C14C O5C 1_555 1_555

#END
