
#######################################################################
#
#                 Cambridge Crystallographic Data Centre
#                                CCDC 
#
#######################################################################
#
# If this CIF has been generated from an entry in the Cambridge 
# Structural Database, then it will include bibliographic, chemical, 
# crystal, experimental, refinement or atomic coordinate data resulting 
# from the CCDC's data processing and validation procedures.
#
#######################################################################

data_EPEWAY
_symmetry_cell_setting           tetragonal
_symmetry_space_group_name_H-M   'P 41 2 2'
_symmetry_Int_Tables_number      91
_space_group_name_Hall           'P 4w 2c'
loop_
_symmetry_equiv_pos_site_id
_symmetry_equiv_pos_as_xyz
1 x,y,z
2 -x,-y,1/2+z
3 -y,x,1/4+z
4 y,-x,3/4+z
5 -x,y,-z
6 x,-y,1/2-z
7 y,x,3/4-z
8 -y,-x,1/4-z
_cell_length_a                   11.3140(2)
_cell_length_b                   11.3140(2)
_cell_length_c                   25.2429(10)
_cell_angle_alpha                90
_cell_angle_beta                 90
_cell_angle_gamma                90
_cell_volume                     3231.26
loop_
_atom_site_label
_atom_site_type_symbol
_atom_site_fract_x
_atom_site_fract_y
_atom_site_fract_z
C12 C 1.332(4) 0.4939(19) 0.0774(14)
N3 N 1.269(3) 0.505(3) 0.1337(16)
N4 N 1.474(5) 0.499(6) 0.085(2)
C13 C 1.378(6) 0.520(11) 0.1792(16)
C14 C 1.491(5) 0.434(17) 0.145(3)
O6 O 1.246(2) 0.480(2) 0.0417(10)
N4G N 1.501(6) 0.526(5) 0.165(2)
C12G C 1.5061(19) 0.668(4) 0.1726(14)
N3G N 1.495(3) 0.731(3) 0.1163(16)
C13G C 1.480(11) 0.622(6) 0.0708(16)
C14G C 1.566(17) 0.509(5) 0.105(3)
O6G O 1.520(2) 0.754(2) 0.2083(10)
Co1 Co 0.90371(11) 0.09629(11) 0.1250
Co2 Co 1.0000 0.20330(14) 0.0000
O1 O 1.0855(5) 0.0893(5) 0.1250(2)
O2 O 1.7242(5) 0.0951(6) 0.1247(2)
C1 C 0.8366(8) -0.0081(8) 0.0156(3)
O3 O 1.6663(5) 0.0886(6) 0.2097(2)
O4 O 1.1357(5) 0.2015(6) 0.0550(2)
O5 O 0.9028(5) 0.0661(5) 0.0387(2)
N1 N 0.8700(7) -0.0742(7) -0.0263(3)
H1 H 0.9403 -0.0760 -0.0392
C2 C 1.5208(7) 0.1166(8) 0.1445(3)
C3 C 1.1574(8) 0.1441(8) 0.0965(3)
C4 C 1.6477(8) 0.0971(8) 0.1604(3)
C5 C 1.3151(8) 0.1003(9) 0.1649(3)
H2 H 1.2558 0.0810 0.1889
C6 C 1.2860(8) 0.1394(8) 0.1136(3)
C7 C 1.4310(8) 0.0909(9) 0.1791(4)
H3 H 1.4497 0.0663 0.2132
C8 C 1.4926(8) 0.1549(9) 0.0933(3)
H4 H 1.5522 0.1711 0.0690
N2 N 0.7268(7) -0.0353(8) 0.0293(3)
H5 H 0.6881 0.0001 0.0539
C9 C 1.3763(8) 0.1682(9) 0.0795(4)
H6 H 1.3578 0.1974 0.0460
C10 C 0.6792(10) -0.1323(11) -0.0024(4)
H7 H 0.6017 -0.1133 -0.0164
H8 H 0.6745 -0.2048 0.0180
C11 C 0.7712(10) -0.1413(10) -0.0463(4)
H9 H 0.7933 -0.2230 -0.0526
H10 H 0.7416 -0.1075 -0.0791
O1_2 O 0.0855(5) 0.0893(5) 0.1250(2)
O2_2 O 0.7242(5) 0.0951(6) 0.1247(2)
O3_2 O 0.6663(5) 0.0886(6) 0.2097(2)
O4_2 O 0.1357(5) 0.2015(6) 0.0550(2)
C2_2 C 0.5208(7) 0.1166(8) 0.1445(3)
C3_2 C 0.1574(8) 0.1441(8) 0.0965(3)
C4_2 C 0.6477(8) 0.0971(8) 0.1604(3)
C5_2 C 0.3151(8) 0.1003(9) 0.1649(3)
H2_2 H 0.2558 0.0810 0.1889
C6_2 C 0.2860(8) 0.1394(8) 0.1136(3)
C7_2 C 0.4310(8) 0.0909(9) 0.1791(4)
H3_2 H 0.4497 0.0663 0.2132
C8_2 C 0.4926(8) 0.1549(9) 0.0933(3)
H4_2 H 0.5522 0.1711 0.0690
C9_2 C 0.3763(8) 0.1682(9) 0.0795(4)
H6_2 H 0.3578 0.1974 0.0460
C1G C 1.0081(8) 0.1634(8) 0.2344(3)
O5G O 0.9339(5) 0.0972(5) 0.2113(2)
N1G N 1.0742(7) 0.1300(7) 0.2763(3)
H1G H 1.0760 0.0597 0.2892
N2G N 1.0353(8) 0.2732(7) 0.2207(3)
H5G H 0.9999 0.3119 0.1961
C10G C 1.1323(11) 0.3208(10) 0.2524(4)
H7G H 1.1133 0.3983 0.2664
H8G H 1.2048 0.3255 0.2320
C11G C 1.1413(10) 0.2288(10) 0.2963(4)
H9G H 1.2230 0.2067 0.3026
H10G H 1.1075 0.2584 0.3291
O1G O 0.9107(5) -0.0855(5) 0.1250(2)
O2G O 0.9049(6) 0.2758(5) 0.1253(2)
O3C O 1.0886(6) 0.3337(5) -0.0403(2)
O3G O 0.9114(6) 0.3337(5) 0.0403(2)
O4D O 0.8643(5) 0.2015(6) -0.0550(2)
O5D O 1.0972(5) 0.0661(5) -0.0387(2)
Co1_2 Co 1.90371(11) 0.09629(11) 0.1250
Co2B Co 1.79670(14) 0.0000 0.2500
Co1_3 Co -0.09629(11) 0.09629(11) 0.1250
Co2B_2 Co 0.79670(14) 0.0000 0.2500
Co2_2 Co 0.0000 0.20330(14) 0.0000
loop_
_geom_bond_atom_site_label_1
_geom_bond_atom_site_label_2
_geom_bond_site_symmetry_1
_geom_bond_site_symmetry_2
Co1 O1 1_555 1_555
Co2 O4 1_555 1_555
O1 C3 1_555 1_555
O2 C4 1_555 1_555
C1 O5 1_555 1_555
O3 C4 1_555 1_555
O4 C3 1_555 1_555
O5 Co1 1_555 1_555
N1 C1 1_555 1_555
H1 N1 1_555 1_555
C2 C4 1_555 1_555
C3 C6 1_555 1_555
C5 H2 1_555 1_555
C6 C5 1_555 1_555
C7 C2 1_555 1_555
H3 C7 1_555 1_555
C8 C2 1_555 1_555
H4 C8 1_555 1_555
N2 C1 1_555 1_555
H5 N2 1_555 1_555
C9 C6 1_555 1_555
H6 C9 1_555 1_555
C10 N2 1_555 1_555
H7 C10 1_555 1_555
H8 C10 1_555 1_555
C11 N1 1_555 1_555
H9 C11 1_555 1_555
H10 C11 1_555 1_555
C12 N3 1_555 1_555
N3 C13 1_555 1_555
N4 C12 1_555 1_555
C13 N4G 1_555 1_555
C14 N4 1_555 1_555
O6 C12 1_555 1_555
N4G C14 1_555 1_555
C12G N4G 1_555 1_555
N3G C12G 1_555 1_555
C13G N4 1_555 1_555
C14G N4 1_555 1_555
O6G C12G 1_555 1_555
O1_2 C3_2 1_555 1_555
O2_2 Co1 1_555 1_555
O3_2 C4_2 1_555 1_555
O4_2 C3_2 1_555 1_555
C2_2 C4_2 1_555 1_555
C3_2 C6_2 1_555 1_555
C4_2 O2_2 1_555 1_555
C5_2 H2_2 1_555 1_555
C6_2 C5_2 1_555 1_555
C7_2 C2_2 1_555 1_555
H3_2 C7_2 1_555 1_555
C8_2 C2_2 1_555 1_555
H4_2 C8_2 1_555 1_555
C9_2 C6_2 1_555 1_555
H6_2 C9_2 1_555 1_555
C1G O5G 1_555 1_555
O5G Co1 1_555 1_555
N1G C1G 1_555 1_555
H1G N1G 1_555 1_555
N2G C1G 1_555 1_555
H5G N2G 1_555 1_555
C10G N2G 1_555 1_555
H7G C10G 1_555 1_555
H8G C10G 1_555 1_555
C11G N1G 1_555 1_555
H9G C11G 1_555 1_555
H10G C11G 1_555 1_555
O1G Co1 1_555 1_555
O2G Co1 1_555 1_555
O3C Co2 1_555 1_555
O3G Co2 1_555 1_555
O4D Co2 1_555 1_555
O5D Co2 1_555 1_555
Co1_2 O2 1_555 1_555
Co2B O3 1_555 1_555
Co1_3 O1_2 1_555 1_555
Co2B_2 O3_2 1_555 1_555
Co2_2 O4_2 1_555 1_555
Co2 O5 1_555 1_555
C5 C7 1_555 1_555
C8 C9 1_555 1_555
C10 C11 1_555 1_555
C14 C14G 1_555 1_555
N4G C14G 1_555 1_555
N3G C13G 1_555 1_555
C5_2 C7_2 1_555 1_555
C8_2 C9_2 1_555 1_555
O5G Co2B_2 1_555 1_555
C10G C11G 1_555 1_555

#END
