
#######################################################################
#
#                 Cambridge Crystallographic Data Centre
#                                CCDC 
#
#######################################################################
#
# If this CIF has been generated from an entry in the Cambridge 
# Structural Database, then it will include bibliographic, chemical, 
# crystal, experimental, refinement or atomic coordinate data resulting 
# from the CCDC's data processing and validation procedures.
#
#######################################################################

data_EQERAU
_symmetry_cell_setting           monoclinic
_symmetry_space_group_name_H-M   'P 21/c'
_symmetry_Int_Tables_number      14
_space_group_name_Hall           '-P 2ybc'
loop_
_symmetry_equiv_pos_site_id
_symmetry_equiv_pos_as_xyz
1 x,y,z
2 -x,1/2+y,1/2-z
3 -x,-y,-z
4 x,1/2-y,1/2+z
_cell_length_a                   13.5792(4)
_cell_length_b                   13.8958(4)
_cell_length_c                   20.7478(6)
_cell_angle_alpha                90
_cell_angle_beta                 104.8821(13)
_cell_angle_gamma                90
_cell_volume                     3783.66
loop_
_atom_site_label
_atom_site_type_symbol
_atom_site_fract_x
_atom_site_fract_y
_atom_site_fract_z
P1 P 0.73596(7) -0.03705(8) -0.18150(5)
Mg1 Mg 0.65386(10) -0.13395(10) -0.04953(6)
Mg2 Mg 0.40507(10) -0.04299(10) -0.05170(7)
O1 O 0.6788(2) -0.0623(2) -0.13157(13)
O2 O 0.6285(2) -0.4169(2) -0.39263(14)
O3 O 0.6305(2) -0.2970(2) -0.46473(14)
O4 O 1.2143(2) 0.0774(2) -0.01136(14)
O5 O 1.2482(2) -0.0558(2) -0.06207(16)
O6 O 0.6084(2) 0.3709(2) -0.36522(16)
O7 O 0.4616(2) 0.2857(2) -0.38969(14)
O8 O 0.56004(19) -0.0238(2) -0.03977(12)
H1 H 0.5671 0.0262 -0.0729
O9 O 0.7481(3) -0.2498(3) -0.06128(16)
O10 O 0.4168(3) -0.1781(2) 0.00115(17)
C1 C 0.7159(3) -0.1256(3) -0.24731(19)
C2 C 0.6826(4) -0.2157(4) -0.2361(2)
H2 H 0.6752 -0.2322 -0.1931
C3 C 0.6598(4) -0.2827(4) -0.2870(2)
H3 H 0.6375 -0.3452 -0.2786
C4 C 0.6692(3) -0.2594(3) -0.35036(19)
C5 C 0.7049(4) -0.1700(4) -0.3606(2)
H4 H 0.7136 -0.1543 -0.4034
C6 C 0.7287(4) -0.1019(4) -0.3103(2)
H5 H 0.7532 -0.0402 -0.3183
C7 C 0.6408(3) -0.3315(3) -0.4066(2)
C8 C 0.8707(3) -0.0229(3) -0.14608(18)
C9 C 0.9413(4) -0.0833(4) -0.1625(3)
H6 H 0.9193 -0.1314 -0.1956
C10 C 1.0442(4) -0.0742(4) -0.1308(3)
H7 H 1.0923 -0.1162 -0.1423
C11 C 1.0766(3) -0.0051(3) -0.0834(2)
C12 C 1.0069(3) 0.0565(4) -0.0676(2)
H8 H 1.0298 0.1057 -0.0355
C13 C 0.9035(3) 0.0475(3) -0.0980(2)
H9 H 0.8557 0.0893 -0.0861
C14 C 1.1901(3) 0.0061(3) -0.0495(2)
C15 C 0.6886(3) 0.0727(3) -0.2254(2)
C16 C 0.7491(3) 0.1392(4) -0.2460(3)
H10 H 0.8212 0.1333 -0.2319
C17 C 0.7057(3) 0.2147(4) -0.2871(2)
H11 H 0.7482 0.2613 -0.2999
C18 C 0.6007(3) 0.2228(3) -0.3099(2)
C19 C 0.5399(3) 0.1558(3) -0.2885(2)
H12 H 0.4678 0.1606 -0.3035
C20 C 0.5827(3) 0.0830(3) -0.2462(2)
H13 H 0.5401 0.0392 -0.2307
C21 C 0.5529(3) 0.3002(3) -0.3592(2)
P1B P 0.26404(7) 0.03705(8) 0.18150(5)
Mg1B Mg 0.34614(10) 0.13395(10) 0.04953(6)
Mg1_2 Mg -0.34614(10) -0.13395(10) -0.04953(6)
Mg1A Mg 0.34614(10) 0.36605(10) -0.45047(6)
Mg1A_2 Mg 0.34614(10) 0.36605(10) 0.54953(6)
Mg1B_2 Mg 1.34614(10) 0.13395(10) 0.04953(6)
Mg1C Mg 0.65386(10) -0.36605(10) -0.54953(6)
Mg1C_2 Mg 0.65386(10) -0.36605(10) 0.45047(6)
Mg2B Mg 0.59493(10) 0.04299(10) 0.05170(7)
Mg2_2 Mg 1.40507(10) -0.04299(10) -0.05170(7)
Mg2A Mg 0.59493(10) -0.54299(10) -0.44830(7)
Mg2A_2 Mg 0.59493(10) 0.45701(10) -0.44830(7)
Mg2B_2 Mg -0.40507(10) 0.04299(10) 0.05170(7)
Mg2C Mg 0.40507(10) -0.45701(10) 0.44830(7)
Mg2C_2 Mg 0.40507(10) 0.54299(10) 0.44830(7)
O1B O 0.3212(2) 0.0623(2) 0.13157(13)
O2B O 0.3715(2) 0.4169(2) 0.39263(14)
O2A O 0.3715(2) 0.0831(2) -0.10737(14)
O2C O 0.6285(2) -0.0831(2) 0.10737(14)
O3B O 0.3695(2) 0.2970(2) 0.46473(14)
O3A O 0.3695(2) 0.2030(2) -0.03527(14)
O3C O 0.6305(2) -0.2030(2) 0.03527(14)
O4B O -0.2143(2) -0.0774(2) 0.01136(14)
O4_2 O 0.2143(2) 0.0774(2) -0.01136(14)
O4B_2 O 0.7857(2) -0.0774(2) 0.01136(14)
O5B O -0.2482(2) 0.0558(2) 0.06207(16)
O5_2 O 0.2482(2) -0.0558(2) -0.06207(16)
O5B_2 O 0.7518(2) 0.0558(2) 0.06207(16)
O6B O 0.3916(2) -0.3709(2) 0.36522(16)
O6A O 0.3916(2) -0.1291(2) -0.13478(16)
O6C O 0.6084(2) 0.1291(2) 0.13478(16)
O7B O 0.5384(2) -0.2857(2) 0.38969(14)
O7A O 0.5384(2) -0.2143(2) -0.11031(14)
O7C O 0.4616(2) 0.2143(2) 0.11031(14)
O8B O 0.43996(19) 0.0238(2) 0.03977(12)
H1B H 0.4329 -0.0262 0.0729
O9B O 0.2519(3) 0.2498(3) 0.06128(16)
O10B O 0.5832(3) 0.1781(2) -0.00115(17)
C1B C 0.2841(3) 0.1256(3) 0.24731(19)
C2B C 0.3174(4) 0.2157(4) 0.2361(2)
H2B H 0.3248 0.2322 0.1931
C3B C 0.3402(4) 0.2827(4) 0.2870(2)
H3B H 0.3625 0.3452 0.2786
C4B C 0.3308(3) 0.2594(3) 0.35036(19)
C5B C 0.2951(4) 0.1700(4) 0.3606(2)
H4B H 0.2864 0.1543 0.4034
C6B C 0.2713(4) 0.1019(4) 0.3103(2)
H5B H 0.2468 0.0402 0.3183
C7B C 0.3592(3) 0.3315(3) 0.4066(2)
C8B C 0.1293(3) 0.0229(3) 0.14608(18)
C9B C 0.0587(4) 0.0833(4) 0.1625(3)
H6B H 0.0807 0.1314 0.1956
C10B C -0.0442(4) 0.0742(4) 0.1308(3)
H7B H -0.0923 0.1162 0.1423
C11B C -0.0766(3) 0.0051(3) 0.0834(2)
C12B C -0.0069(3) -0.0565(4) 0.0676(2)
H8B H -0.0298 -0.1057 0.0355
C13B C 0.0965(3) -0.0475(3) 0.0980(2)
H9B H 0.1443 -0.0893 0.0861
C14B C -0.1901(3) -0.0061(3) 0.0495(2)
C15B C 0.3114(3) -0.0727(3) 0.2254(2)
C16B C 0.2509(3) -0.1392(4) 0.2460(3)
H10B H 0.1788 -0.1333 0.2319
C17B C 0.2943(3) -0.2147(4) 0.2871(2)
H11B H 0.2518 -0.2613 0.2999
C18B C 0.3993(3) -0.2228(3) 0.3099(2)
C19B C 0.4601(3) -0.1558(3) 0.2885(2)
H12B H 0.5322 -0.1606 0.3035
C20B C 0.4173(3) -0.0830(3) 0.2462(2)
H13B H 0.4599 -0.0392 0.2307
C21B C 0.4471(3) -0.3002(3) 0.3592(2)
N1 N 0.9729(14) -0.2517(15) 0.1758(9)
O11 O 0.9123(10) -0.3144(11) 0.0494(7)
C22 C 0.8965(18) -0.2575(17) 0.0981(11)
H14 H 0.8378 -0.2175 0.0878
C23 C 1.036(2) -0.332(2) 0.1780(13)
H15 H 1.0844 -0.3363 0.2220
H16 H 1.0737 -0.3258 0.1437
H17 H 0.9944 -0.3906 0.1697
C24 C 0.9456(12) -0.1868(12) 0.2132(8)
H18 H 0.9924 -0.1883 0.2579
H19 H 0.8761 -0.2002 0.2164
H20 H 0.9477 -0.1230 0.1935
loop_
_geom_bond_atom_site_label_1
_geom_bond_atom_site_label_2
_geom_bond_site_symmetry_1
_geom_bond_site_symmetry_2
P1 O1 1_555 1_555
Mg1 O1 1_555 1_555
Mg2 O8 1_555 1_555
O2 C7 1_555 1_555
O3 C7 1_555 1_555
O4 C14 1_555 1_555
O5 C14 1_555 1_555
O6 C21 1_555 1_555
O7 C21 1_555 1_555
O8 Mg1 1_555 1_555
H1 O8 1_555 1_555
O9 Mg1 1_555 1_555
O10 Mg2 1_555 1_555
C1 P1 1_555 1_555
C2 C1 1_555 1_555
H2 C2 1_555 1_555
C3 C2 1_555 1_555
H3 C3 1_555 1_555
C4 C3 1_555 1_555
C5 C4 1_555 1_555
H4 C5 1_555 1_555
C6 C1 1_555 1_555
H5 C6 1_555 1_555
C7 C4 1_555 1_555
C8 P1 1_555 1_555
C9 C8 1_555 1_555
H6 C9 1_555 1_555
C10 C9 1_555 1_555
H7 C10 1_555 1_555
C11 C10 1_555 1_555
C12 C11 1_555 1_555
H8 C12 1_555 1_555
C13 C8 1_555 1_555
H9 C13 1_555 1_555
C14 C11 1_555 1_555
C15 P1 1_555 1_555
C16 C15 1_555 1_555
H10 C16 1_555 1_555
C17 C16 1_555 1_555
H11 C17 1_555 1_555
C18 C17 1_555 1_555
C19 C18 1_555 1_555
H12 C19 1_555 1_555
C20 C15 1_555 1_555
H13 C20 1_555 1_555
C21 C18 1_555 1_555
N1 C22 1_555 1_555
O11 C22 1_555 1_555
C22 H14 1_555 1_555
C23 N1 1_555 1_555
H15 C23 1_555 1_555
H16 C23 1_555 1_555
H17 C23 1_555 1_555
C24 N1 1_555 1_555
H18 C24 1_555 1_555
H19 C24 1_555 1_555
H20 C24 1_555 1_555
P1B O1B 1_555 1_555
Mg1B O1B 1_555 1_555
Mg1_2 O4B 1_555 1_555
Mg1A O7 1_555 1_555
Mg1A_2 O3B 1_555 1_555
Mg1B_2 O4 1_555 1_555
Mg1C O3 1_555 1_555
Mg1C_2 O7B 1_555 1_555
Mg2B O8 1_555 1_555
Mg2_2 O5 1_555 1_555
Mg2A O2 1_555 1_555
Mg2A_2 O6 1_555 1_555
Mg2B_2 O5B 1_555 1_555
Mg2C O6B 1_555 1_555
Mg2C_2 O2B 1_555 1_555
O2B C7B 1_555 1_555
O2A Mg2 1_555 1_555
O2C Mg2B 1_555 1_555
O3B C7B 1_555 1_555
O3A Mg1B 1_555 1_555
O3C Mg1 1_555 1_555
O4B C14B 1_555 1_555
O4_2 Mg1B 1_555 1_555
O4B_2 Mg1 1_555 1_555
O5B C14B 1_555 1_555
O5_2 Mg2 1_555 1_555
O5B_2 Mg2B 1_555 1_555
O6B C21B 1_555 1_555
O6A Mg2 1_555 1_555
O6C Mg2B 1_555 1_555
O7B C21B 1_555 1_555
O7A Mg1 1_555 1_555
O7C Mg1B 1_555 1_555
O8B Mg2 1_555 1_555
H1B O8B 1_555 1_555
O9B Mg1B 1_555 1_555
O10B Mg2B 1_555 1_555
C1B P1B 1_555 1_555
C2B C1B 1_555 1_555
H2B C2B 1_555 1_555
C3B C2B 1_555 1_555
H3B C3B 1_555 1_555
C4B C3B 1_555 1_555
C5B C4B 1_555 1_555
H4B C5B 1_555 1_555
C6B C1B 1_555 1_555
H5B C6B 1_555 1_555
C7B C4B 1_555 1_555
C8B P1B 1_555 1_555
C9B C8B 1_555 1_555
H6B C9B 1_555 1_555
C10B C9B 1_555 1_555
H7B C10B 1_555 1_555
C11B C10B 1_555 1_555
C12B C11B 1_555 1_555
H8B C12B 1_555 1_555
C13B C8B 1_555 1_555
H9B C13B 1_555 1_555
C14B C11B 1_555 1_555
C15B P1B 1_555 1_555
C16B C15B 1_555 1_555
H10B C16B 1_555 1_555
C17B C16B 1_555 1_555
H11B C17B 1_555 1_555
C18B C17B 1_555 1_555
C19B C18B 1_555 1_555
H12B C19B 1_555 1_555
C20B C15B 1_555 1_555
H13B C20B 1_555 1_555
C21B C18B 1_555 1_555
C5 C6 1_555 1_555
C12 C13 1_555 1_555
C19 C20 1_555 1_555
Mg1B O8B 1_555 1_555
Mg2B O8B 1_555 1_555
C5B C6B 1_555 1_555
C12B C13B 1_555 1_555
C19B C20B 1_555 1_555

#END
