
#######################################################################
#
#                 Cambridge Crystallographic Data Centre
#                                CCDC 
#
#######################################################################
#
# If this CIF has been generated from an entry in the Cambridge 
# Structural Database, then it will include bibliographic, chemical, 
# crystal, experimental, refinement or atomic coordinate data resulting 
# from the CCDC's data processing and validation procedures.
#
#######################################################################

data_EQEREY
_symmetry_cell_setting           tetragonal
_symmetry_space_group_name_H-M   'I 41/a'
_symmetry_Int_Tables_number      88
_space_group_name_Hall           '-I 4ad'
loop_
_symmetry_equiv_pos_site_id
_symmetry_equiv_pos_as_xyz
1 x,y,z
2 1/2-x,-y,1/2+z
3 3/4-y,1/4+x,1/4+z
4 3/4+y,3/4-x,3/4+z
5 1/2+x,1/2+y,1/2+z
6 -x,1/2-y,z
7 1/4-y,3/4+x,3/4+z
8 1/4+y,1/4-x,1/4+z
9 -x,-y,-z
10 1/2+x,y,1/2-z
11 1/4+y,3/4-x,3/4-z
12 1/4-y,1/4+x,1/4-z
13 1/2-x,1/2-y,1/2-z
14 x,1/2+y,-z
15 3/4+y,1/4-x,1/4-z
16 3/4-y,3/4+x,3/4-z
_cell_length_a                   23.3452(10)
_cell_length_b                   23.3452(10)
_cell_length_c                   14.9359(13)
_cell_angle_alpha                90
_cell_angle_beta                 90
_cell_angle_gamma                90
_cell_volume                     8140.04
loop_
_atom_site_label
_atom_site_type_symbol
_atom_site_fract_x
_atom_site_fract_y
_atom_site_fract_z
Co1 Co 0.20437(2) 0.626403(19) 0.08903(3)
C1 C 0.16068(15) 0.58439(15) 0.4503(2)
C2 C 0.10899(16) 0.57874(15) 0.4951(2)
H1 H 0.0757 0.5718 0.4626
C3 C 0.10617(15) 0.58334(15) 0.5880(2)
C4 C 0.15579(15) 0.59409(15) 0.6357(2)
H2 H 0.1540 0.5987 0.6974
C5 C 0.20842(15) 0.59801(14) 0.5922(2)
C6 C 0.20977(16) 0.59450(15) 0.4995(2)
H3 H 0.2445 0.5991 0.4698
C7 C 0.16408(16) 0.58041(15) 0.3524(2)
C8 C 0.18705(16) 0.61789(17) 0.2923(3)
H4 H 0.2048 0.6523 0.3071
C9 C 0.15320(17) 0.54770(17) 0.2190(2)
H5 H 0.1429 0.5241 0.1715
C10 C 0.05109(16) 0.57651(15) 0.6339(2)
C11 C -0.00264(19) 0.57230(16) 0.6010(3)
H6 H -0.0124 0.5748 0.5407
C12 C -0.0086(2) 0.56370(16) 0.7423(3)
H7 H -0.0233 0.5594 0.7998
C13 C 0.26178(15) 0.60161(15) 0.6444(2)
C14 C 0.27493(17) 0.57670(15) 0.7239(2)
H8 H 0.2497 0.5554 0.7589
C15 C 0.35038(16) 0.61963(16) 0.6769(2)
H9 H 0.3874 0.6341 0.6735
N1 N 0.18016(13) 0.59756(13) 0.20749(19)
N2 N 0.14226(13) 0.53436(14) 0.3039(2)
N3 N -0.04098(15) 0.56371(13) 0.6702(2)
N4 N 0.04692(15) 0.57056(13) 0.7257(2)
N5 N 0.33151(13) 0.58782(12) 0.7451(2)
N6 N 0.31056(13) 0.62862(13) 0.6142(2)
Co1B Co 0.123597(19) 0.45437(2) 0.33903(3)
Co1J Co -0.123597(19) 0.54563(2) 0.66097(3)
Co1C Co 0.376403(19) 0.54563(2) 0.83903(3)
N2C N 0.28436(14) 0.60774(13) 0.0539(2)
N3O N 0.18629(13) 0.70902(15) 0.0798(2)
N5B N 0.16218(12) 0.58151(13) -0.0049(2)
O1 O 0.5145(13) 0.4536(12) 0.514(3)
O2 O 0.4959(6) 0.3671(17) 0.669(4)
loop_
_geom_bond_atom_site_label_1
_geom_bond_atom_site_label_2
_geom_bond_site_symmetry_1
_geom_bond_site_symmetry_2
Co1 N1 1_555 1_555
C1 C2 1_555 1_555
C2 H1 1_555 1_555
C3 C2 1_555 1_555
C4 C3 1_555 1_555
H2 C4 1_555 1_555
C5 C4 1_555 1_555
C6 C1 1_555 1_555
H3 C6 1_555 1_555
C7 C1 1_555 1_555
C8 C7 1_555 1_555
H4 C8 1_555 1_555
C9 H5 1_555 1_555
C10 C3 1_555 1_555
C11 C10 1_555 1_555
H6 C11 1_555 1_555
C12 H7 1_555 1_555
C13 C5 1_555 1_555
C14 C13 1_555 1_555
H8 C14 1_555 1_555
C15 H9 1_555 1_555
N1 C8 1_555 1_555
N2 C7 1_555 1_555
N3 C11 1_555 1_555
N4 C10 1_555 1_555
N5 C14 1_555 1_555
N6 C13 1_555 1_555
Co1B N2 1_555 1_555
Co1J N3 1_555 1_555
Co1C N5 1_555 1_555
N2C Co1 1_555 1_555
N3O Co1 1_555 1_555
N5B Co1 1_555 1_555
C5 C6 1_555 1_555
C9 N1 1_555 1_555
C9 N2 1_555 1_555
C12 N3 1_555 1_555
C12 N4 1_555 1_555
C15 N5 1_555 1_555
C15 N6 1_555 1_555

#END
