
#######################################################################
#
#                 Cambridge Crystallographic Data Centre
#                                CCDC 
#
#######################################################################
#
# If this CIF has been generated from an entry in the Cambridge 
# Structural Database, then it will include bibliographic, chemical, 
# crystal, experimental, refinement or atomic coordinate data resulting 
# from the CCDC's data processing and validation procedures.
#
#######################################################################

data_EQIWAD
_symmetry_cell_setting           monoclinic
_symmetry_space_group_name_H-M   'P 21/c'
_symmetry_Int_Tables_number      14
_space_group_name_Hall           '-P 2ybc'
loop_
_symmetry_equiv_pos_site_id
_symmetry_equiv_pos_as_xyz
1 x,y,z
2 -x,1/2+y,1/2-z
3 -x,-y,-z
4 x,1/2-y,1/2+z
_cell_length_a                   4.7595(10)
_cell_length_b                   9.925(2)
_cell_length_c                   22.609(5)
_cell_angle_alpha                90
_cell_angle_beta                 91.81(3)
_cell_angle_gamma                90
_cell_volume                     1067.47
loop_
_atom_site_label
_atom_site_type_symbol
_atom_site_fract_x
_atom_site_fract_y
_atom_site_fract_z
Cd1 Cd 0.0000 0.0000 0.5000
As1 As 0.46663(6) 0.13991(3) 0.405239(13)
N1 N 0.0554(7) 0.0415(3) 0.15213(13)
H1 H 0.1122 -0.0311 0.1355
O1 O 0.1933(5) 0.1774(2) 0.44676(10)
O2 O 0.6883(5) 0.2786(2) 0.40910(12)
H2 H 0.8386 0.2517 0.4234
O3 O 0.6480(5) 0.0085(2) 0.43218(11)
O4 O 0.2372(6) 0.2835(3) 0.11356(13)
H3 H 0.2850 0.3562 0.0999
O5 O -0.1515(5) 0.3209(3) 0.05765(12)
C1 C 0.3502(7) 0.1118(3) 0.32531(14)
C2 C 0.1466(8) 0.1964(4) 0.29972(15)
H4 H 0.0733 0.2666 0.3217
C3 C 0.0530(8) 0.1765(4) 0.24189(15)
H5 H -0.0799 0.2349 0.2251
C4 C 0.1547(7) 0.0699(3) 0.20802(14)
C5 C 0.3669(8) -0.0123(4) 0.23417(16)
H6 H 0.4444 -0.0813 0.2122
C6 C 0.4608(8) 0.0082(4) 0.29163(17)
H7 H 0.5993 -0.0477 0.3081
C7 C -0.1397(8) 0.1266(3) 0.11948(16)
H8 H -0.2888 0.1523 0.1455
H9 H -0.2245 0.0743 0.0874
C8 C -0.0154(8) 0.2537(3) 0.09370(14)
Cd1_2 Cd -1.0000 0.0000 0.5000
Cd1_3 Cd 1.0000 0.0000 0.5000
Cd1A Cd 0.0000 -0.5000 1.0000
Cd1A_2 Cd 0.0000 0.5000 0.0000
As1B As -0.46663(6) -0.13991(3) 0.594761(13)
N1B N -0.0554(7) -0.0415(3) 0.84787(13)
H1B H -0.1122 0.0311 0.8645
O1B O -0.1933(5) -0.1774(2) 0.55324(10)
O2B O -0.6883(5) -0.2786(2) 0.59090(12)
H2B H -0.8386 -0.2517 0.5766
O3B O -0.6480(5) -0.0085(2) 0.56782(11)
O3_2 O -0.3520(5) 0.0085(2) 0.43218(11)
O3B_2 O 0.3520(5) -0.0085(2) 0.56782(11)
O4B O -0.2372(6) -0.2835(3) 0.88644(13)
H3B H -0.2850 -0.3562 0.9001
O5B O 0.1515(5) -0.3209(3) 0.94235(12)
O5A O 0.1515(5) -0.1791(3) 0.44235(12)
O5C O -0.1515(5) 0.1791(3) 0.55765(12)
C1B C -0.3502(7) -0.1118(3) 0.67469(14)
C2B C -0.1466(8) -0.1964(4) 0.70028(15)
H4B H -0.0733 -0.2666 0.6783
C3B C -0.0530(8) -0.1765(4) 0.75811(15)
H5B H 0.0799 -0.2349 0.7749
C4B C -0.1547(7) -0.0699(3) 0.79198(14)
C5B C -0.3669(8) 0.0123(4) 0.76583(16)
H6B H -0.4444 0.0813 0.7878
C6B C -0.4608(8) -0.0082(4) 0.70837(17)
H7B H -0.5993 0.0477 0.6919
C7B C 0.1397(8) -0.1266(3) 0.88052(16)
H8B H 0.2888 -0.1523 0.8545
H9B H 0.2245 -0.0743 0.9126
C8B C 0.0154(8) -0.2537(3) 0.90630(14)
O6 O 0.2505(7) 0.4331(3) 0.50928(15)
H10 H 0.2472 0.3647 0.4866
H11 H 0.1043 0.4806 0.5027
H12? H 0.3964 0.4798 0.5031
loop_
_geom_bond_atom_site_label_1
_geom_bond_atom_site_label_2
_geom_bond_site_symmetry_1
_geom_bond_site_symmetry_2
Cd1 O1 1_555 1_555
As1 O1 1_555 1_555
N1 H1 1_555 1_555
O2 As1 1_555 1_555
H2 O2 1_555 1_555
O3 As1 1_555 1_555
O4 H3 1_555 1_555
O5 C8 1_555 1_555
C1 As1 1_555 1_555
C2 C1 1_555 1_555
H4 C2 1_555 1_555
C3 C2 1_555 1_555
H5 C3 1_555 1_555
C4 N1 1_555 1_555
C5 C4 1_555 1_555
H6 C5 1_555 1_555
C6 C1 1_555 1_555
H7 C6 1_555 1_555
C7 N1 1_555 1_555
H8 C7 1_555 1_555
H9 C7 1_555 1_555
C8 O4 1_555 1_555
O6 H10 1_555 1_555
H11 O6 1_555 1_555
Cd1_2 O3B 1_555 1_555
Cd1_3 O3 1_555 1_555
Cd1A O5B 1_555 1_555
Cd1A_2 O5 1_555 1_555
As1B O1B 1_555 1_555
N1B H1B 1_555 1_555
O1B Cd1 1_555 1_555
O2B As1B 1_555 1_555
H2B O2B 1_555 1_555
O3B As1B 1_555 1_555
O3_2 Cd1 1_555 1_555
O3B_2 Cd1 1_555 1_555
O4B H3B 1_555 1_555
O5B C8B 1_555 1_555
O5A Cd1 1_555 1_555
O5C Cd1 1_555 1_555
C1B As1B 1_555 1_555
C2B C1B 1_555 1_555
H4B C2B 1_555 1_555
C3B C2B 1_555 1_555
H5B C3B 1_555 1_555
C4B N1B 1_555 1_555
C5B C4B 1_555 1_555
H6B C5B 1_555 1_555
C6B C1B 1_555 1_555
H7B C6B 1_555 1_555
C7B N1B 1_555 1_555
H8B C7B 1_555 1_555
H9B C7B 1_555 1_555
C8B O4B 1_555 1_555
C3 C4 1_555 1_555
C5 C6 1_555 1_555
C7 C8 1_555 1_555
C3B C4B 1_555 1_555
C5B C6B 1_555 1_555
C7B C8B 1_555 1_555

#END
