
#######################################################################
#
#                 Cambridge Crystallographic Data Centre
#                                CCDC 
#
#######################################################################
#
# If this CIF has been generated from an entry in the Cambridge 
# Structural Database, then it will include bibliographic, chemical, 
# crystal, experimental, refinement or atomic coordinate data resulting 
# from the CCDC's data processing and validation procedures.
#
#######################################################################

data_EQOCIW
_symmetry_cell_setting           orthorhombic
_symmetry_space_group_name_H-M   'F d d 2'
_symmetry_Int_Tables_number      43
_space_group_name_Hall           'F 2 -2d'
loop_
_symmetry_equiv_pos_site_id
_symmetry_equiv_pos_as_xyz
1 x,y,z
2 -x,-y,z
3 1/4+x,1/4-y,1/4+z
4 1/4-x,1/4+y,1/4+z
5 x,1/2+y,1/2+z
6 -x,1/2-y,1/2+z
7 1/4+x,3/4-y,3/4+z
8 1/4-x,3/4+y,3/4+z
9 1/2+x,y,1/2+z
10 1/2-x,-y,1/2+z
11 3/4+x,1/4-y,3/4+z
12 3/4-x,1/4+y,3/4+z
13 1/2+x,1/2+y,z
14 1/2-x,1/2-y,z
15 3/4+x,3/4-y,1/4+z
16 3/4-x,3/4+y,1/4+z
_cell_length_a                   17.775(4)
_cell_length_b                   27.617(6)
_cell_length_c                   8.8830(18)
_cell_angle_alpha                90
_cell_angle_beta                 90
_cell_angle_gamma                90
_cell_volume                     4360.6
loop_
_atom_site_label
_atom_site_type_symbol
_atom_site_fract_x
_atom_site_fract_y
_atom_site_fract_z
Co1 Co 0.20942(5) 0.06379(3) 0.24821(10)
N1 N 0.2023(4) 0.0037(2) 0.3761(9)
N2 N 0.2365(4) -0.0452(2) 0.5606(9)
N3 N 0.2667(3) 0.1118(2) 0.3677(8)
N4 N 0.3573(3) 0.15884(19) 0.4599(7)
C1 C 0.2390(5) -0.0006(3) 0.5062(13)
H1 H 0.2636 0.0248 0.5537
C2 C 0.1722(7) -0.0405(4) 0.3510(14)
H2 H 0.1430 -0.0493 0.2685
C3 C 0.1912(8) -0.0686(4) 0.4617(17)
H3 H 0.1758 -0.1006 0.4719
C4 C 0.3385(4) 0.1269(3) 0.3563(10)
H4 H 0.3715 0.1158 0.2828
C5 C 0.2406(5) 0.1363(3) 0.4904(15)
H5 H 0.1920 0.1340 0.5285
C6 C 0.2950(5) 0.1640(4) 0.5478(15)
H6 H 0.2911 0.1835 0.6330
N1I N 0.2977(4) -0.0037(2) -0.1239(9)
N2I N 0.2635(4) 0.0452(2) 0.0606(9)
C1I C 0.2610(5) 0.0006(3) 0.0062(13)
H1I H 0.2364 -0.0248 0.0537
C2I C 0.3278(7) 0.0405(4) -0.1490(14)
H2I H 0.3570 0.0493 -0.2315
C3I C 0.3088(8) 0.0686(4) -0.0383(17)
H3I H 0.3242 0.1006 -0.0281
N3J N 0.0167(3) 0.1382(2) 0.1177(8)
N4J N 0.1073(3) 0.09116(19) 0.2099(7)
C4J C 0.0885(4) 0.1231(3) 0.1063(10)
H4J H 0.1215 0.1342 0.0328
C5J C -0.0094(5) 0.1137(3) 0.2404(15)
H5J H -0.0580 0.1160 0.2785
C6J C 0.0450(5) 0.0860(4) 0.2978(15)
H6J H 0.0411 0.0665 0.3830
Co1I Co 0.29058(5) -0.06379(3) -0.25179(10)
Co1I_2 Co 0.29058(5) -0.06379(3) 0.74821(10)
Co1B Co 0.45942(5) 0.18621(3) 0.49821(10)
Co1J Co -0.04058(5) 0.18621(3) -0.00179(10)
N2_2 N 0.2365(4) -0.0452(2) -0.4394(9)
N3I N 0.2333(3) -0.1118(2) -0.1323(8)
N4O N 0.3927(3) -0.09116(19) -0.2901(7)
O1 O 0.5000 0.0000 0.294(4)
loop_
_geom_bond_atom_site_label_1
_geom_bond_atom_site_label_2
_geom_bond_site_symmetry_1
_geom_bond_site_symmetry_2
Co1 N1 1_555 1_555
N1 C1 1_555 1_555
N2 C1 1_555 1_555
N3 Co1 1_555 1_555
N4 C4 1_555 1_555
C1 H1 1_555 1_555
C2 N1 1_555 1_555
H2 C2 1_555 1_555
C3 N2 1_555 1_555
H3 C3 1_555 1_555
C4 N3 1_555 1_555
H4 C4 1_555 1_555
C5 N3 1_555 1_555
H5 C5 1_555 1_555
C6 N4 1_555 1_555
H6 C6 1_555 1_555
N1I C1I 1_555 1_555
N2I Co1 1_555 1_555
C1I N2I 1_555 1_555
H1I C1I 1_555 1_555
C2I N1I 1_555 1_555
H2I C2I 1_555 1_555
C3I N2I 1_555 1_555
H3I C3I 1_555 1_555
N3J C4J 1_555 1_555
N4J Co1 1_555 1_555
C4J N4J 1_555 1_555
H4J C4J 1_555 1_555
C5J N3J 1_555 1_555
H5J C5J 1_555 1_555
C6J N4J 1_555 1_555
H6J C6J 1_555 1_555
Co1I N1I 1_555 1_555
Co1I_2 N2 1_555 1_555
Co1B N4 1_555 1_555
Co1J N3J 1_555 1_555
N2_2 Co1I 1_555 1_555
N3I Co1I 1_555 1_555
N4O Co1I 1_555 1_555
C2 C3 1_555 1_555
C5 C6 1_555 1_555
C2I C3I 1_555 1_555
C5J C6J 1_555 1_555

#END
