
#######################################################################
#
#                 Cambridge Crystallographic Data Centre
#                                CCDC 
#
#######################################################################
#
# If this CIF has been generated from an entry in the Cambridge 
# Structural Database, then it will include bibliographic, chemical, 
# crystal, experimental, refinement or atomic coordinate data resulting 
# from the CCDC's data processing and validation procedures.
#
#######################################################################

data_EQUBOI
_symmetry_cell_setting           tetragonal
_symmetry_space_group_name_H-M   'P -4 21 c'
_symmetry_Int_Tables_number      114
_space_group_name_Hall           'P -4 2n'
loop_
_symmetry_equiv_pos_site_id
_symmetry_equiv_pos_as_xyz
1 x,y,z
2 -x,-y,z
3 y,-x,-z
4 -y,x,-z
5 1/2-x,1/2+y,1/2-z
6 1/2+x,1/2-y,1/2-z
7 1/2-y,1/2-x,1/2+z
8 1/2+y,1/2+x,1/2+z
_cell_length_a                   17.2009(2)
_cell_length_b                   17.2009(2)
_cell_length_c                   8.5389(2)
_cell_angle_alpha                90
_cell_angle_beta                 90
_cell_angle_gamma                90
_cell_volume                     2526.41
loop_
_atom_site_label
_atom_site_type_symbol
_atom_site_fract_x
_atom_site_fract_y
_atom_site_fract_z
C1 C -0.12905(17) 0.76149(18) -0.5414(4)
C2 C -0.19907(17) 0.72570(19) -0.5030(4)
H1 H -0.2362 0.7520 -0.4440
C3 C -0.21270(18) 0.6505(2) -0.5537(4)
C4 C -0.28687(19) 0.6099(2) -0.5097(4)
C5 C -0.1579(2) 0.6121(2) -0.6424(5)
H2 H -0.1674 0.5617 -0.6765
C6 C -0.0887(2) 0.6485(2) -0.6810(6)
H3 H -0.0522 0.6228 -0.7423
C7 C -0.07367(19) 0.7233(2) -0.6284(5)
H4 H -0.0267 0.7474 -0.6517
Eu1 Eu 0.036960(7) 0.889390(7) -0.15047(2)
O1 O -0.05071(13) 0.84851(13) -0.3534(3)
O2 O -0.07563(13) 0.89631(13) -0.6124(3)
O3 O -0.17954(14) 0.89135(14) -0.4191(3)
O4 O -0.34153(14) 0.64928(16) -0.4570(3)
O5 O -0.28935(14) 0.53672(15) -0.5305(3)
O6 O -0.07366(12) 0.97420(12) -0.1214(3)
O7 O 0.07890(16) 0.76304(15) -0.2676(3)
S1 S -0.10829(4) 0.85677(4) -0.47619(9)
H5 H -0.109(3) 0.960(4) -0.201(6)
H7 H 0.114(3) 0.725(3) -0.241(6)
H9 H 0.079(3) 0.769(4) -0.378(3)
C1C C 0.23851(18) 0.87095(17) -0.4586(4)
C2C C 0.27430(19) 0.80093(17) -0.4970(4)
H1C H 0.2480 0.7638 -0.5560
C3C C 0.3495(2) 0.78730(18) -0.4463(4)
C4C C 0.3901(2) 0.71313(19) -0.4903(4)
C5C C 0.3879(2) 0.8421(2) -0.3576(5)
H2C H 0.4383 0.8326 -0.3235
C6C C 0.3515(2) 0.9113(2) -0.3190(6)
H3C H 0.3772 0.9478 -0.2577
C7C C 0.2767(2) 0.92633(19) -0.3716(5)
H4C H 0.2526 0.9733 -0.3483
Eu1C Eu 0.110610(7) 1.036960(7) -0.84953(2)
Eu1B Eu -0.110610(7) 0.963040(7) -0.84953(2)
Eu1E Eu -0.463040(7) 0.610610(7) -0.34953(2)
Eu1F Eu -0.389390(7) 0.463040(7) -0.65047(2)
Eu1A Eu -0.036960(7) 1.110610(7) -0.15047(2)
Eu1B_2 Eu -0.110610(7) 0.963040(7) 0.15047(2)
Eu1G Eu 0.389390(7) 0.536960(7) -0.65047(2)
Eu1E_2 Eu 0.536960(7) 0.610610(7) -0.34953(2)
Eu1C_2 Eu 0.110610(7) 1.036960(7) 0.15047(2)
O1C O 0.15149(13) 0.94929(13) -0.6466(3)
O2C O 0.10369(13) 0.92437(13) -0.3876(3)
O2A O 0.07563(13) 1.10369(13) -0.6124(3)
O3C O 0.10865(14) 0.82046(14) -0.5809(3)
O4C O 0.35072(16) 0.65847(14) -0.5430(3)
O4E O 0.15847(14) 0.85072(16) -0.0430(3)
O4G O 0.14928(16) 1.15847(14) -0.9570(3)
O5C O 0.46328(15) 0.71065(14) -0.4695(3)
O5F O -0.03672(15) 0.78935(14) -0.0305(3)
O5E O 0.21065(14) 0.96328(15) -0.9695(3)
O6A O 0.07366(12) 1.02580(12) -0.1214(3)
O6C O 0.02580(12) 0.92634(12) 0.1214(3)
O6C_2 O 0.02580(12) 0.92634(12) -0.8786(3)
O6B O -0.02580(12) 1.07366(12) -0.8786(3)
O6A_2 O 0.07366(12) 1.02580(12) -1.1214(3)
O7C O 0.23696(15) 1.07890(16) -0.7324(3)
S1C S 0.14323(4) 0.89171(4) -0.52381(9)
H5A H 0.109(3) 1.040(4) -0.201(6)
H5C H 0.040(4) 0.891(3) 0.201(6)
H5C_2 H 0.040(4) 0.891(3) -0.799(6)
H5B H -0.040(4) 1.109(3) -0.799(6)
H5A_2 H 0.109(3) 1.040(4) -1.201(6)
H7C H 0.275(3) 1.114(3) -0.759(6)
H9C H 0.231(4) 1.079(3) -0.622(3)
O8 O 0.6383(3) 0.8264(3) 0.2050(8)
H6 H 0.617(4) 0.824(3) 0.315(3)
H8 H 0.642(4) 0.7695(14) 0.186(6)
O9 O 0.0632(4) 0.6473(4) 1.0323(8)
H10 H 0.025(3) 0.676(3) 0.967(6)
H11 H 0.097(3) 0.622(4) 0.949(5)
O10 O 1.0000 0.5000 0.061(5)
H12? H 1.007(10) 0.444(2) 0.075(12)
H13? H 0.957(6) 0.511(8) 0.128(12)
loop_
_geom_bond_atom_site_label_1
_geom_bond_atom_site_label_2
_geom_bond_site_symmetry_1
_geom_bond_site_symmetry_2
C1 C2 1_555 1_555
C2 H1 1_555 1_555
C3 C2 1_555 1_555
C4 C3 1_555 1_555
C5 C3 1_555 1_555
H2 C5 1_555 1_555
C6 C5 1_555 1_555
H3 C6 1_555 1_555
C7 C1 1_555 1_555
H4 C7 1_555 1_555
Eu1 O1 1_555 1_555
O1 S1 1_555 1_555
O2 S1 1_555 1_555
O3 S1 1_555 1_555
O4 C4 1_555 1_555
O5 C4 1_555 1_555
O6 Eu1 1_555 1_555
O7 Eu1 1_555 1_555
O8 H6 1_555 1_555
O9 H10 1_555 1_555
S1 C1 1_555 1_555
H5 O6 1_555 1_555
H7 O7 1_555 1_555
H8 O8 1_555 1_555
H9 O7 1_555 1_555
H11 O9 1_555 1_555
C1C C2C 1_555 1_555
C2C H1C 1_555 1_555
C3C C2C 1_555 1_555
C4C C3C 1_555 1_555
C5C C3C 1_555 1_555
H2C C5C 1_555 1_555
C6C C5C 1_555 1_555
H3C C6C 1_555 1_555
C7C C1C 1_555 1_555
H4C C7C 1_555 1_555
Eu1C O1C 1_555 1_555
Eu1B O2 1_555 1_555
Eu1E O4 1_555 1_555
Eu1F O5 1_555 1_555
Eu1A O6 1_555 1_555
Eu1B_2 O6 1_555 1_555
Eu1G O4C 1_555 1_555
Eu1E_2 O5C 1_555 1_555
Eu1C_2 O6A 1_555 1_555
O1C S1C 1_555 1_555
O2C Eu1 1_555 1_555
O2A Eu1C 1_555 1_555
O3C S1C 1_555 1_555
O4C C4C 1_555 1_555
O4E Eu1 1_555 1_555
O4G Eu1C 1_555 1_555
O5C C4C 1_555 1_555
O5F Eu1 1_555 1_555
O5E Eu1C 1_555 1_555
O6A Eu1 1_555 1_555
O6C Eu1 1_555 1_555
O6C_2 Eu1C 1_555 1_555
O6B Eu1C 1_555 1_555
O6A_2 Eu1C 1_555 1_555
O7C Eu1C 1_555 1_555
S1C C1C 1_555 1_555
H5A O6A 1_555 1_555
H5C O6C 1_555 1_555
H5C_2 O6C_2 1_555 1_555
H5B O6B 1_555 1_555
H5A_2 O6A_2 1_555 1_555
H7C O7C 1_555 1_555
H9C O7C 1_555 1_555
C6 C7 1_555 1_555
C6C C7C 1_555 1_555
Eu1B O6C_2 1_555 1_555
Eu1B O6B 1_555 1_555
Eu1A O6A 1_555 1_555
Eu1B_2 O6C 1_555 1_555
Eu1C_2 O6C 1_555 1_555
O2C S1C 1_555 1_555

#END
