
#######################################################################
#
#                 Cambridge Crystallographic Data Centre
#                                CCDC 
#
#######################################################################
#
# If this CIF has been generated from an entry in the Cambridge 
# Structural Database, then it will include bibliographic, chemical, 
# crystal, experimental, refinement or atomic coordinate data resulting 
# from the CCDC's data processing and validation procedures.
#
#######################################################################

data_EQUBIC
_symmetry_cell_setting           tetragonal
_symmetry_space_group_name_H-M   'P -4 21 c'
_symmetry_Int_Tables_number      114
_space_group_name_Hall           'P -4 2n'
loop_
_symmetry_equiv_pos_site_id
_symmetry_equiv_pos_as_xyz
1 x,y,z
2 -x,-y,z
3 y,-x,-z
4 -y,x,-z
5 1/2-x,1/2+y,1/2-z
6 1/2+x,1/2-y,1/2-z
7 1/2-y,1/2-x,1/2+z
8 1/2+y,1/2+x,1/2+z
_cell_length_a                   17.1205(7)
_cell_length_b                   17.1205(7)
_cell_length_c                   8.4672(6)
_cell_angle_alpha                90
_cell_angle_beta                 90
_cell_angle_gamma                90
_cell_volume                     2481.83
loop_
_atom_site_label
_atom_site_type_symbol
_atom_site_fract_x
_atom_site_fract_y
_atom_site_fract_z
C1 C 0.2588(3) 0.3730(3) 1.0377(8)
C2 C 0.2237(3) 0.3020(3) 1.0021(7)
H1 H 0.2513 0.2640 0.9469
C3 C 0.1474(4) 0.2882(3) 1.0493(8)
C4 C 0.1079(4) 0.2136(4) 1.0081(7)
C5 C 0.1094(4) 0.3443(4) 1.1376(10)
H2 H 0.0586 0.3351 1.1721
C6 C 0.1460(4) 0.4143(4) 1.1757(10)
H3 H 0.1202 0.4512 1.2372
C7 C 0.2196(4) 0.4289(4) 1.1230(9)
H4 H 0.2434 0.4765 1.1446
Tb1 Tb 0.109820(14) 0.037330(14) 0.85020(4)
O1 O 0.3491(2) 0.4506(2) 0.8530(6)
O2 O 0.3952(2) 0.4247(2) 1.1157(5)
O3 O 0.3904(3) 0.3205(2) 0.9181(5)
O4 O 0.1482(3) 0.1587(3) 0.9562(6)
O5 O 0.0339(3) 0.2108(2) 1.0307(5)
O6 O 0.0259(2) -0.0725(2) 0.8792(5)
O7 O 0.2362(3) 0.0794(3) 0.7343(6)
S1 S 0.35614(8) 0.39234(9) 0.97636(17)
H5 H 0.034(6) -0.096(6) 0.780(6)
H7 H 0.273(4) 0.115(4) 0.774(10)
H9 H 0.246(6) 0.075(6) 0.624(3)
Tb1D Tb 0.390180(14) 0.537330(14) 0.64980(4)
Tb1F Tb 0.462670(14) 0.390180(14) 1.35020(4)
Tb1C Tb -0.037330(14) 0.109820(14) 1.14980(4)
Tb1A Tb -0.109820(14) -0.037330(14) 0.85020(4)
Tb1B Tb 0.037330(14) -0.109820(14) 1.14980(4)
O1D O 0.1509(2) -0.0494(2) 0.6470(6)
O2F O 0.0753(2) 0.1048(2) 0.6157(5)
O5B O 0.2108(2) -0.0339(3) 0.9693(5)
O6A O -0.0259(2) 0.0725(2) 0.8792(5)
O6C O 0.0725(2) 0.0259(2) 1.1208(5)
H5A H -0.034(6) 0.096(6) 0.780(6)
H5C H 0.096(6) 0.034(6) 1.220(6)
O8 O 0.3625(5) 0.1720(6) 0.7979(18)
H6 H 0.380(7) 0.182(6) 0.691(5)
H8 H 0.370(6) 0.221(3) 0.850(10)
O9 O 0.9302(8) 0.3535(10) -0.0371(17)
H10 H 0.976(4) 0.322(6) -0.018(12)
H11 H 0.905(6) 0.358(7) 0.066(7)
loop_
_geom_bond_atom_site_label_1
_geom_bond_atom_site_label_2
_geom_bond_site_symmetry_1
_geom_bond_site_symmetry_2
C1 C2 1_555 1_555
C2 H1 1_555 1_555
C3 C2 1_555 1_555
C4 C3 1_555 1_555
C5 C3 1_555 1_555
H2 C5 1_555 1_555
C6 C5 1_555 1_555
H3 C6 1_555 1_555
C7 C1 1_555 1_555
H4 C7 1_555 1_555
Tb1 O4 1_555 1_555
O1 S1 1_555 1_555
O2 S1 1_555 1_555
O3 S1 1_555 1_555
O4 C4 1_555 1_555
O5 C4 1_555 1_555
O6 Tb1 1_555 1_555
O7 Tb1 1_555 1_555
O8 H6 1_555 1_555
O9 H10 1_555 1_555
S1 C1 1_555 1_555
H5 O6 1_555 1_555
H7 O7 1_555 1_555
H8 O8 1_555 1_555
H9 O7 1_555 1_555
H11 O9 1_555 1_555
Tb1D O1 1_555 1_555
Tb1F O2 1_555 1_555
Tb1C O5 1_555 1_555
Tb1A O6 1_555 1_555
Tb1B O6 1_555 1_555
O1D Tb1 1_555 1_555
O2F Tb1 1_555 1_555
O5B Tb1 1_555 1_555
O6A Tb1 1_555 1_555
O6C Tb1 1_555 1_555
H5A O6A 1_555 1_555
H5C O6C 1_555 1_555
C6 C7 1_555 1_555
Tb1C O6A 1_555 1_555
Tb1C O6C 1_555 1_555
Tb1A O6A 1_555 1_555
Tb1B O6C 1_555 1_555

#END
