
#######################################################################
#
#                 Cambridge Crystallographic Data Centre
#                                CCDC 
#
#######################################################################
#
# If this CIF has been generated from an entry in the Cambridge 
# Structural Database, then it will include bibliographic, chemical, 
# crystal, experimental, refinement or atomic coordinate data resulting 
# from the CCDC's data processing and validation procedures.
#
#######################################################################

data_EREGOY
_symmetry_cell_setting           orthorhombic
_symmetry_space_group_name_H-M   'P n a 21'
_symmetry_Int_Tables_number      33
_space_group_name_Hall           'P 2c -2n'
loop_
_symmetry_equiv_pos_site_id
_symmetry_equiv_pos_as_xyz
1 x,y,z
2 -x,-y,1/2+z
3 1/2-x,1/2+y,1/2+z
4 1/2+x,1/2-y,z
_cell_length_a                   19.517(4)
_cell_length_b                   17.306(4)
_cell_length_c                   18.722(4)
_cell_angle_alpha                90
_cell_angle_beta                 90
_cell_angle_gamma                90
_cell_volume                     6323.57
loop_
_atom_site_label
_atom_site_type_symbol
_atom_site_fract_x
_atom_site_fract_y
_atom_site_fract_z
Cd1 Cd 0.441249(9) 0.219496(11) 0.342917(11)
Cd2 Cd 0.422555(12) 0.070815(14) 0.213605(16)
O1 O 0.18157(10) 0.72903(14) -0.16477(18)
O2 O 0.13061(10) 0.61957(14) -0.18529(13)
O3 O 0.41878(19) 0.21508(18) -0.52789(17)
C1 C 0.18456(16) 0.6601(2) -0.17495(18)
C2 C 0.4562(2) 0.2749(2) -0.5239(2)
O4 O 0.48082(15) 0.30572(16) -0.57750(12)
O5 O 0.67817(9) 0.47754(13) -0.15202(18)
C3 C 0.55650(13) 0.48152(18) -0.1634(2)
C4 C 0.49749(12) 0.54038(18) -0.1579(2)
H1 H 0.4972 0.5647 -0.1100
H2 H 0.5030 0.5814 -0.1942
C5 C 0.62091(13) 0.52782(18) -0.1481(2)
H3 H 0.6258 0.5699 -0.1836
H4 H 0.6181 0.5512 -0.1000
O6 O 0.96122(11) 0.65438(14) -0.16088(16)
O7 O 0.43523(11) 0.49915(17) -0.1695(3)
O8 O 0.54626(13) 0.44471(14) -0.04188(11)
O9 O 0.46072(15) 0.29233(16) 0.24904(13)
C6 C 0.4706(2) 0.3069(2) -0.45325(19)
C7 C 0.56234(16) 0.4490(2) -0.24045(17)
H5 H 0.5579 0.4916 -0.2754
H6 H 0.6077 0.4246 -0.2472
C8 C 0.54811(16) 0.4145(2) -0.11352(15)
H7 H 0.5051 0.3865 -0.1242
H8 H 0.5869 0.3781 -0.1189
C9 C 0.74172(13) 0.50916(17) -0.1592(2)
O10 O 0.51029(15) 0.39413(18) -0.25190(12)
C10 C 0.82495(15) 0.6075(2) -0.1471(2)
H9 H 0.8366 0.6589 -0.1339
C11 C 0.87520(15) 0.5599(2) -0.17484(17)
C12 C 0.31264(15) 0.6606(2) -0.1658(2)
H10 H 0.3114 0.7152 -0.1610
C13 C 0.37464(15) 0.6214(2) -0.1614(3)
H11 H 0.4154 0.6492 -0.1511
C14 C 0.5003(2) 0.3696(2) -0.31908(17)
C15 C 0.52667(19) 0.3553(2) -0.44354(17)
H12 H 0.5550 0.3675 -0.4833
C16 C 0.25244(16) 0.6193(2) -0.1773(2)
C17 C 0.75857(17) 0.5826(2) -0.1381(2)
H13 H 0.7250 0.6157 -0.1177
O11 O 0.98626(13) 0.5459(2) -0.22121(18)
C18 C 0.52842(17) 0.3953(2) 0.01116(16)
C19 C 0.48836(18) 0.3062(2) 0.12843(16)
C20 C 0.54224(18) 0.3865(2) -0.37673(17)
H14 H 0.5811 0.4189 -0.3708
C21 C 0.37784(17) 0.5436(2) -0.1716(3)
C22 C 0.4674(2) 0.2593(3) 0.19043(19)
C23 C 0.94706(15) 0.5892(2) -0.18560(19)
C24 C 0.5026(2) 0.3834(3) 0.13487(19)
H15 H 0.4988 0.4068 0.1806
O12 O 0.4590(2) 0.1890(2) 0.18115(17)
C25 C 0.5221(2) 0.4286(2) 0.07741(19)
H16 H 0.5310 0.4821 0.0837
C26 C 0.79188(18) 0.4580(2) -0.1840(3)
H17 H 0.7815 0.4052 -0.1926
C27 C 0.85701(18) 0.4868(3) -0.1955(3)
H18 H 0.8901 0.4550 -0.2183
C28 C 0.5166(3) 0.3157(3) 0.00384(18)
H19 H 0.5230 0.2908 -0.0409
C29 C 0.4965(3) 0.2762(2) 0.0606(2)
H20 H 0.4869 0.2229 0.0542
C30 C 0.4438(2) 0.3199(4) -0.3273(2)
H21 H 0.4153 0.3085 -0.2875
C31 C 0.4295(3) 0.2875(3) -0.3934(2)
H22 H 0.3924 0.2525 -0.3986
C32 C 0.3171(2) 0.5004(3) -0.1857(4)
H23 H 0.3188 0.4463 -0.1943
C33 C 0.2550(2) 0.5403(3) -0.1864(5)
H24 H 0.2136 0.5124 -0.1932
O13 O 0.38111(19) -0.0483(2) 0.2442(3)
O14 O 0.3240(2) 0.0865(3) 0.1544(2)
O15 O 0.4797(3) 0.0197(3) 0.1130(3)
Cd1_2 Cd 0.441249(9) 0.219496(11) -0.657083(11)
Cd1B Cd 0.058751(9) 0.719496(11) -0.157083(11)
Cd1B_2 Cd 1.058751(9) 0.719496(11) -0.157083(11)
Cd2B Cd 0.077445(12) 0.570815(14) -0.286395(16)
Cd2B_2 Cd 1.077445(12) 0.570815(14) -0.286395(16)
O1B O 0.31843(10) 0.22903(14) 0.33523(18)
O2B O 0.36939(10) 0.11957(14) 0.31471(13)
O3_2 O 0.41878(19) 0.21508(18) 0.47211(17)
C1B C 0.31544(16) 0.1601(2) 0.32505(18)
C2_2 C 0.4562(2) 0.2749(2) 0.4761(2)
O4_2 O 0.48082(15) 0.30572(16) 0.42250(12)
O6B O 0.53878(11) 0.15438(14) 0.33912(16)
O11B O 0.51374(13) 0.0459(2) 0.27879(18)
loop_
_geom_bond_atom_site_label_1
_geom_bond_atom_site_label_2
_geom_bond_site_symmetry_1
_geom_bond_site_symmetry_2
Cd1 O9 1_555 1_555
Cd2 O12 1_555 1_555
O1 C1 1_555 1_555
O2 C1 1_555 1_555
O3 C2 1_555 1_555
C1 C16 1_555 1_555
C2 O4 1_555 1_555
O4 Cd1_2 1_555 1_555
O5 C5 1_555 1_555
C3 C4 1_555 1_555
C4 H1 1_555 1_555
H2 C4 1_555 1_555
C5 C3 1_555 1_555
H3 C5 1_555 1_555
H4 C5 1_555 1_555
O6 C23 1_555 1_555
O7 C4 1_555 1_555
O8 C8 1_555 1_555
O9 C22 1_555 1_555
C6 C2 1_555 1_555
C7 C3 1_555 1_555
H5 C7 1_555 1_555
H6 C7 1_555 1_555
C8 C3 1_555 1_555
H7 C8 1_555 1_555
H8 C8 1_555 1_555
C9 O5 1_555 1_555
O10 C7 1_555 1_555
C10 H9 1_555 1_555
C11 C10 1_555 1_555
C12 H10 1_555 1_555
C13 C12 1_555 1_555
H11 C13 1_555 1_555
C14 O10 1_555 1_555
C15 C6 1_555 1_555
H12 C15 1_555 1_555
C16 C12 1_555 1_555
C17 C9 1_555 1_555
H13 C17 1_555 1_555
O11 C23 1_555 1_555
C18 O8 1_555 1_555
C19 C22 1_555 1_555
C20 C14 1_555 1_555
H14 C20 1_555 1_555
C21 O7 1_555 1_555
C22 O12 1_555 1_555
C23 C11 1_555 1_555
C24 C19 1_555 1_555
H15 C24 1_555 1_555
C25 C18 1_555 1_555
H16 C25 1_555 1_555
C26 C9 1_555 1_555
H17 C26 1_555 1_555
C27 C11 1_555 1_555
H18 C27 1_555 1_555
C28 C18 1_555 1_555
H19 C28 1_555 1_555
C29 C19 1_555 1_555
H20 C29 1_555 1_555
C30 C14 1_555 1_555
H21 C30 1_555 1_555
C31 C6 1_555 1_555
H22 C31 1_555 1_555
C32 C21 1_555 1_555
H23 C32 1_555 1_555
C33 C16 1_555 1_555
H24 C33 1_555 1_555
O13 Cd2 1_555 1_555
O14 Cd2 1_555 1_555
O15 Cd2 1_555 1_555
Cd1_2 O3 1_555 1_555
Cd1B O1 1_555 1_555
Cd1B_2 O6 1_555 1_555
Cd2B O2 1_555 1_555
Cd2B_2 O11 1_555 1_555
O1B Cd1 1_555 1_555
O2B Cd1 1_555 1_555
O3_2 Cd1 1_555 1_555
C1B O1B 1_555 1_555
C2_2 O3_2 1_555 1_555
O4_2 Cd1 1_555 1_555
O6B Cd1 1_555 1_555
O11B Cd2 1_555 1_555
Cd2 O2B 1_555 1_555
O2 Cd1B 1_555 1_555
C10 C17 1_555 1_555
C13 C21 1_555 1_555
C15 C20 1_555 1_555
C24 C25 1_555 1_555
C26 C27 1_555 1_555
C28 C29 1_555 1_555
C30 C31 1_555 1_555
C32 C33 1_555 1_555
O2B C1B 1_555 1_555
C2_2 O4_2 1_555 1_555

#END
