
#######################################################################
#
#                 Cambridge Crystallographic Data Centre
#                                CCDC 
#
#######################################################################
#
# If this CIF has been generated from an entry in the Cambridge 
# Structural Database, then it will include bibliographic, chemical, 
# crystal, experimental, refinement or atomic coordinate data resulting 
# from the CCDC's data processing and validation procedures.
#
#######################################################################

data_ESIPUR
_symmetry_cell_setting           monoclinic
_symmetry_space_group_name_H-M   'P 2/n'
_symmetry_Int_Tables_number      13
_space_group_name_Hall           '-P 2yac'
loop_
_symmetry_equiv_pos_site_id
_symmetry_equiv_pos_as_xyz
1 x,y,z
2 1/2+x,-y,1/2+z
3 -x,-y,-z
4 1/2-x,y,1/2-z
_cell_length_a                   18.723(4)
_cell_length_b                   7.2710(10)
_cell_length_c                   20.481(4)
_cell_angle_alpha                90
_cell_angle_beta                 107.02(3)
_cell_angle_gamma                90
_cell_volume                     2666.06
loop_
_atom_site_label
_atom_site_type_symbol
_atom_site_fract_x
_atom_site_fract_y
_atom_site_fract_z
Cu1 Cu 0.52790(2) 0.14651(6) 0.47800(2)
F1 F 0.02389(13) 0.2530(3) 0.33169(12)
F2 F -0.04635(11) 0.4760(4) 0.34069(12)
F3 F 0.01035(12) 0.3182(4) 0.42902(12)
F4 F 0.13119(13) 0.7943(3) 0.44902(11)
F5 F 0.01544(13) 0.7336(4) 0.43405(11)
F6 F 0.09998(13) 0.5709(4) 0.50260(10)
F7 F 0.70913(16) 1.0412(4) 0.15483(15)
F8 F 0.66830(15) 1.1026(3) 0.23960(16)
F9 F 0.62606(13) 0.8698(4) 0.17600(13)
O1 O 0.42911(13) 0.2586(3) 0.45819(13)
O2 O 0.38165(13) 0.0144(4) 0.49615(12)
O3 O 0.05402(14) 0.7708(4) 0.07204(12)
O4 O 0.00473(14) 1.0174(4) 0.10838(12)
O5 O 0.58746(12) 0.3557(4) 0.43569(12)
O6 O 0.69066(16) 0.1965(4) 0.44201(16)
H1 H 0.6605 0.0983 0.4680
C1 C 0.3763(2) 0.1745(5) 0.46984(17)
C2 C 0.30111(19) 0.2650(5) 0.45015(17)
C3 C 0.29309(19) 0.4382(5) 0.42286(17)
H2 H 0.3347 0.5017 0.4187
C4 C 0.22378(19) 0.5185(5) 0.40163(18)
H3 H 0.2187 0.6358 0.3827
C5 C 0.16140(19) 0.4275(5) 0.40810(17)
C6 C 0.1706(2) 0.2554(6) 0.4377(2)
H4 H 0.1297 0.1941 0.4443
C7 C 0.2398(2) 0.1738(6) 0.4577(2)
H5 H 0.2451 0.0562 0.4763
C8 C 0.08460(19) 0.5247(5) 0.38396(17)
C9 C 0.07553(18) 0.6259(5) 0.31613(17)
C10 C 0.0903(2) 0.5276(5) 0.26353(18)
H6 H 0.1082 0.4080 0.2716
C11 C 0.0788(2) 0.6032(5) 0.19922(19)
H7 H 0.0881 0.5339 0.1644
C12 C 0.05353(19) 0.7825(5) 0.18700(17)
C13 C 0.04002(19) 0.8811(5) 0.23931(17)
H8 H 0.0235 1.0021 0.2316
C14 C 0.0503(2) 0.8049(5) 0.30315(18)
H9 H 0.0402 0.8742 0.3376
C15 C 0.03620(19) 0.8633(6) 0.11662(18)
C16 C 0.0178(2) 0.3924(6) 0.3717(2)
C17 C 0.0826(2) 0.6581(7) 0.44289(18)
C18 C 0.6465(2) 0.3390(6) 0.42338(18)
C19 C 0.67545(19) 0.4769(5) 0.38387(18)
C20 C 0.7432(2) 0.4506(6) 0.37046(19)
H10 H 0.7736 0.3521 0.3900
C21 C 0.7654(2) 0.5705(5) 0.3282(2)
H11 H 0.8103 0.5501 0.3187
C22 C 0.7223(2) 0.7206(5) 0.29967(19)
C23 C 0.6569(2) 0.7515(5) 0.3164(2)
H12 H 0.6283 0.8551 0.2995
C24 C 0.6335(2) 0.6312(6) 0.35786(19)
H13 H 0.5893 0.6537 0.3684
C25 C 0.7500 0.8422(8) 0.2500
C26 C 0.6872(3) 0.9648(6) 0.2049(3)
C22C C 0.7777(2) 0.7206(5) 0.20033(19)
C21C C 0.7346(2) 0.5705(5) 0.1718(2)
C20C C 0.7568(2) 0.4506(6) 0.12954(19)
C19C C 0.82455(19) 0.4769(5) 0.11613(18)
C18C C 0.8535(2) 0.3390(6) 0.07662(18)
O5C O 0.91254(12) 0.3557(4) 0.06431(12)
O6C O 0.80934(16) 0.1965(4) 0.05799(16)
H1C H 0.8395 0.0983 0.0320
C24C C 0.8665(2) 0.6312(6) 0.14214(19)
C23C C 0.8431(2) 0.7515(5) 0.1836(2)
H12C H 0.8717 0.8551 0.2005
H13C H 0.9107 0.6537 0.1316
H10C H 0.7264 0.3521 0.1100
H11C H 0.6897 0.5501 0.1813
C26C C 0.8128(3) 0.9648(6) 0.2951(3)
F7C F 0.79087(16) 1.0412(4) 0.34517(15)
F8C F 0.83170(15) 1.1026(3) 0.26040(16)
F9C F 0.87394(13) 0.8698(4) 0.32400(13)
F1B F 0.97611(13) -0.2530(3) 0.66831(12)
F2B F 1.04635(11) -0.4760(4) 0.65931(12)
F3B F 0.98965(12) -0.3182(4) 0.57098(12)
F4B F 0.86881(13) -0.7943(3) 0.55098(11)
F5B F 0.98456(13) -0.7336(4) 0.56595(11)
F6B F 0.90002(13) -0.5709(4) 0.49740(10)
O1B O 0.57089(13) -0.2586(3) 0.54181(13)
O2B O 0.61835(13) -0.0144(4) 0.50385(12)
O3B O 0.94598(14) -0.7708(4) 0.92796(12)
O4B O 0.99527(14) -1.0174(4) 0.89162(12)
C1B C 0.6237(2) -0.1745(5) 0.53016(17)
C2B C 0.69889(19) -0.2650(5) 0.54985(17)
C3B C 0.70691(19) -0.4382(5) 0.57714(17)
H2B H 0.6653 -0.5017 0.5813
C4B C 0.77622(19) -0.5185(5) 0.59837(18)
H3B H 0.7813 -0.6358 0.6173
C5B C 0.83860(19) -0.4275(5) 0.59190(17)
C6B C 0.8294(2) -0.2554(6) 0.5623(2)
H4B H 0.8703 -0.1941 0.5557
C7B C 0.7602(2) -0.1738(6) 0.5423(2)
H5B H 0.7549 -0.0562 0.5237
C8B C 0.91540(19) -0.5247(5) 0.61604(17)
C9B C 0.92447(18) -0.6259(5) 0.68387(17)
C10B C 0.9097(2) -0.5276(5) 0.73647(18)
H6B H 0.8918 -0.4080 0.7284
C11B C 0.9212(2) -0.6032(5) 0.80078(19)
H7B H 0.9119 -0.5339 0.8356
C12B C 0.94647(19) -0.7825(5) 0.81300(17)
C13B C 0.95998(19) -0.8811(5) 0.76069(17)
H8B H 0.9765 -1.0021 0.7684
C14B C 0.9497(2) -0.8049(5) 0.69685(18)
H9B H 0.9598 -0.8742 0.6624
C15B C 0.96380(19) -0.8633(6) 0.88338(18)
C16B C 0.9822(2) -0.3924(6) 0.6283(2)
C17B C 0.9174(2) -0.6581(7) 0.55711(18)
Cu1B Cu 0.47210(2) -0.14651(6) 0.52200(2)
O3A O 0.55402(14) 0.2292(4) 0.57204(12)
O4C O 0.49527(14) 0.0174(4) 0.39162(12)
Cu1A Cu 0.02790(2) 0.85349(6) -0.02200(2)
Cu1C Cu -0.02790(2) 1.14651(6) 0.02200(2)
Cu1C_2 Cu 0.97210(2) 0.14651(6) 0.02200(2)
Cu1C_3 Cu 0.97210(2) -0.85349(6) 1.02200(2)
Cu1A_2 Cu 1.02790(2) -1.14651(6) 0.97800(2)
O3C O 0.44598(14) -0.2292(4) 0.42796(12)
O4A O 0.50473(14) -0.0174(4) 0.60838(12)
O5B O 0.41254(12) -0.3557(4) 0.56431(12)
loop_
_geom_bond_atom_site_label_1
_geom_bond_atom_site_label_2
_geom_bond_site_symmetry_1
_geom_bond_site_symmetry_2
Cu1 O1 1_555 1_555
F1 C16 1_555 1_555
F2 C16 1_555 1_555
F3 C16 1_555 1_555
F4 C17 1_555 1_555
F5 C17 1_555 1_555
F6 C17 1_555 1_555
F7 C26 1_555 1_555
F8 C26 1_555 1_555
F9 C26 1_555 1_555
O1 C1 1_555 1_555
O2 C1 1_555 1_555
O3 C15 1_555 1_555
O4 C15 1_555 1_555
O5 Cu1 1_555 1_555
O6 H1 1_555 1_555
C1 C2 1_555 1_555
C2 C3 1_555 1_555
C3 H2 1_555 1_555
C4 C3 1_555 1_555
H3 C4 1_555 1_555
C5 C4 1_555 1_555
C6 C5 1_555 1_555
H4 C6 1_555 1_555
C7 C2 1_555 1_555
H5 C7 1_555 1_555
C8 C5 1_555 1_555
C9 C8 1_555 1_555
C10 C9 1_555 1_555
H6 C10 1_555 1_555
C11 C10 1_555 1_555
H7 C11 1_555 1_555
C12 C11 1_555 1_555
C13 C12 1_555 1_555
H8 C13 1_555 1_555
C14 C9 1_555 1_555
H9 C14 1_555 1_555
C15 C12 1_555 1_555
C16 C8 1_555 1_555
C17 C8 1_555 1_555
C18 O5 1_555 1_555
C19 C18 1_555 1_555
C20 C19 1_555 1_555
H10 C20 1_555 1_555
C21 C20 1_555 1_555
H11 C21 1_555 1_555
C22 C21 1_555 1_555
C23 C22 1_555 1_555
H12 C23 1_555 1_555
C24 C19 1_555 1_555
H13 C24 1_555 1_555
C25 C22 1_555 1_555
C26 C25 1_555 1_555
C22C C25 1_555 1_555
C21C C22C 1_555 1_555
C20C C21C 1_555 1_555
C19C C20C 1_555 1_555
C18C C19C 1_555 1_555
O5C C18C 1_555 1_555
O6C C18C 1_555 1_555
H1C O6C 1_555 1_555
C24C C19C 1_555 1_555
C23C C22C 1_555 1_555
H12C C23C 1_555 1_555
H13C C24C 1_555 1_555
H10C C20C 1_555 1_555
H11C C21C 1_555 1_555
C26C C25 1_555 1_555
F7C C26C 1_555 1_555
F8C C26C 1_555 1_555
F9C C26C 1_555 1_555
F1B C16B 1_555 1_555
F2B C16B 1_555 1_555
F3B C16B 1_555 1_555
F4B C17B 1_555 1_555
F5B C17B 1_555 1_555
F6B C17B 1_555 1_555
O1B C1B 1_555 1_555
O2B Cu1 1_555 1_555
O3B C15B 1_555 1_555
O4B C15B 1_555 1_555
C1B O2B 1_555 1_555
C2B C1B 1_555 1_555
C3B C2B 1_555 1_555
H2B C3B 1_555 1_555
C4B C3B 1_555 1_555
H3B C4B 1_555 1_555
C5B C4B 1_555 1_555
C6B C5B 1_555 1_555
H4B C6B 1_555 1_555
C7B C2B 1_555 1_555
H5B C7B 1_555 1_555
C8B C5B 1_555 1_555
C9B C8B 1_555 1_555
C10B C9B 1_555 1_555
H6B C10B 1_555 1_555
C11B C10B 1_555 1_555
H7B C11B 1_555 1_555
C12B C11B 1_555 1_555
C13B C12B 1_555 1_555
H8B C13B 1_555 1_555
C14B C9B 1_555 1_555
H9B C14B 1_555 1_555
C15B C12B 1_555 1_555
C16B C8B 1_555 1_555
C17B C8B 1_555 1_555
Cu1B Cu1 1_555 1_555
O3A Cu1 1_555 1_555
O4C Cu1 1_555 1_555
Cu1A O3 1_555 1_555
Cu1C O4 1_555 1_555
Cu1C_2 O5C 1_555 1_555
Cu1C_3 O3B 1_555 1_555
Cu1A_2 O4B 1_555 1_555
O3C Cu1B 1_555 1_555
O4A Cu1B 1_555 1_555
O5B Cu1B 1_555 1_555
O2 Cu1B 1_555 1_555
O6 C18 1_555 1_555
C6 C7 1_555 1_555
C13 C14 1_555 1_555
C23 C24 1_555 1_555
C24C C23C 1_555 1_555
O1B Cu1B 1_555 1_555
C6B C7B 1_555 1_555
C13B C14B 1_555 1_555
Cu1A Cu1C 1_555 1_555
Cu1C_3 Cu1A_2 1_555 1_555

#END
