
#######################################################################
#
#                 Cambridge Crystallographic Data Centre
#                                CCDC 
#
#######################################################################
#
# If this CIF has been generated from an entry in the Cambridge 
# Structural Database, then it will include bibliographic, chemical, 
# crystal, experimental, refinement or atomic coordinate data resulting 
# from the CCDC's data processing and validation procedures.
#
#######################################################################

data_EVOHOM
_symmetry_cell_setting           monoclinic
_symmetry_space_group_name_H-M   'I 2/a'
_symmetry_Int_Tables_number      15
_space_group_name_Hall           '-I 2ya'
loop_
_symmetry_equiv_pos_site_id
_symmetry_equiv_pos_as_xyz
1 x,y,z
2 1/2+x,1/2+y,1/2+z
3 1/2+x,-y,z
4 x,1/2-y,1/2+z
5 -x,-y,-z
6 1/2-x,1/2-y,1/2-z
7 1/2-x,y,-z
8 -x,1/2+y,1/2-z
_cell_length_a                   9.2010(12)
_cell_length_b                   29.032(5)
_cell_length_c                   9.2079(17)
_cell_angle_alpha                90
_cell_angle_beta                 115.45(3)
_cell_angle_gamma                90
_cell_volume                     2220.96
loop_
_atom_site_label
_atom_site_type_symbol
_atom_site_fract_x
_atom_site_fract_y
_atom_site_fract_z
Ba1 Ba 0.2500 0.47133(3) 0.5000
Ba2 Ba 0.2500 0.77090(3) 1.0000
Zr1 Zr 0.7500 0.61548(4) 1.0000
O1 O 0.3250(8) 0.5349(3) 0.7752(9)
O2 O 0.4825(9) 0.5407(3) 0.5776(8)
O3 O 0.6784(8) 0.5766(2) 0.7784(8)
O4 O 0.5308(8) 0.5753(3) 0.9569(8)
O5 O 0.6468(8) 0.6503(2) 1.1474(8)
O6 O 0.5697(9) 0.6645(3) 0.8494(8)
O7 O 0.3812(10) 0.7157(3) 0.8289(9)
O8 O 0.4510(14) 0.6961(4) 1.1453(11)
O9 O -0.0259(10) 0.4438(4) 0.2333(10)
O10 O 0.2500 0.3756(5) 0.5000
C1 C 0.4527(12) 0.5545(3) 0.8221(12)
C2 C 0.5432(12) 0.5568(3) 0.7134(12)
C3 C 0.5273(13) 0.6773(4) 1.0819(13)
C4 C 0.4867(13) 0.6876(4) 0.9048(13)
O1F O 0.1750(8) 0.5349(3) 0.2248(9)
O2F O 0.0175(9) 0.5407(3) 0.4224(8)
O3F O -0.1784(8) 0.5766(2) 0.2216(8)
O4F O -0.0308(8) 0.5753(3) 0.0431(8)
C1F C 0.0473(12) 0.5545(3) 0.1779(12)
C2F C -0.0432(12) 0.5568(3) 0.2866(12)
O9F O 0.5259(10) 0.4438(4) 0.7667(10)
O5F O 0.8532(8) 0.6503(2) 0.8526(8)
O6F O 0.9303(9) 0.6645(3) 1.1506(8)
O7F O 1.1188(10) 0.7157(3) 1.1711(9)
O8F O 1.0490(14) 0.6961(4) 0.8547(11)
C3F C 0.9727(13) 0.6773(4) 0.9181(13)
C4F C 1.0133(13) 0.6876(4) 1.0952(13)
O2B O -0.0175(9) 0.4593(3) 0.5776(8)
O2D O 0.5175(9) 0.4593(3) 0.4224(8)
O3B O 0.1784(8) 0.4234(2) 0.7784(8)
O3D O 0.3216(8) 0.4234(2) 0.2216(8)
O7C O 0.3812(10) 0.7843(3) 1.3289(9)
O7E O 0.1188(10) 0.7843(3) 0.6711(9)
O7F_2 O 0.1188(10) 0.7157(3) 1.1711(9)
O8F_2 O 0.0490(14) 0.6961(4) 0.8547(11)
O3F_2 O 0.8216(8) 0.5766(2) 1.2216(8)
O4F_2 O 0.9692(8) 0.5753(3) 1.0431(8)
Ba1B Ba 0.7500 0.52867(3) 0.5000
Ba2C Ba 0.2500 0.72910(3) 0.5000
Ba1B_2 Ba -0.2500 0.52867(3) 0.5000
Zr1_2 Zr -0.2500 0.61548(4) 0.0000
Ba2_2 Ba 1.2500 0.77090(3) 1.0000
Ba2C_2 Ba 1.2500 0.72910(3) 1.5000
loop_
_geom_bond_atom_site_label_1
_geom_bond_atom_site_label_2
_geom_bond_site_symmetry_1
_geom_bond_site_symmetry_2
Ba1 O1 1_555 1_555
Ba2 O7 1_555 1_555
Zr1 O3 1_555 1_555
O1 C1 1_555 1_555
O2 Ba1 1_555 1_555
O3 C2 1_555 1_555
O4 Zr1 1_555 1_555
O5 Zr1 1_555 1_555
O6 Zr1 1_555 1_555
O7 C4 1_555 1_555
O8 Ba2 1_555 1_555
O9 Ba1 1_555 1_555
O10 Ba1 1_555 1_555
C1 O4 1_555 1_555
C2 O2 1_555 1_555
C3 O5 1_555 1_555
C4 O6 1_555 1_555
O1F Ba1 1_555 1_555
O2F Ba1 1_555 1_555
O3F C2F 1_555 1_555
O4F C1F 1_555 1_555
C1F O1F 1_555 1_555
C2F O2F 1_555 1_555
O9F Ba1 1_555 1_555
O5F Zr1 1_555 1_555
O6F Zr1 1_555 1_555
O7F C4F 1_555 1_555
O8F C3F 1_555 1_555
C3F O5F 1_555 1_555
C4F O6F 1_555 1_555
O2B Ba1 1_555 1_555
O2D Ba1 1_555 1_555
O3B Ba1 1_555 1_555
O3D Ba1 1_555 1_555
O7C Ba2 1_555 1_555
O7E Ba2 1_555 1_555
O7F_2 Ba2 1_555 1_555
O8F_2 Ba2 1_555 1_555
O3F_2 Zr1 1_555 1_555
O4F_2 Zr1 1_555 1_555
Ba1B O2 1_555 1_555
Ba2C O7 1_555 1_555
Ba1B_2 O2F 1_555 1_555
Zr1_2 O3F 1_555 1_555
Ba2_2 O7F 1_555 1_555
Ba2C_2 O7F 1_555 1_555
O3 Ba1B 1_555 1_555
O8 C3 1_555 1_555
C1 C2 1_555 1_555
C3 C4 1_555 1_555
O3F Ba1B_2 1_555 1_555
O4F Zr1_2 1_555 1_555
C1F C2F 1_555 1_555
O8F Ba2_2 1_555 1_555
C3F C4F 1_555 1_555
O2B Ba1B_2 1_555 1_555
O2D Ba1B 1_555 1_555
O7E Ba2C 1_555 1_555

#END
