
#######################################################################
#
#                 Cambridge Crystallographic Data Centre
#                                CCDC 
#
#######################################################################
#
# If this CIF has been generated from an entry in the Cambridge 
# Structural Database, then it will include bibliographic, chemical, 
# crystal, experimental, refinement or atomic coordinate data resulting 
# from the CCDC's data processing and validation procedures.
#
#######################################################################

data_EVURAP
_symmetry_cell_setting           triclinic
_symmetry_space_group_name_H-M   'P -1'
_symmetry_Int_Tables_number      2
_space_group_name_Hall           '-P 1'
loop_
_symmetry_equiv_pos_site_id
_symmetry_equiv_pos_as_xyz
1 x,y,z
2 -x,-y,-z
_cell_length_a                   9.6047(4)
_cell_length_b                   10.0427(4)
_cell_length_c                   11.4589(5)
_cell_angle_alpha                96.126(2)
_cell_angle_beta                 97.2065(17)
_cell_angle_gamma                111.8585(19)
_cell_volume                     1003.5
loop_
_atom_site_label
_atom_site_type_symbol
_atom_site_fract_x
_atom_site_fract_y
_atom_site_fract_z
O10 O 0.5732(6) 0.5184(5) 0.2081(5)
H13 H 0.5656 0.5951 0.1759
H14 H 0.5678 0.5301 0.2880
O12 O 0.3310(16) 0.3522(17) 0.3414(13)
H22 H 0.3415 0.2787 0.3716
H23 H 0.2480 0.3053 0.2685
Ce1 Ce 1.28676(3) 1.04508(3) -0.00822(2)
O1 O 1.4563(4) 1.2427(4) -0.1099(3)
O2 O 1.1182(4) 0.9824(4) -0.2177(3)
O3 O 1.1830(4) 1.2265(4) -0.0169(4)
O4 O 1.0539(4) 0.8406(4) -0.0161(3)
C1 C 1.0782(6) 1.2530(5) 0.0226(4)
C2 C 1.1131(6) 1.4068(5) 0.0795(4)
C3 C 1.2475(6) 1.5170(5) 0.0680(4)
H1 H 1.3177 1.4949 0.0263
C4 C 1.2795(5) 1.6603(5) 0.1174(4)
C5 C 1.5780(6) 1.2211(5) -0.1012(4)
O5 O 1.5808(4) 1.1003(4) -0.0777(3)
C6 C 1.1777(6) 1.6918(6) 0.1809(4)
H2 H 1.1960 1.7896 0.2119
C7 C 1.0502(6) 1.5789(6) 0.1980(4)
C8 C 1.0137(6) 1.4371(5) 0.1460(4)
H3 H 0.9223 1.3616 0.1554
O6 O 0.9494(4) 1.6078(4) 0.2654(3)
C9 C 1.0090(6) 1.6737(6) 0.3826(4)
C10 C 1.1257(6) 1.6515(6) 0.4520(5)
H4 H 1.1710 1.5904 0.4186
C11 C 1.1754(6) 1.7189(6) 0.5699(5)
H5 H 1.2542 1.7032 0.6178
C12 C 1.1104(6) 1.8092(6) 0.6182(4)
C13 C 1.1704(6) 0.8905(5) -0.2573(4)
O7 O 1.2756(4) 0.8703(4) -0.1921(3)
C14 C 0.9937(6) 1.8305(6) 0.5483(5)
H6 H 0.9498 1.8928 0.5817
C15 C 0.9407(6) 1.7619(6) 0.4307(5)
N1 N 0.8179(6) 1.7749(6) 0.3597(5)
H7 H 0.8322 1.8473 0.3185
H8 H 0.7379 1.6962 0.3154
O8 O 1.1933(4) 1.0626(5) 0.1919(3)
H9 H 1.2482 1.0867 0.2638
H10 H 1.0976 1.0443 0.1963
O9 O 1.4980(4) 1.2258(4) 0.1519(3)
H11 H 1.5151 1.3212 0.1717
H12 H 1.5717 1.1915 0.1624
Ce1A Ce 1.71324(3) 0.95492(3) 0.00822(2)
O4A O 0.9461(4) 1.1594(4) 0.0161(3)
C1A C 0.9218(6) 0.7470(5) -0.0226(4)
C4A C 1.7205(5) 1.3397(5) -0.1174(4)
C5A C 1.4220(6) 1.7789(5) 0.1012(4)
O5A O 1.4192(4) 0.8997(4) 0.0777(3)
C12_2 C 1.1104(6) 0.8092(6) -0.3818(4)
C13_2 C 1.1704(6) 1.8905(5) 0.7427(4)
N2? N 0.5000 0.0000 0.5000
C16? C 0.5064(17) 0.065(2) 0.6157(12)
H15? H 0.6012 0.0785 0.6687
H16? H 0.5020 0.1609 0.6102
H17? H 0.4175 0.0048 0.6475
C17? C 0.4196(18) 0.038(2) 0.4017(13)
H18? H 0.3476 -0.0490 0.3465
H19? H 0.6367 -0.0946 0.5667
H20? H 0.4966 0.0989 0.3596
C18? C 0.564(2) -0.100(2) 0.479(2)
H21? H 0.5645 -0.1366 0.3989
O11? O 0.3549(14) 0.1451(18) 0.4245(10)
loop_
_geom_bond_atom_site_label_1
_geom_bond_atom_site_label_2
_geom_bond_site_symmetry_1
_geom_bond_site_symmetry_2
Ce1 O1 1_555 1_555
O1 C5 1_555 1_555
O2 Ce1 1_555 1_555
O3 Ce1 1_555 1_555
O4 Ce1 1_555 1_555
C1 O3 1_555 1_555
C2 C1 1_555 1_555
C3 C2 1_555 1_555
H1 C3 1_555 1_555
C4 C3 1_555 1_555
C5 O5 1_555 1_555
O5 Ce1 1_555 1_555
C6 C4 1_555 1_555
H2 C6 1_555 1_555
C7 C6 1_555 1_555
C8 C2 1_555 1_555
H3 C8 1_555 1_555
O6 C7 1_555 1_555
C9 O6 1_555 1_555
C10 C9 1_555 1_555
H4 C10 1_555 1_555
C11 C10 1_555 1_555
H5 C11 1_555 1_555
C12 C11 1_555 1_555
C13 O2 1_555 1_555
O7 Ce1 1_555 1_555
C14 C12 1_555 1_555
H6 C14 1_555 1_555
C15 C9 1_555 1_555
N1 C15 1_555 1_555
H7 N1 1_555 1_555
H8 N1 1_555 1_555
O8 Ce1 1_555 1_555
H9 O8 1_555 1_555
H10 O8 1_555 1_555
O9 Ce1 1_555 1_555
H11 O9 1_555 1_555
H12 O9 1_555 1_555
O10 H13 1_555 1_555
H14 O10 1_555 1_555
O12 H22 1_555 1_555
H23 O12 1_555 1_555
Ce1A O5 1_555 1_555
O4A C1 1_555 1_555
C1A O4 1_555 1_555
C4A C5 1_555 1_555
C5A C4 1_555 1_555
O5A Ce1 1_555 1_555
C12_2 C13 1_555 1_555
C13_2 C12 1_555 1_555
C7 C8 1_555 1_555
C13 O7 1_555 1_555
C14 C15 1_555 1_555
Ce1A O5A 1_555 1_555

#END
