
#######################################################################
#
#                 Cambridge Crystallographic Data Centre
#                                CCDC 
#
#######################################################################
#
# If this CIF has been generated from an entry in the Cambridge 
# Structural Database, then it will include bibliographic, chemical, 
# crystal, experimental, refinement or atomic coordinate data resulting 
# from the CCDC's data processing and validation procedures.
#
#######################################################################

data_EWALUK
_symmetry_cell_setting           rhombohedral
_symmetry_space_group_name_H-M   'R -3 c'
_symmetry_Int_Tables_number      167
_space_group_name_Hall           '-R 3 2"c'
loop_
_symmetry_equiv_pos_site_id
_symmetry_equiv_pos_as_xyz
1 x,y,z
2 -y,x-y,z
3 -x+y,-x,z
4 2/3+x,1/3+y,1/3+z
5 2/3-y,1/3+x-y,1/3+z
6 2/3-x+y,1/3-x,1/3+z
7 1/3+x,2/3+y,2/3+z
8 1/3-y,2/3+x-y,2/3+z
9 1/3-x+y,2/3-x,2/3+z
10 x-y,-y,1/2-z
11 -x,-x+y,1/2-z
12 y,x,1/2-z
13 2/3+x-y,1/3-y,5/6-z
14 2/3-x,1/3-x+y,5/6-z
15 2/3+y,1/3+x,5/6-z
16 1/3+x-y,2/3-y,1/6-z
17 1/3-x,2/3-x+y,1/6-z
18 1/3+y,2/3+x,1/6-z
19 -x,-y,-z
20 y,-x+y,-z
21 x-y,x,-z
22 1/3-x,2/3-y,2/3-z
23 1/3+y,2/3-x+y,2/3-z
24 1/3+x-y,2/3+x,2/3-z
25 2/3-x,1/3-y,1/3-z
26 2/3+y,1/3-x+y,1/3-z
27 2/3+x-y,1/3+x,1/3-z
28 -x+y,y,1/2+z
29 x,x-y,1/2+z
30 -y,-x,1/2+z
31 1/3-x+y,2/3+y,1/6+z
32 1/3+x,2/3+x-y,1/6+z
33 1/3-y,2/3-x,1/6+z
34 2/3-x+y,1/3+y,5/6+z
35 2/3+x,1/3+x-y,5/6+z
36 2/3-y,1/3-x,5/6+z
_cell_length_a                   22.6523(6)
_cell_length_b                   22.6523(6)
_cell_length_c                   65.9502(16)
_cell_angle_alpha                90
_cell_angle_beta                 90
_cell_angle_gamma                120
_cell_volume                     29307
loop_
_atom_site_label
_atom_site_type_symbol
_atom_site_fract_x
_atom_site_fract_y
_atom_site_fract_z
Zn1 Zn 1.0000 1.0000 0.545577(15)
Zn2 Zn 0.62379(3) 0.38485(3) 0.416935(9)
O1 O 0.68593(18) 0.45920(16) 0.43373(5)
O2 O 0.92839(15) 0.84144(17) 0.56150(6)
O3 O 0.9739(3) 0.9125(2) 0.53556(6)
O4 O 0.78226(15) 0.45355(15) 0.43412(5)
O5 O 1.0000 1.0000 0.57469(8)
C1 C 0.8315(5) 0.6361(3) 0.48463(11)
C2 C 0.7742(3) 0.5321(3) 0.45604(9)
C3 C 0.8622(4) 0.6914(3) 0.49989(12)
C4 C 0.8671(4) 0.6062(3) 0.47750(10)
C5 C 0.8377(3) 0.5540(3) 0.46349(9)
H1 H 0.8620 0.5333 0.4591
C6 C 0.7402(4) 0.5617(3) 0.46293(9)
H2 H 0.6962 0.5464 0.4582
C7 C 0.7675(5) 0.6140(4) 0.47682(11)
C8 C 0.7440(3) 0.4773(3) 0.43975(9)
C9 C 0.9137(4) 0.7964(3) 0.52814(10)
C10 C 0.8772(3) 0.7298(3) 0.53419(11)
H3 H 0.8703 0.7200 0.5480
C11 C 0.8504(4) 0.6766(3) 0.52036(12)
C12 C 0.9015(5) 0.7579(4) 0.49293(11)
C13 C 0.9261(4) 0.8104(4) 0.50816(12)
H4 H 0.9516 0.8556 0.5041
C14 C 0.9398(3) 0.8537(3) 0.54327(12)
C15 C 0.8140(4) 0.6047(4) 0.52726(12)
H5 H 0.7661 0.5889 0.5282
H6 H 0.8308 0.6016 0.5403
H7 H 0.8216 0.5771 0.5177
C16 C 0.9153(5) 0.7773(4) 0.47049(11)
H8 H 0.9550 0.7755 0.4662
H9 H 0.9230 0.8226 0.4686
H10 H 0.8768 0.7458 0.4626
C17 C 0.9391(5) 0.6297(4) 0.48634(14)
H11 H 0.9726 0.6678 0.4787
H12 H 0.9485 0.5929 0.4856
H13 H 0.9406 0.6430 0.5002
C18 C 0.7285(5) 0.6477(4) 0.48478(12)
H14 H 0.7012 0.6224 0.4962
H15 H 0.6995 0.6484 0.4743
H16 H 0.7601 0.6935 0.4889
Zn1_2 Zn 0.0000 0.0000 0.545577(15)
Zn1_3 Zn 1.0000 0.0000 0.545577(15)
Zn2A Zn 0.61515(3) 0.23894(4) 0.416935(9)
Zn2B Zn 0.76106(4) 0.37621(3) 0.416935(9)
Zn2DA Zn 0.09439(4) 0.05152(3) 0.583602(9)
Zn2DA_2 Zn 1.09439(4) 1.05152(3) 0.583602(9)
Zn2EA Zn 0.95712(3) 0.90561(4) 0.583602(9)
Zn2FA Zn 0.94848(3) 0.04288(3) 0.583602(9)
Zn2FA_2 Zn 0.94848(3) 1.04288(3) 0.583602(9)
O1A O 0.54080(16) 0.22673(24) 0.43373(5)
O1B O 0.77327(24) 0.31407(18) 0.43373(5)
O2A O 0.15856(17) 0.08695(23) 0.56150(6)
O2B O 0.91305(23) 0.07161(15) 0.56150(6)
O2GA O 0.57972(23) 0.17477(17) 0.39483(6)
O2HA O 0.59506(15) 0.42028(23) 0.39483(6)
O2IA O 0.82523(17) 0.40494(15) 0.39483(6)
O3A O 0.0875(2) 0.0614(4) 0.53556(6)
O3B O 0.9386(4) 0.0261(3) 0.53556(6)
O3A_2 O 1.0875(2) 1.0614(4) 0.53556(6)
O3B_2 O 0.9386(4) 1.0261(3) 0.53556(6)
O4A O 0.54645(15) 0.32871(21) 0.43412(5)
O4B O 0.67129(21) 0.21774(15) 0.43412(5)
O5GA O 0.6667 0.3333 0.40802(8)
C1A C 0.3639(3) 0.1954(6) 0.48463(11)
C1B C 0.8046(6) 0.1685(5) 0.48463(11)
C2A C 0.4679(3) 0.2421(4) 0.45604(9)
C2B C 0.7579(4) 0.2258(3) 0.45604(9)
C3A C 0.3086(3) 0.1708(5) 0.49989(12)
C3B C 0.8292(5) 0.1378(4) 0.49989(12)
C4A C 0.3938(3) 0.2609(5) 0.47750(10)
C4B C 0.7391(5) 0.1329(4) 0.47750(10)
C5A C 0.4460(3) 0.2837(4) 0.46349(9)
C5B C 0.7163(4) 0.1623(3) 0.46349(9)
H1A H 0.4667 0.3287 0.4591
H1B H 0.6713 0.1380 0.4591
C6A C 0.4383(3) 0.1785(5) 0.46293(9)
C6B C 0.8215(5) 0.2598(4) 0.46293(9)
H2A H 0.4536 0.1498 0.4582
H2B H 0.8502 0.3038 0.4582
C7A C 0.3860(4) 0.1535(6) 0.47682(11)
C7B C 0.8465(6) 0.2325(5) 0.47682(11)
C8A C 0.5227(3) 0.2667(4) 0.43975(9)
C8B C 0.7333(4) 0.2560(3) 0.43975(9)
C9A C 0.2036(3) 0.1173(5) 0.52814(10)
C9B C 0.8827(5) 0.0863(4) 0.52814(10)
C10A C 0.2702(3) 0.1474(4) 0.53419(11)
C10B C 0.8526(4) 0.1228(3) 0.53419(11)
H3A H 0.2800 0.1503 0.5480
H3B H 0.8497 0.1297 0.5480
C11A C 0.3234(3) 0.1738(5) 0.52036(12)
C11B C 0.8262(5) 0.1496(4) 0.52036(12)
C12A C 0.2421(4) 0.1436(6) 0.49293(11)
C12B C 0.8564(6) 0.0985(5) 0.49293(11)
C13A C 0.1896(4) 0.1157(6) 0.50816(12)
C13B C 0.8843(6) 0.0739(4) 0.50816(12)
H4A H 0.1444 0.0960 0.5041
H4B H 0.9040 0.0484 0.5041
C14A C 0.1463(3) 0.0861(4) 0.54327(12)
C14B C 0.9139(4) 0.0602(3) 0.54327(12)
C15A C 0.3953(4) 0.2093(6) 0.52726(12)
C15B C 0.7907(6) 0.1860(4) 0.52726(12)
H5A H 0.4111 0.1772 0.5282
H5B H 0.8228 0.2339 0.5282
H6A H 0.3984 0.2292 0.5403
H6B H 0.7708 0.1692 0.5403
H7A H 0.4229 0.2445 0.5177
H7B H 0.7555 0.1784 0.5177
C16A C 0.2227(4) 0.1380(6) 0.47049(11)
C16B C 0.8620(6) 0.0847(5) 0.47049(11)
H8A H 0.2245 0.1795 0.4662
H8B H 0.8205 0.0450 0.4662
H9A H 0.1774 0.1004 0.4686
H9B H 0.8996 0.0770 0.4686
H10A H 0.2542 0.1310 0.4626
H10B H 0.8690 0.1232 0.4626
C17A C 0.3703(4) 0.3094(6) 0.48634(14)
C17B C 0.6906(6) 0.0609(5) 0.48634(14)
H11A H 0.3322 0.3048 0.4787
H11B H 0.6952 0.0274 0.4787
H12A H 0.4071 0.3556 0.4856
H12B H 0.6444 0.0515 0.4856
H13A H 0.3570 0.2976 0.5002
H13B H 0.7024 0.0594 0.5002
C18A C 0.3523(4) 0.0808(6) 0.48478(12)
C18B C 0.9192(6) 0.2715(5) 0.48478(12)
H14A H 0.3776 0.0788 0.4962
H14B H 0.9212 0.2988 0.4962
H15A H 0.3516 0.0511 0.4743
H15B H 0.9489 0.3005 0.4743
H16A H 0.3065 0.0666 0.4889
H16B H 0.9334 0.2399 0.4889
loop_
_geom_bond_atom_site_label_1
_geom_bond_atom_site_label_2
_geom_bond_site_symmetry_1
_geom_bond_site_symmetry_2
Zn1 O3 1_555 1_555
Zn2 O1 1_555 1_555
O1 C8 1_555 1_555
O2 C14 1_555 1_555
O3 C14 1_555 1_555
O4 C8 1_555 1_555
O5 Zn1 1_555 1_555
C1 C3 1_555 1_555
C2 C5 1_555 1_555
C3 C11 1_555 1_555
C4 C1 1_555 1_555
C5 C4 1_555 1_555
H1 C5 1_555 1_555
C6 C2 1_555 1_555
H2 C6 1_555 1_555
C7 C1 1_555 1_555
C8 C2 1_555 1_555
C9 C10 1_555 1_555
C10 H3 1_555 1_555
C11 C10 1_555 1_555
C12 C3 1_555 1_555
C13 C9 1_555 1_555
H4 C13 1_555 1_555
C14 C9 1_555 1_555
C15 C11 1_555 1_555
H5 C15 1_555 1_555
H6 C15 1_555 1_555
H7 C15 1_555 1_555
C16 C12 1_555 1_555
H8 C16 1_555 1_555
H9 C16 1_555 1_555
H10 C16 1_555 1_555
C17 C4 1_555 1_555
H11 C17 1_555 1_555
H12 C17 1_555 1_555
H13 C17 1_555 1_555
C18 C7 1_555 1_555
H14 C18 1_555 1_555
H15 C18 1_555 1_555
H16 C18 1_555 1_555
Zn1_2 O3A 1_555 1_555
Zn1_3 O3B 1_555 1_555
Zn2A O1A 1_555 1_555
Zn2B O4 1_555 1_555
Zn2DA O2A 1_555 1_555
Zn2DA_2 O5 1_555 1_555
Zn2EA O2 1_555 1_555
Zn2FA O2B 1_555 1_555
Zn2FA_2 O5 1_555 1_555
O1A C8A 1_555 1_555
O1B Zn2B 1_555 1_555
O2A C14A 1_555 1_555
O2B C14B 1_555 1_555
O2GA Zn2A 1_555 1_555
O2HA Zn2 1_555 1_555
O2IA Zn2B 1_555 1_555
O3A C14A 1_555 1_555
O3B C14B 1_555 1_555
O3A_2 Zn1 1_555 1_555
O3B_2 Zn1 1_555 1_555
O4A Zn2 1_555 1_555
O4B Zn2A 1_555 1_555
O5GA Zn2 1_555 1_555
C1A C3A 1_555 1_555
C1B C3B 1_555 1_555
C2A C5A 1_555 1_555
C2B C5B 1_555 1_555
C3A C11A 1_555 1_555
C3B C11B 1_555 1_555
C4A C1A 1_555 1_555
C4B C1B 1_555 1_555
C5A C4A 1_555 1_555
C5B C4B 1_555 1_555
H1A C5A 1_555 1_555
H1B C5B 1_555 1_555
C6A C2A 1_555 1_555
C6B C2B 1_555 1_555
H2A C6A 1_555 1_555
H2B C6B 1_555 1_555
C7A C1A 1_555 1_555
C7B C1B 1_555 1_555
C8A O4A 1_555 1_555
C8B O1B 1_555 1_555
C9A C10A 1_555 1_555
C9B C10B 1_555 1_555
C10A H3A 1_555 1_555
C10B H3B 1_555 1_555
C11A C10A 1_555 1_555
C11B C10B 1_555 1_555
C12A C3A 1_555 1_555
C12B C3B 1_555 1_555
C13A C9A 1_555 1_555
C13B C9B 1_555 1_555
H4A C13A 1_555 1_555
H4B C13B 1_555 1_555
C14A C9A 1_555 1_555
C14B C9B 1_555 1_555
C15A C11A 1_555 1_555
C15B C11B 1_555 1_555
H5A C15A 1_555 1_555
H5B C15B 1_555 1_555
H6A C15A 1_555 1_555
H6B C15B 1_555 1_555
H7A C15A 1_555 1_555
H7B C15B 1_555 1_555
C16A C12A 1_555 1_555
C16B C12B 1_555 1_555
H8A C16A 1_555 1_555
H8B C16B 1_555 1_555
H9A C16A 1_555 1_555
H9B C16B 1_555 1_555
H10A C16A 1_555 1_555
H10B C16B 1_555 1_555
C17A C4A 1_555 1_555
C17B C4B 1_555 1_555
H11A C17A 1_555 1_555
H11B C17B 1_555 1_555
H12A C17A 1_555 1_555
H12B C17B 1_555 1_555
H13A C17A 1_555 1_555
H13B C17B 1_555 1_555
C18A C7A 1_555 1_555
C18B C7B 1_555 1_555
H14A C18A 1_555 1_555
H14B C18B 1_555 1_555
H15A C18A 1_555 1_555
H15B C18B 1_555 1_555
H16A C18A 1_555 1_555
H16B C18B 1_555 1_555
O5 Zn2EA 1_555 1_555
C6 C7 1_555 1_555
C12 C13 1_555 1_555
Zn2A O5GA 1_555 1_555
Zn2B O5GA 1_555 1_555
O4B C8B 1_555 1_555
C2A C8A 1_555 1_555
C2B C8B 1_555 1_555
C6A C7A 1_555 1_555
C6B C7B 1_555 1_555
C12A C13A 1_555 1_555
C12B C13B 1_555 1_555

#END
