
#######################################################################
#
#                 Cambridge Crystallographic Data Centre
#                                CCDC 
#
#######################################################################
#
# If this CIF has been generated from an entry in the Cambridge 
# Structural Database, then it will include bibliographic, chemical, 
# crystal, experimental, refinement or atomic coordinate data resulting 
# from the CCDC's data processing and validation procedures.
#
#######################################################################

data_EWETUW
_symmetry_cell_setting           triclinic
_symmetry_space_group_name_H-M   'P -1'
_symmetry_Int_Tables_number      2
_space_group_name_Hall           '-P 1'
loop_
_symmetry_equiv_pos_site_id
_symmetry_equiv_pos_as_xyz
1 x,y,z
2 -x,-y,-z
_cell_length_a                   8.257(6)
_cell_length_b                   13.163(10)
_cell_length_c                   14.238(11)
_cell_angle_alpha                114.261(8)
_cell_angle_beta                 96.493(9)
_cell_angle_gamma                101.699(9)
_cell_volume                     1347.66
loop_
_atom_site_label
_atom_site_type_symbol
_atom_site_fract_x
_atom_site_fract_y
_atom_site_fract_z
Tb1 Tb 0.26933(4) 0.54978(2) 0.49918(2)
O1 O 0.1967(4) 0.4954(3) 0.6281(3)
O2 O -0.0704(4) 0.4759(3) 0.6416(3)
O3 O 0.4480(4) 0.4784(3) 1.3868(2)
O4 O 0.5196(4) 0.3154(3) 1.3474(3)
O5 O 0.1132(4) -0.3273(3) 0.5754(3)
O6 O -0.1594(4) -0.3459(3) 0.5867(3)
N1 N 0.1411(6) 0.1951(3) 0.8848(3)
C1 C 0.0718(7) 0.4613(4) 0.6592(4)
C2 C 0.0910(6) 0.3948(4) 0.7228(4)
C3 C 0.2488(7) 0.3944(4) 0.7644(4)
H1 H 0.3448 0.4371 0.7552
C4 C 0.2661(7) 0.3307(5) 0.8200(4)
H2 H 0.3736 0.3306 0.8475
C5 C 0.1262(7) 0.2680(4) 0.8349(4)
C6 C -0.0314(7) 0.2694(4) 0.7939(4)
H3 H -0.1276 0.2270 0.8032
C7 C -0.0478(7) 0.3335(5) 0.7390(4)
H4 H -0.1552 0.3348 0.7126
C8 C 0.4485(6) 0.3792(5) 1.3220(4)
C9 C 0.3641(6) 0.3320(4) 1.2075(4)
C10 C 0.3463(7) 0.2173(4) 1.1392(4)
H5 H 0.3853 0.1700 1.1647
C11 C 0.2716(7) 0.1728(4) 1.0343(4)
H6 H 0.2575 0.0949 0.9903
C12 C 0.2168(7) 0.2412(4) 0.9925(4)
C13 C 0.2338(7) 0.3557(4) 1.0609(4)
H7 H 0.1981 0.4038 1.0351
C14 C 0.3031(6) 0.3986(4) 1.1666(4)
H8 H 0.3089 0.4748 1.2118
C15 C -0.0063(7) -0.2876(4) 0.6091(4)
C16 C 0.0349(6) -0.1597(4) 0.6801(4)
C17 C 0.1954(7) -0.0898(4) 0.7061(4)
H9 H 0.2806 -0.1205 0.6779
C18 C 0.2314(7) 0.0259(4) 0.7739(4)
H10 H 0.3414 0.0730 0.7913
C19 C 0.1064(8) 0.0735(4) 0.8166(4)
C20 C -0.0568(7) 0.0049(4) 0.7904(4)
H11 H -0.1422 0.0356 0.8183
C21 C -0.0907(7) -0.1120(5) 0.7207(4)
H12 H -0.2011 -0.1592 0.7010
C22 C 0.5448(7) 0.7535(5) 0.4709(4)
H13 H 0.6235 0.7308 0.5045
N2 N 0.6060(6) 0.8330(4) 0.4418(4)
C23 C 0.7873(7) 0.8828(6) 0.4598(5)
H14 H 0.8476 0.8534 0.5000
H15 H 0.8140 0.9657 0.4982
H16 H 0.8199 0.8624 0.3932
C24 C 0.4912(9) 0.8660(5) 0.3823(6)
H17 H 0.3764 0.8261 0.3760
H18 H 0.5141 0.8457 0.3133
H19 H 0.5067 0.9482 0.4183
O7 O 0.3964(4) 0.7061(3) 0.4589(3)
Tb1A Tb -0.26933(4) 0.45022(2) 0.50082(2)
Tb1_2 Tb 0.26933(4) 0.54978(2) 1.49918(2)
Tb1A_2 Tb 0.73067(4) 0.45022(2) 1.50082(2)
Tb1_3 Tb 0.26933(4) -0.45022(2) 0.49918(2)
Tb1A_3 Tb -0.26933(4) -0.54978(2) 0.50082(2)
O2A O 0.0704(4) 0.5241(3) 0.3584(3)
O3_2 O 0.4480(4) 0.4784(3) 0.3868(2)
O3A O 0.5520(4) 0.5216(3) 0.6132(2)
O4A O 0.4804(4) 0.6846(3) 0.6526(3)
O5_2 O 0.1132(4) 0.6727(3) 0.5754(3)
O6A O 0.1594(4) 0.3459(3) 0.4133(3)
N3 N 0.7392(7) 1.2345(4) 1.0347(4)
C25 C 0.6766(14) 1.1307(8) 0.9447(6)
H20 H 0.6704 1.0607 0.9476
C26 C 0.8124(17) 1.2394(11) 1.1309(8)
H21 H 0.8693 1.3185 1.1799
H22 H 0.8927 1.1943 1.1194
H23 H 0.7254 1.2088 1.1591
C27 C 0.7298(16) 1.3377(8) 1.0287(10)
H24 H 0.8256 1.4001 1.0768
H25 H 0.6272 1.3554 1.0473
H26 H 0.7302 1.3277 0.9581
O8 O 0.6317(9) 1.1324(7) 0.8648(6)
C28? C 0.678(3) 1.266(2) 0.9729(12)
C29? C 0.833(3) 1.2946(18) 1.1441(15)
C30? C 0.680(3) 1.1027(17) 1.0029(18)
H27? H 0.6869 1.3448 1.0051
H28? H 0.8701 1.3762 1.1647
H29? H 0.9291 1.2660 1.1512
H30? H 0.7603 1.2812 1.1885
H31? H 0.6155 1.0623 0.9313
H32? H 0.6110 1.0900 1.0490
H33? H 0.7774 1.0745 1.0086
O9? O 0.6107(18) 1.2223(12) 0.8835(9)
loop_
_geom_bond_atom_site_label_1
_geom_bond_atom_site_label_2
_geom_bond_site_symmetry_1
_geom_bond_site_symmetry_2
Tb1 O1 1_555 1_555
O1 C1 1_555 1_555
O2 C1 1_555 1_555
O3 C8 1_555 1_555
O4 C8 1_555 1_555
O5 C15 1_555 1_555
O6 C15 1_555 1_555
N1 C5 1_555 1_555
C1 C2 1_555 1_555
C2 C3 1_555 1_555
C3 H1 1_555 1_555
C4 C3 1_555 1_555
H2 C4 1_555 1_555
C5 C4 1_555 1_555
C6 C5 1_555 1_555
H3 C6 1_555 1_555
C7 C2 1_555 1_555
H4 C7 1_555 1_555
C8 C9 1_555 1_555
C9 C10 1_555 1_555
C10 H5 1_555 1_555
C11 C10 1_555 1_555
H6 C11 1_555 1_555
C12 N1 1_555 1_555
C13 C12 1_555 1_555
H7 C13 1_555 1_555
C14 C9 1_555 1_555
H8 C14 1_555 1_555
C15 C16 1_555 1_555
C16 C17 1_555 1_555
C17 H9 1_555 1_555
C18 C17 1_555 1_555
H10 C18 1_555 1_555
C19 N1 1_555 1_555
C20 C19 1_555 1_555
H11 C20 1_555 1_555
C21 C16 1_555 1_555
H12 C21 1_555 1_555
C22 H13 1_555 1_555
N2 C22 1_555 1_555
C23 N2 1_555 1_555
H14 C23 1_555 1_555
H15 C23 1_555 1_555
H16 C23 1_555 1_555
C24 N2 1_555 1_555
H17 C24 1_555 1_555
H18 C24 1_555 1_555
H19 C24 1_555 1_555
O7 Tb1 1_555 1_555
N3 C25 1_555 1_555
C25 H20 1_555 1_555
C26 N3 1_555 1_555
H21 C26 1_555 1_555
H22 C26 1_555 1_555
H23 C26 1_555 1_555
C27 N3 1_555 1_555
H24 C27 1_555 1_555
H25 C27 1_555 1_555
H26 C27 1_555 1_555
O8 C25 1_555 1_555
Tb1A O2 1_555 1_555
Tb1_2 O3 1_555 1_555
Tb1A_2 O3 1_555 1_555
Tb1_3 O5 1_555 1_555
Tb1A_3 O6 1_555 1_555
O2A Tb1 1_555 1_555
O3_2 Tb1 1_555 1_555
O3A Tb1 1_555 1_555
O4A Tb1 1_555 1_555
O5_2 Tb1 1_555 1_555
O6A Tb1 1_555 1_555
O4 Tb1A_2 1_555 1_555
C6 C7 1_555 1_555
C11 C12 1_555 1_555
C13 C14 1_555 1_555
C18 C19 1_555 1_555
C20 C21 1_555 1_555
C22 O7 1_555 1_555

#END
