
#######################################################################
#
#                 Cambridge Crystallographic Data Centre
#                                CCDC 
#
#######################################################################
#
# If this CIF has been generated from an entry in the Cambridge 
# Structural Database, then it will include bibliographic, chemical, 
# crystal, experimental, refinement or atomic coordinate data resulting 
# from the CCDC's data processing and validation procedures.
#
#######################################################################

data_EWUCOP
_symmetry_cell_setting           monoclinic
_symmetry_space_group_name_H-M   'P 21/c'
_symmetry_Int_Tables_number      14
_space_group_name_Hall           '-P 2ybc'
loop_
_symmetry_equiv_pos_site_id
_symmetry_equiv_pos_as_xyz
1 x,y,z
2 -x,1/2+y,1/2-z
3 -x,-y,-z
4 x,1/2-y,1/2+z
_cell_length_a                   10.922(2)
_cell_length_b                   11.402(2)
_cell_length_c                   14.654(3)
_cell_angle_alpha                90
_cell_angle_beta                 109.30(3)
_cell_angle_gamma                90
_cell_volume                     1722.34
loop_
_atom_site_label
_atom_site_type_symbol
_atom_site_fract_x
_atom_site_fract_y
_atom_site_fract_z
Cu1 Cu 0.59315(11) 0.58157(9) 0.02342(7)
O1 O 0.4825(7) 0.6471(7) 0.0926(5)
O2 O 0.3224(8) 0.5163(6) 0.0505(6)
O3 O 0.4839(7) 0.8475(7) 0.4024(5)
O4 O 0.3216(7) 0.9798(6) 0.3644(5)
N1 N -0.0376(8) 0.7481(6) 0.1188(6)
N2 N -0.1093(9) 0.8459(8) 0.1077(9)
N3 N -0.2297(9) 0.8124(7) 0.0762(8)
N4 N -0.2393(8) 0.6974(6) 0.0653(5)
C1 C 0.3746(11) 0.6083(8) 0.0907(7)
C2 C 0.3005(10) 0.6753(10) 0.1410(7)
C3 C 0.1678(11) 0.6756(10) 0.1091(7)
H1 H 0.1216 0.6271 0.0584
C4 C 0.1027(9) 0.7492(7) 0.1531(7)
C5 C 0.1653(11) 0.8200(10) 0.2326(7)
H2 H 0.1196 0.8660 0.2627
C6 C 0.3007(10) 0.8175(9) 0.2642(7)
C7 C 0.3683(9) 0.7465(6) 0.2191(6)
H3 H 0.4585 0.7466 0.2411
C8 C 0.3731(11) 0.8878(9) 0.3509(7)
C9 C -0.1176(9) 0.6561(8) 0.0926(6)
H4 H -0.0932 0.5779 0.0932
Cu1B Cu 0.40685(11) 0.41843(9) -0.02342(7)
Cu1_2 Cu -0.40685(11) 0.58157(9) 0.02342(7)
Cu1A Cu 0.40685(11) 0.08157(9) -0.52342(7)
Cu1A_2 Cu 0.40685(11) 1.08157(9) 0.47658(7)
Cu1B_2 Cu 1.40685(11) 0.41843(9) -0.02342(7)
Cu1C Cu 0.59315(11) -0.08157(9) -0.47658(7)
Cu1C_2 Cu 0.59315(11) 0.91843(9) 0.52342(7)
O1B O 0.5175(7) 0.3529(7) -0.0926(5)
O2B O 0.6776(8) 0.4837(6) -0.0505(6)
O3B O 0.5161(7) 0.1525(7) -0.4024(5)
O3A O 0.5161(7) 0.3475(7) 0.0976(5)
O3C O 0.4839(7) 0.6525(7) -0.0976(5)
O4B O 0.6784(7) 0.0202(6) -0.3644(5)
O4A O 0.6784(7) 0.4798(6) 0.1356(5)
O4C O 0.3216(7) 0.5202(6) -0.1356(5)
N1B N 1.0376(8) 0.2519(6) -0.1188(6)
N2B N 1.1093(9) 0.1541(8) -0.1077(9)
N3B N 1.2297(9) 0.1876(7) -0.0762(8)
N4B N 1.2393(8) 0.3026(6) -0.0653(5)
N4_2 N 0.7607(8) 0.6974(6) 0.0653(5)
N4B_2 N 0.2393(8) 0.3026(6) -0.0653(5)
C1B C 0.6254(11) 0.3917(8) -0.0907(7)
C2B C 0.6995(10) 0.3247(10) -0.1410(7)
C3B C 0.8322(11) 0.3244(10) -0.1091(7)
H1B H 0.8784 0.3729 -0.0584
C4B C 0.8973(9) 0.2508(7) -0.1531(7)
C5B C 0.8347(11) 0.1800(10) -0.2326(7)
H2B H 0.8804 0.1340 -0.2627
C6B C 0.6993(10) 0.1825(9) -0.2642(7)
C7B C 0.6317(9) 0.2535(6) -0.2191(6)
H3B H 0.5415 0.2534 -0.2411
C8B C 0.6269(11) 0.1122(9) -0.3509(7)
C9B C 1.1176(9) 0.3439(8) -0.0926(6)
H4B H 1.0932 0.4221 -0.0932
O5 O 0.0012(10) 0.4017(8) 0.1198(8)
N5 N 0.1326(13) 0.2455(10) 0.1533(9)
C10 C 0.1048(17) 0.3567(15) 0.1444(11)
H5 H 0.1754 0.4074 0.1593
C11 C 0.275(2) 0.213(2) 0.1891(14)
H6 H 0.3249 0.2758 0.1750
H7 H 0.2881 0.1429 0.1573
H8 H 0.3032 0.2002 0.2577
C12 C 0.026(2) 0.1476(17) 0.1313(11)
H9 H -0.0580 0.1828 0.1073
H10 H 0.0346 0.1050 0.1896
H11 H 0.0377 0.0948 0.0837
O6 O 0.4058(6) 0.4180(5) 0.4761(4)
loop_
_geom_bond_atom_site_label_1
_geom_bond_atom_site_label_2
_geom_bond_site_symmetry_1
_geom_bond_site_symmetry_2
Cu1 O1 1_555 1_555
O1 C1 1_555 1_555
O2 C1 1_555 1_555
O3 C8 1_555 1_555
O4 C8 1_555 1_555
N1 N2 1_555 1_555
N2 N3 1_555 1_555
N3 N4 1_555 1_555
N4 C9 1_555 1_555
C1 C2 1_555 1_555
C2 C3 1_555 1_555
C3 H1 1_555 1_555
C4 N1 1_555 1_555
C5 C4 1_555 1_555
H2 C5 1_555 1_555
C6 C5 1_555 1_555
C7 C2 1_555 1_555
H3 C7 1_555 1_555
C8 C6 1_555 1_555
C9 N1 1_555 1_555
H4 C9 1_555 1_555
O5 C10 1_555 1_555
N5 C10 1_555 1_555
C10 H5 1_555 1_555
C11 N5 1_555 1_555
H6 C11 1_555 1_555
H7 C11 1_555 1_555
H8 C11 1_555 1_555
C12 N5 1_555 1_555
H9 C12 1_555 1_555
H10 C12 1_555 1_555
H11 C12 1_555 1_555
Cu1B Cu1 1_555 1_555
Cu1_2 N4 1_555 1_555
Cu1A Cu1C 1_555 1_555
Cu1A_2 O4 1_555 1_555
Cu1B_2 N4B 1_555 1_555
Cu1C O4B 1_555 1_555
Cu1C_2 O3 1_555 1_555
O1B Cu1B 1_555 1_555
O2B Cu1 1_555 1_555
O3B Cu1A 1_555 1_555
O3A Cu1B 1_555 1_555
O3C Cu1 1_555 1_555
O4B C8B 1_555 1_555
O4A Cu1 1_555 1_555
O4C Cu1B 1_555 1_555
N1B N2B 1_555 1_555
N2B N3B 1_555 1_555
N3B N4B 1_555 1_555
N4B C9B 1_555 1_555
N4_2 Cu1 1_555 1_555
N4B_2 Cu1B 1_555 1_555
C1B O1B 1_555 1_555
C2B C1B 1_555 1_555
C3B C2B 1_555 1_555
H1B C3B 1_555 1_555
C4B N1B 1_555 1_555
C5B C4B 1_555 1_555
H2B C5B 1_555 1_555
C6B C5B 1_555 1_555
C7B C2B 1_555 1_555
H3B C7B 1_555 1_555
C8B O3B 1_555 1_555
C9B N1B 1_555 1_555
H4B C9B 1_555 1_555
O2 Cu1B 1_555 1_555
C3 C4 1_555 1_555
C6 C7 1_555 1_555
Cu1A_2 Cu1C_2 1_555 1_555
O2B C1B 1_555 1_555
C3B C4B 1_555 1_555
C6B C7B 1_555 1_555
C6B C8B 1_555 1_555

#END
