
#######################################################################
#
#                 Cambridge Crystallographic Data Centre
#                                CCDC 
#
#######################################################################
#
# If this CIF has been generated from an entry in the Cambridge 
# Structural Database, then it will include bibliographic, chemical, 
# crystal, experimental, refinement or atomic coordinate data resulting 
# from the CCDC's data processing and validation procedures.
#
#######################################################################

data_EXUMOZ
_symmetry_cell_setting           monoclinic
_symmetry_space_group_name_H-M   'C 2/c'
_symmetry_Int_Tables_number      15
_space_group_name_Hall           '-C 2yn'
loop_
_symmetry_equiv_pos_site_id
_symmetry_equiv_pos_as_xyz
1 x,y,z
2 1/2+x,1/2+y,z
3 x,-y,1/2+z
4 1/2+x,1/2-y,1/2+z
5 -x,-y,-z
6 1/2-x,1/2-y,-z
7 -x,y,1/2-z
8 1/2-x,1/2+y,1/2-z
_cell_length_a                   12.1736(10)
_cell_length_b                   14.6323(12)
_cell_length_c                   9.0078(8)
_cell_angle_alpha                90
_cell_angle_beta                 131.2100(10)
_cell_angle_gamma                90
_cell_volume                     1207.09
loop_
_atom_site_label
_atom_site_type_symbol
_atom_site_fract_x
_atom_site_fract_y
_atom_site_fract_z
Mn1 Mn 0.0000 0.03211(4) 0.2500
N1 N 0.0982(2) 0.16317(15) 0.2232(3)
C1 C 0.0606(3) 0.24413(17) 0.2495(4)
C2 C 0.1333(3) 0.32420(17) 0.2782(4)
H1 H 0.1095 0.3784 0.3051
C3 C 0.2411(3) 0.32363(18) 0.2667(4)
C4 C 0.2730(3) 0.24161(19) 0.2263(5)
H2 H 0.3409 0.2391 0.2102
C5 C 0.2024(3) 0.16342(19) 0.2103(5)
H3 H 0.2280 0.1081 0.1895
C6 C 0.3236(3) 0.41090(18) 0.3069(4)
O1 O 0.3628(2) 0.42421(14) 0.2117(3)
O2 O 0.3439(2) 0.46344(12) 0.4328(3)
C1F C -0.0606(3) 0.24413(17) 0.2505(4)
N1F N -0.0982(2) 0.16317(15) 0.2768(3)
C5F C -0.2024(3) 0.16342(19) 0.2897(5)
C4F C -0.2730(3) 0.24161(19) 0.2737(5)
C3F C -0.2411(3) 0.32363(18) 0.2333(4)
C2F C -0.1333(3) 0.32420(17) 0.2218(4)
H1F H -0.1095 0.3784 0.1949
C6F C -0.3236(3) 0.41090(18) 0.1931(4)
O1F O -0.3628(2) 0.42421(14) 0.2883(3)
O2F O -0.3439(2) 0.46344(12) 0.0672(3)
H2F H -0.3409 0.2391 0.2898
H3F H -0.2280 0.1081 0.3105
O1A O -0.1372(2) -0.07579(14) 0.2117(3)
O1G O 0.1372(2) -0.07579(14) 0.2883(3)
O2C O -0.1561(2) 0.03656(12) -0.0672(3)
O2E O 0.1561(2) 0.03656(12) 0.5672(3)
Mn1A Mn 0.5000 0.53211(4) 0.2500
Mn1C Mn 0.5000 0.46789(4) 0.7500
Mn1A_2 Mn -0.5000 0.53211(4) 0.2500
Mn1C_2 Mn -0.5000 0.46789(4) -0.2500
loop_
_geom_bond_atom_site_label_1
_geom_bond_atom_site_label_2
_geom_bond_site_symmetry_1
_geom_bond_site_symmetry_2
Mn1 N1 1_555 1_555
N1 C1 1_555 1_555
C1 C2 1_555 1_555
C2 H1 1_555 1_555
C3 C2 1_555 1_555
C4 C3 1_555 1_555
H2 C4 1_555 1_555
C5 N1 1_555 1_555
H3 C5 1_555 1_555
C6 C3 1_555 1_555
O1 C6 1_555 1_555
O2 C6 1_555 1_555
C1F C1 1_555 1_555
N1F Mn1 1_555 1_555
C5F N1F 1_555 1_555
C4F C5F 1_555 1_555
C3F C4F 1_555 1_555
C2F C1F 1_555 1_555
H1F C2F 1_555 1_555
C6F C3F 1_555 1_555
O1F C6F 1_555 1_555
O2F C6F 1_555 1_555
H2F C4F 1_555 1_555
H3F C5F 1_555 1_555
O1A Mn1 1_555 1_555
O1G Mn1 1_555 1_555
O2C Mn1 1_555 1_555
O2E Mn1 1_555 1_555
Mn1A O1 1_555 1_555
Mn1C O2 1_555 1_555
Mn1A_2 O1F 1_555 1_555
Mn1C_2 O2F 1_555 1_555
C4 C5 1_555 1_555
C1F N1F 1_555 1_555
C3F C2F 1_555 1_555

#END
