
#######################################################################
#
#                 Cambridge Crystallographic Data Centre
#                                CCDC 
#
#######################################################################
#
# If this CIF has been generated from an entry in the Cambridge 
# Structural Database, then it will include bibliographic, chemical, 
# crystal, experimental, refinement or atomic coordinate data resulting 
# from the CCDC's data processing and validation procedures.
#
#######################################################################

data_EYACOX
_symmetry_cell_setting           monoclinic
_symmetry_space_group_name_H-M   'C 2/c'
_symmetry_Int_Tables_number      15
_space_group_name_Hall           '-C 2yn'
loop_
_symmetry_equiv_pos_site_id
_symmetry_equiv_pos_as_xyz
1 x,y,z
2 -x,y,1/2-z
3 1/2+x,1/2+y,z
4 1/2-x,1/2+y,1/2-z
5 -x,-y,-z
6 x,-y,1/2+z
7 1/2-x,1/2-y,-z
8 1/2+x,1/2-y,1/2+z
_cell_length_a                   30.208(5)
_cell_length_b                   21.295(5)
_cell_length_c                   18.632(3)
_cell_angle_alpha                90
_cell_angle_beta                 94.434(5)
_cell_angle_gamma                90
_cell_volume                     11949.7
loop_
_atom_site_label
_atom_site_type_symbol
_atom_site_fract_x
_atom_site_fract_y
_atom_site_fract_z
Eu1 Eu 0.777875(14) 0.676659(19) 0.56756(3)
Eu2 Eu 0.81938(2) 0.17183(2) 0.52016(3)
C1 C 0.7940(4) 0.3312(5) 0.4955(8)
C2 C 0.8238(3) 0.3823(4) 0.5222(5)
C3 C 0.8084(3) 0.4441(4) 0.5233(5)
H1 H 0.7793 0.4528 0.5059
C4 C 0.8351(3) 0.4921(4) 0.5497(5)
C5 C 0.8177(3) 0.5575(4) 0.5510(6)
C6 C 0.8677(3) 0.3709(4) 0.5510(6)
H2 H 0.8787 0.3301 0.5505
C7 C 0.8941(3) 0.4169(4) 0.5792(6)
C8 C 0.8777(3) 0.4795(4) 0.5799(6)
H3 H 0.8953 0.5116 0.6004
C9 C 0.9373(3) 0.4016(4) 0.6099(7)
C10 C 0.9735(3) 0.3840(5) 0.6328(6)
C11 C 1.1987(3) 0.2845(4) 0.6017(6)
C12 C 1.1667(3) 0.2872(5) 0.6560(5)
C13 C 1.1746(3) 0.2580(5) 0.7246(6)
H4 H 1.2013 0.2371 0.7355
C14 C 1.1441(3) 0.2599(5) 0.7748(6)
C15 C 1.1538(4) 0.2289(6) 0.8478(6)
C16 C 1.1249(3) 0.3161(5) 0.6435(6)
H5 H 1.1182 0.3360 0.5996
C17 C 1.0935(3) 0.3161(5) 0.6932(6)
C18 C 1.1036(3) 0.2899(5) 0.7604(6)
H6 H 1.0835 0.2923 0.7956
C19 C 1.0509(3) 0.3424(5) 0.6757(6)
C20 C 1.0138(3) 0.3626(5) 0.6558(6)
C21 C 0.8169(3) 0.8128(4) 0.5586(6)
C22 C 0.8425(3) 0.8703(4) 0.5818(6)
C23 C 0.8278(3) 0.9303(4) 0.5600(6)
H7 H 0.8011 0.9351 0.5322
C24 C 0.8534(3) 0.9821(4) 0.5804(6)
C25 C 0.8395(5) 1.0462(5) 0.5574(8)
C26 C 0.8807(3) 0.8632(4) 0.6246(6)
H8 H 0.8901 0.8234 0.6395
C27 C 0.9059(3) 0.9165(5) 0.6464(7)
C28 C 0.8914(3) 0.9754(5) 0.6272(6)
H9 H 0.9068 1.0106 0.6452
C29 C 0.9472(4) 0.9092(5) 0.6938(7)
C30 C 0.9810(4) 0.9079(5) 0.7273(8)
C31 C 0.6993(5) 0.5620(6) 0.6493(9)
H10 H 0.6877 0.5432 0.6049
H11 H 0.6753 0.5770 0.6754
H12 H 0.7160 0.5312 0.6777
C32 C 0.8008(5) 0.7084(7) 0.7561(6)
H13 H 0.8183 0.7459 0.7539
H14 H 0.8107 0.6848 0.7982
H15 H 0.7702 0.7196 0.7586
O1 O 0.8114(3) 0.2768(3) 0.4915(5)
O2 O 0.7556(3) 0.3436(3) 0.4743(5)
O3 O 0.7791(2) 0.5674(3) 0.5230(4)
O4 O 0.8414(2) 0.6006(3) 0.5780(4)
O5 O 1.1900(2) 0.3124(3) 0.5454(4)
O6 O 1.2338(2) 0.2524(3) 0.6182(4)
O7 O 1.1258(2) 0.2241(3) 0.8890(4)
O8 O 1.1933(2) 0.2093(5) 0.8623(5)
O9 O 0.8288(2) 0.7620(3) 0.5862(4)
O10 O 0.7851(2) 0.8184(3) 0.5121(4)
O11 O 0.8122(3) 1.0562(3) 0.5085(5)
O12 O 0.8539(3) 1.0911(3) 0.5934(5)
O13 O 0.7277(3) 0.6132(4) 0.6341(6)
H16 H 0.7073 0.6404 0.6369
O14 O 0.8055(3) 0.6712(4) 0.6931(4)
H17 H 0.8335 0.6690 0.6910
O15 O 0.7967(4) 0.1651(5) 0.3966(5)
H18 H 0.8163 0.1786 0.3701
H19 H 0.7714 0.1810 0.3845
O16 O 0.9000(4) 0.1691(5) 0.4653(7)
H20 H 0.9192 0.1920 0.4885
H21 H 0.8987 0.1780 0.4207
Eu1D Eu 1.222125(14) 0.323341(19) 0.43244(3)
Eu1B Eu 1.277875(14) 0.176659(19) 0.56756(3)
Eu1F Eu 0.722125(14) 0.823341(19) 0.43244(3)
Eu1G Eu 1.277875(14) 0.823341(19) 1.06756(3)
Eu1A Eu 1.222125(14) 0.676659(19) 0.93244(3)
Eu2D Eu 1.18062(2) 0.82817(2) 0.47984(3)
Eu2F Eu 0.68062(2) 0.32817(2) 0.47984(3)
Eu2A Eu 1.18062(2) 0.17183(2) 0.97984(3)
Eu2_2 Eu 0.81938(2) 1.17183(2) 0.52016(3)
Eu2A_2 Eu 1.18062(2) 1.17183(2) 0.97984(3)
Eu2B Eu 1.31938(2) 0.67183(2) 0.52016(3)
Eu2E Eu 0.81938(2) 0.82817(2) 0.02016(3)
C1D C 1.2060(4) 0.6688(5) 0.5045(8)
C2D C 1.1762(3) 0.6177(4) 0.4778(5)
C3D C 1.1916(3) 0.5559(4) 0.4767(5)
H1D H 1.2207 0.5472 0.4941
C4D C 1.1649(3) 0.5079(4) 0.4503(5)
C5D C 1.1823(3) 0.4425(4) 0.4490(6)
C6D C 1.1323(3) 0.6291(4) 0.4490(6)
H2D H 1.1213 0.6699 0.4495
C7D C 1.1059(3) 0.5831(4) 0.4208(6)
C8D C 1.1223(3) 0.5205(4) 0.4201(6)
H3D H 1.1047 0.4884 0.3996
C9D C 1.0627(3) 0.5984(4) 0.3901(7)
C10D C 1.0265(3) 0.6160(5) 0.3672(6)
C11D C 0.8013(3) 0.7155(4) 0.3983(6)
C12D C 0.8333(3) 0.7128(5) 0.3440(5)
C13D C 0.8254(3) 0.7420(5) 0.2754(6)
H4D H 0.7987 0.7629 0.2645
C14D C 0.8559(3) 0.7401(5) 0.2252(6)
C15D C 0.8462(4) 0.7711(6) 0.1522(6)
C16D C 0.8751(3) 0.6839(5) 0.3565(6)
H5D H 0.8818 0.6640 0.4004
C17D C 0.9065(3) 0.6839(5) 0.3068(6)
C18D C 0.8964(3) 0.7101(5) 0.2396(6)
H6D H 0.9165 0.7077 0.2044
C19D C 0.9491(3) 0.6576(5) 0.3243(6)
C20D C 0.9862(3) 0.6374(5) 0.3442(6)
C21A C 1.1831(3) 0.8128(4) 0.9414(6)
C22A C 1.1575(3) 0.8703(4) 0.9182(6)
C23A C 1.1722(3) 0.9303(4) 0.9400(6)
H7A H 1.1989 0.9351 0.9678
C24A C 1.1466(3) 0.9821(4) 0.9196(6)
C25A C 1.1605(5) 1.0462(5) 0.9426(8)
C26A C 1.1193(3) 0.8632(4) 0.8754(6)
H8A H 1.1099 0.8234 0.8605
C27A C 1.0941(3) 0.9165(5) 0.8536(7)
C28A C 1.1086(3) 0.9754(5) 0.8728(6)
H9A H 1.0932 1.0106 0.8548
C29A C 1.0528(4) 0.9092(5) 0.8062(7)
C30A C 1.0190(4) 0.9079(5) 0.7727(8)
C31D C 1.3007(5) 0.4380(6) 0.3507(9)
H10D H 1.3123 0.4568 0.3951
H11D H 1.3247 0.4230 0.3246
H12D H 1.2840 0.4688 0.3223
C32D C 1.1992(5) 0.2916(7) 0.2439(6)
H13D H 1.1817 0.2541 0.2461
H14D H 1.1893 0.3152 0.2018
H15D H 1.2298 0.2804 0.2414
O1D O 1.1886(3) 0.7232(3) 0.5085(5)
O2D O 1.2444(3) 0.6564(3) 0.5257(5)
O2F O 0.7444(3) 0.1564(3) 0.5257(5)
O2B O 1.2556(3) 0.8436(3) 0.4743(5)
O3D O 1.2209(2) 0.4326(3) 0.4770(4)
O4D O 1.1586(2) 0.3994(3) 0.4220(4)
O5D O 0.8100(2) 0.6876(3) 0.4546(4)
O6D O 0.7662(2) 0.7476(3) 0.3818(4)
O6B O 0.7338(2) 0.7524(3) 0.6182(4)
O6F O 1.2662(2) 0.2476(3) 0.3818(4)
O7D O 0.8742(2) 0.7759(3) 0.1110(4)
O7A O 0.8742(2) 0.2241(3) 0.6110(4)
O7E O 1.1258(2) 0.7759(3) 0.3890(4)
O8D O 0.8067(2) 0.7907(5) 0.1377(5)
O8A O 0.8067(2) 0.2093(5) 0.6377(5)
O8E O 1.1933(2) 0.7907(5) 0.3623(5)
O9A O 1.1712(2) 0.7620(3) 0.9138(4)
O9D O 1.1712(2) 0.2380(3) 0.4138(4)
O10A O 1.2149(2) 0.8184(3) 0.9879(4)
O10F O 0.7149(2) 0.6816(3) 0.4879(4)
O10B O 1.2851(2) 0.3184(3) 0.5121(4)
O11A O 1.1878(3) 1.0562(3) 0.9915(5)
O11_2 O 0.8122(3) 0.0562(3) 0.5085(5)
O11D O 1.1878(3) 0.9438(3) 0.4915(5)
O12A O 1.1461(3) 1.0911(3) 0.9066(5)
O12_2 O 0.8539(3) 0.0911(3) 0.5934(5)
O12D O 1.1461(3) 0.9089(3) 0.4066(5)
O13D O 1.2723(3) 0.3868(4) 0.3659(6)
H16D H 1.2927 0.3596 0.3631
O14D O 1.1945(3) 0.3288(4) 0.3069(4)
H17D H 1.1665 0.3310 0.3090
O15D O 1.2033(4) 0.8349(5) 0.6034(5)
H18D H 1.1837 0.8214 0.6299
H19D H 1.2286 0.8190 0.6155
O16D O 1.1000(4) 0.8309(5) 0.5347(7)
H20D H 1.0808 0.8080 0.5115
H21D H 1.1013 0.8220 0.5793
loop_
_geom_bond_atom_site_label_1
_geom_bond_atom_site_label_2
_geom_bond_site_symmetry_1
_geom_bond_site_symmetry_2
Eu1 O3 1_555 1_555
Eu2 O1 1_555 1_555
C1 C2 1_555 1_555
C2 C3 1_555 1_555
C3 H1 1_555 1_555
C4 C3 1_555 1_555
C5 C4 1_555 1_555
C6 C2 1_555 1_555
H2 C6 1_555 1_555
C7 C6 1_555 1_555
C8 C4 1_555 1_555
H3 C8 1_555 1_555
C9 C7 1_555 1_555
C10 C9 1_555 1_555
C11 C12 1_555 1_555
C12 C13 1_555 1_555
C13 H4 1_555 1_555
C14 C13 1_555 1_555
C15 C14 1_555 1_555
C16 C12 1_555 1_555
H5 C16 1_555 1_555
C17 C16 1_555 1_555
C18 C14 1_555 1_555
H6 C18 1_555 1_555
C19 C17 1_555 1_555
C20 C10 1_555 1_555
C21 C22 1_555 1_555
C22 C23 1_555 1_555
C23 H7 1_555 1_555
C24 C23 1_555 1_555
C25 C24 1_555 1_555
C26 C22 1_555 1_555
H8 C26 1_555 1_555
C27 C26 1_555 1_555
C28 C24 1_555 1_555
H9 C28 1_555 1_555
C29 C27 1_555 1_555
C30 C29 1_555 1_555
C31 H10 1_555 1_555
H11 C31 1_555 1_555
H12 C31 1_555 1_555
C32 H13 1_555 1_555
H14 C32 1_555 1_555
H15 C32 1_555 1_555
O1 C1 1_555 1_555
O2 C1 1_555 1_555
O3 C5 1_555 1_555
O4 Eu1 1_555 1_555
O5 C11 1_555 1_555
O6 C11 1_555 1_555
O7 C15 1_555 1_555
O8 C15 1_555 1_555
O9 Eu1 1_555 1_555
O10 C21 1_555 1_555
O11 C25 1_555 1_555
O12 C25 1_555 1_555
O13 Eu1 1_555 1_555
H16 O13 1_555 1_555
O14 Eu1 1_555 1_555
H17 O14 1_555 1_555
O15 Eu2 1_555 1_555
H18 O15 1_555 1_555
H19 O15 1_555 1_555
O16 Eu2 1_555 1_555
H20 O16 1_555 1_555
H21 O16 1_555 1_555
Eu1D O5 1_555 1_555
Eu1B O6 1_555 1_555
Eu1F O10 1_555 1_555
Eu1G O10A 1_555 1_555
Eu1A O9A 1_555 1_555
Eu2D O1D 1_555 1_555
Eu2F O2 1_555 1_555
Eu2A O7 1_555 1_555
Eu2_2 O11 1_555 1_555
Eu2A_2 O11A 1_555 1_555
Eu2B O2D 1_555 1_555
Eu2E O7D 1_555 1_555
C1D C2D 1_555 1_555
C2D C3D 1_555 1_555
C3D H1D 1_555 1_555
C4D C3D 1_555 1_555
C5D C4D 1_555 1_555
C6D C2D 1_555 1_555
H2D C6D 1_555 1_555
C7D C6D 1_555 1_555
C8D C4D 1_555 1_555
H3D C8D 1_555 1_555
C9D C7D 1_555 1_555
C10D C9D 1_555 1_555
C11D C12D 1_555 1_555
C12D C13D 1_555 1_555
C13D H4D 1_555 1_555
C14D C13D 1_555 1_555
C15D C14D 1_555 1_555
C16D C12D 1_555 1_555
H5D C16D 1_555 1_555
C17D C16D 1_555 1_555
C18D C14D 1_555 1_555
H6D C18D 1_555 1_555
C19D C17D 1_555 1_555
C20D C10D 1_555 1_555
C21A C22A 1_555 1_555
C22A C23A 1_555 1_555
C23A H7A 1_555 1_555
C24A C23A 1_555 1_555
C25A C24A 1_555 1_555
C26A C22A 1_555 1_555
H8A C26A 1_555 1_555
C27A C26A 1_555 1_555
C28A C24A 1_555 1_555
H9A C28A 1_555 1_555
C29A C27A 1_555 1_555
C30A C30 1_555 1_555
C31D H10D 1_555 1_555
H11D C31D 1_555 1_555
H12D C31D 1_555 1_555
C32D H13D 1_555 1_555
H14D C32D 1_555 1_555
H15D C32D 1_555 1_555
O1D C1D 1_555 1_555
O2D C1D 1_555 1_555
O2F Eu2 1_555 1_555
O2B Eu2D 1_555 1_555
O3D Eu1D 1_555 1_555
O4D Eu1D 1_555 1_555
O5D Eu1 1_555 1_555
O6D Eu1F 1_555 1_555
O6B Eu1 1_555 1_555
O6F Eu1D 1_555 1_555
O7D C15D 1_555 1_555
O7A Eu2 1_555 1_555
O7E Eu2D 1_555 1_555
O8D Eu2E 1_555 1_555
O8A Eu2 1_555 1_555
O8E Eu2D 1_555 1_555
O9A C21A 1_555 1_555
O9D Eu1D 1_555 1_555
O10A C21A 1_555 1_555
O10F Eu1 1_555 1_555
O10B Eu1D 1_555 1_555
O11A C25A 1_555 1_555
O11_2 Eu2 1_555 1_555
O11D Eu2D 1_555 1_555
O12A Eu2A_2 1_555 1_555
O12_2 Eu2 1_555 1_555
O12D Eu2D 1_555 1_555
O13D Eu1D 1_555 1_555
H16D O13D 1_555 1_555
O14D Eu1D 1_555 1_555
H17D O14D 1_555 1_555
O15D Eu2D 1_555 1_555
H18D O15D 1_555 1_555
H19D O15D 1_555 1_555
O16D Eu2D 1_555 1_555
H20D O16D 1_555 1_555
H21D O16D 1_555 1_555
C5 O4 1_555 1_555
C7 C8 1_555 1_555
C17 C18 1_555 1_555
C19 C20 1_555 1_555
C21 O9 1_555 1_555
C27 C28 1_555 1_555
C31 O13 1_555 1_555
C32 O14 1_555 1_555
O8 Eu2A 1_555 1_555
O12 Eu2_2 1_555 1_555
C5D O3D 1_555 1_555
C5D O4D 1_555 1_555
C7D C8D 1_555 1_555
C11D O5D 1_555 1_555
C11D O6D 1_555 1_555
C15D O8D 1_555 1_555
C17D C18D 1_555 1_555
C19D C20D 1_555 1_555
C25A O12A 1_555 1_555
C27A C28A 1_555 1_555
C29A C30A 1_555 1_555
C31D O13D 1_555 1_555
C32D O14D 1_555 1_555

#END
