
#######################################################################
#
#                 Cambridge Crystallographic Data Centre
#                                CCDC 
#
#######################################################################
#
# If this CIF has been generated from an entry in the Cambridge 
# Structural Database, then it will include bibliographic, chemical, 
# crystal, experimental, refinement or atomic coordinate data resulting 
# from the CCDC's data processing and validation procedures.
#
#######################################################################

data_EYOPUE
_symmetry_cell_setting           tetragonal
_symmetry_space_group_name_H-M   'P 4 21 2'
_symmetry_Int_Tables_number      90
_space_group_name_Hall           'P 4ab 2ab'
loop_
_symmetry_equiv_pos_site_id
_symmetry_equiv_pos_as_xyz
1 x,y,z
2 -x,-y,z
3 1/2-y,1/2+x,z
4 1/2+y,1/2-x,z
5 1/2-x,1/2+y,-z
6 1/2+x,1/2-y,-z
7 y,x,-z
8 -y,-x,-z
_cell_length_a                   18.8725(15)
_cell_length_b                   18.8725(15)
_cell_length_c                   8.0221(13)
_cell_angle_alpha                90
_cell_angle_beta                 90
_cell_angle_gamma                90
_cell_volume                     2857.24
loop_
_atom_site_label
_atom_site_type_symbol
_atom_site_fract_x
_atom_site_fract_y
_atom_site_fract_z
Cd1 Cd 0.215600(18) -0.215600(18) -0.5000
C1 C -0.1648(3) -0.1988(3) 0.2251(8)
H1 H -0.2096 -0.1863 0.2739
H2 H -0.1709 -0.2068 0.1078
H3 H -0.1317 -0.1609 0.2419
C2 C -0.1378(3) -0.2636(3) 0.3042(7)
C3 C -0.1242(3) -0.3524(3) 0.4730(9)
H4 H -0.1328 -0.3851 0.5573
C4 C -0.0653(3) -0.3501(4) 0.3769(8)
H5 H -0.0259 -0.3795 0.3839
C5 C -0.0285(4) -0.2767(5) 0.1311(10)
C6 C 0.0419(4) -0.2635(4) 0.1642(9)
H6 H 0.0580 -0.2645 0.2737
C7 C -0.0523(3) -0.2768(4) -0.0303(8)
H7 H -0.0992 -0.2882 -0.0536
C8 C 0.0878(3) -0.2490(3) 0.0395(7)
H8 H 0.1351 -0.2404 0.0643
C9 C -0.0067(4) -0.2599(4) -0.1574(8)
H9 H -0.0238 -0.2573 -0.2659
C10 C 0.0649(4) -0.2467(4) -0.1271(9)
C11 C 0.1151(4) -0.2301(4) -0.2663(8)
N1 N -0.1701(2) -0.2978(3) 0.4255(5)
N2 N -0.0757(3) -0.2948(3) 0.2660(6)
O1 O 0.1796(2) -0.2285(3) -0.2295(5)
O2 O 0.0928(2) -0.2205(3) -0.4095(5)
Cd1B Cd -0.284400(18) -0.284400(18) 0.5000
Cd1C Cd 0.284400(18) 0.284400(18) -1.5000
C1G C 0.1988(3) 0.1648(3) -1.2251(8)
H1G H 0.1863 0.2096 -1.2739
H2G H 0.2068 0.1709 -1.1078
H3G H 0.1609 0.1317 -1.2419
C2G C 0.2636(3) 0.1378(3) -1.3042(7)
C3G C 0.3524(3) 0.1242(3) -1.4730(9)
H4G H 0.3851 0.1328 -1.5573
C4G C 0.3501(4) 0.0653(3) -1.3769(8)
H5G H 0.3795 0.0259 -1.3839
C5G C 0.2767(5) 0.0285(4) -1.1311(10)
C6G C 0.2635(4) -0.0419(4) -1.1642(9)
H6G H 0.2645 -0.0580 -1.2737
C7G C 0.2768(4) 0.0523(3) -0.9697(8)
H7G H 0.2882 0.0992 -0.9464
C8G C 0.2490(3) -0.0878(3) -1.0395(7)
H8G H 0.2404 -0.1351 -1.0643
C9G C 0.2599(4) 0.0067(4) -0.8426(8)
H9G H 0.2573 0.0238 -0.7341
C10G C 0.2467(4) -0.0649(4) -0.8729(9)
C11G C 0.2301(4) -0.1151(4) -0.7337(8)
N1C N 0.2022(3) -0.3299(2) -0.5745(5)
N1E N 0.3299(2) -0.2022(3) -0.4255(5)
N1G N 0.2978(3) 0.1701(2) -1.4255(5)
N2G N 0.2948(3) 0.0757(3) -1.2660(6)
O1G O 0.2285(3) -0.1796(2) -0.7705(5)
O2G O 0.2205(3) -0.0928(2) -0.5905(5)
loop_
_geom_bond_atom_site_label_1
_geom_bond_atom_site_label_2
_geom_bond_site_symmetry_1
_geom_bond_site_symmetry_2
Cd1 O1 1_555 1_555
C1 H1 1_555 1_555
H2 C1 1_555 1_555
H3 C1 1_555 1_555
C2 C1 1_555 1_555
C3 H4 1_555 1_555
C4 C3 1_555 1_555
H5 C4 1_555 1_555
C5 C6 1_555 1_555
C6 H6 1_555 1_555
C7 C5 1_555 1_555
H7 C7 1_555 1_555
C8 C6 1_555 1_555
H8 C8 1_555 1_555
C9 C7 1_555 1_555
H9 C9 1_555 1_555
C10 C8 1_555 1_555
C11 C10 1_555 1_555
N1 C2 1_555 1_555
N2 C2 1_555 1_555
O1 C11 1_555 1_555
O2 Cd1 1_555 1_555
Cd1B N1 1_555 1_555
Cd1C N1G 1_555 1_555
C1G H1G 1_555 1_555
H2G C1G 1_555 1_555
H3G C1G 1_555 1_555
C2G C1G 1_555 1_555
C3G H4G 1_555 1_555
C4G C3G 1_555 1_555
H5G C4G 1_555 1_555
C5G C6G 1_555 1_555
C6G H6G 1_555 1_555
C7G C5G 1_555 1_555
H7G C7G 1_555 1_555
C8G C6G 1_555 1_555
H8G C8G 1_555 1_555
C9G C7G 1_555 1_555
H9G C9G 1_555 1_555
C10G C8G 1_555 1_555
C11G C10G 1_555 1_555
N1C Cd1 1_555 1_555
N1E Cd1 1_555 1_555
N1G C2G 1_555 1_555
N2G C2G 1_555 1_555
O1G Cd1 1_555 1_555
O2G Cd1 1_555 1_555
C3 N1 1_555 1_555
C4 N2 1_555 1_555
C5 N2 1_555 1_555
C9 C10 1_555 1_555
C11 O2 1_555 1_555
C3G N1G 1_555 1_555
C4G N2G 1_555 1_555
C5G N2G 1_555 1_555
C9G C10G 1_555 1_555
C11G O1G 1_555 1_555
C11G O2G 1_555 1_555

#END
