
#######################################################################
#
#                 Cambridge Crystallographic Data Centre
#                                CCDC 
#
#######################################################################
#
# If this CIF has been generated from an entry in the Cambridge 
# Structural Database, then it will include bibliographic, chemical, 
# crystal, experimental, refinement or atomic coordinate data resulting 
# from the CCDC's data processing and validation procedures.
#
#######################################################################

data_EYULOA
_symmetry_cell_setting           orthorhombic
_symmetry_space_group_name_H-M   'P c c a'
_symmetry_Int_Tables_number      54
_space_group_name_Hall           '-P 2a 2ac'
loop_
_symmetry_equiv_pos_site_id
_symmetry_equiv_pos_as_xyz
1 x,y,z
2 1/2-x,-y,z
3 -x,y,1/2-z
4 1/2+x,-y,1/2-z
5 -x,-y,-z
6 1/2+x,y,-z
7 x,-y,1/2+z
8 1/2-x,y,1/2+z
_cell_length_a                   16.744(6)
_cell_length_b                   15.092(6)
_cell_length_c                   22.518(8)
_cell_angle_alpha                90
_cell_angle_beta                 90
_cell_angle_gamma                90
_cell_volume                     5690.31
loop_
_atom_site_label
_atom_site_type_symbol
_atom_site_fract_x
_atom_site_fract_y
_atom_site_fract_z
Co1 Co 0.7500 0.5000 0.59732(5)
Co2 Co 0.72604(5) 0.73388(6) 0.61805(4)
N1 N 0.6624(4) 0.8544(4) 0.6120(3)
N2 N 0.2955(4) 1.2283(4) 0.8050(3)
O1 O 0.6715(3) 0.5377(3) 0.6636(2)
O2 O 0.6458(3) 0.6814(3) 0.6769(3)
O3 O 0.6774(3) 0.5492(3) 0.5316(2)
O4 O 0.6560(3) 0.6948(3) 0.5478(3)
O5 O 0.3094(2) 0.6267(3) 0.3960(2)
O6 O 0.3357(3) 0.7568(3) 0.4364(2)
S1 S 0.5000 0.65537(16) 0.7500
S2 S 0.49601(9) 0.69852(11) 0.49221(8)
C1 C 0.6322(4) 0.6000(4) 0.6842(3)
C2 C 0.5611(4) 0.5758(4) 0.7189(3)
C3 C 0.5359(4) 0.4931(4) 0.7329(3)
H1 H 0.5626 0.4418 0.7214
C4 C 0.6402(4) 0.6212(4) 0.5254(3)
C5 C 0.5687(4) 0.6180(4) 0.4862(3)
C6 C 0.5467(4) 0.5540(5) 0.4475(3)
H2 H 0.5786 0.5053 0.4386
C7 C 0.4705(4) 0.5681(5) 0.4219(3)
H3 H 0.4470 0.5300 0.3945
C8 C 0.4353(3) 0.6442(4) 0.4420(3)
C9 C 0.3558(3) 0.6783(4) 0.4251(3)
C10 C 0.6730(7) 0.9149(7) 0.5733(5)
H4 H 0.7161 0.9077 0.5477
C11 C 0.6279(7) 0.9886(7) 0.5655(6)
H5 H 0.6442 1.0309 0.5380
C12 C 0.5649(6) 1.0015(6) 0.5942(5)
C13 C 0.5588(8) 0.9464(8) 0.6433(7)
H6 H 0.5214 0.9590 0.6726
C14 C 0.6076(7) 0.8730(7) 0.6491(6)
H7 H 0.6000 0.8356 0.6815
C15 C 0.5106(8) 1.0793(7) 0.5844(6)
H8 H 0.5432 1.1299 0.5737
H9 H 0.4765 1.0662 0.5507
C16 C 0.4594(8) 1.1050(7) 0.6345(6)
H10 H 0.4278 1.0528 0.6433
H11 H 0.4955 1.1124 0.6678
C17 C 0.4061(8) 1.1761(8) 0.6382(6)
H12 H 0.3630 1.1655 0.6103
H13 H 0.4338 1.2291 0.6253
C18 C 0.3705(7) 1.1942(7) 0.6967(5)
C19 C 0.3650(7) 1.2768(7) 0.7182(5)
H14 H 0.3872 1.3241 0.6976
C20 C 0.3264(7) 1.2905(6) 0.7707(4)
H15 H 0.3214 1.3488 0.7835
C21 C 0.3070(7) 1.1463(7) 0.7856(4)
H16 H 0.2888 1.0998 0.8091
C22 C 0.3437(8) 1.1262(7) 0.7334(5)
H17 H 0.3508 1.0674 0.7222
Co1D Co 0.2500 0.5000 0.40268(5)
Co1B Co 0.2500 0.5000 0.90268(5)
Co2B Co 0.27396(5) 0.73388(6) 0.88195(4)
Co2C Co 0.22604(5) 1.26612(6) 0.88195(4)
Co2E Co 0.22604(5) 0.73388(6) 0.38195(4)
Co2D Co 0.27396(5) 0.26612(6) 0.38195(4)
Co2A Co 0.77396(5) 0.26612(6) 0.61805(4)
Co2C_2 Co 1.22604(5) 1.26612(6) 0.88195(4)
N1C N 1.1624(4) 1.1456(4) 0.8880(3)
N1B N 0.3376(4) 0.8544(4) 0.8880(3)
N2C N 0.7955(4) 0.7717(4) 0.6950(3)
N2A N 0.2045(4) 0.7717(4) 0.8050(3)
O1B O 0.3285(3) 0.5377(3) 0.8364(2)
O1A O 0.8285(3) 0.4623(3) 0.6636(2)
O2B O 0.3542(3) 0.6814(3) 0.8231(3)
O3D O 0.3226(3) 0.4508(3) 0.4684(2)
O3A O 0.8226(3) 0.4508(3) 0.5316(2)
O4D O 0.3440(3) 0.3052(3) 0.4522(3)
O4B O 0.3440(3) 0.6948(3) 0.9522(3)
O5D O 0.6906(2) 0.3733(3) 0.6040(2)
O5E O 0.8094(2) 0.6267(3) 0.6040(2)
O5G O 0.1906(2) 0.6267(3) 0.8960(2)
O6D O 0.6643(3) 0.2432(3) 0.5636(2)
O6E O 0.8357(3) 0.7568(3) 0.5636(2)
O6G O 0.1643(3) 0.7568(3) 0.9364(2)
S2D S 0.50399(9) 0.30148(11) 0.50779(8)
C1B C 0.3678(4) 0.6000(4) 0.8158(3)
C2B C 0.4389(4) 0.5758(4) 0.7811(3)
C3B C 0.4641(4) 0.4931(4) 0.7671(3)
H1B H 0.4374 0.4418 0.7786
C4D C 0.3598(4) 0.3788(4) 0.4746(3)
C5D C 0.4313(4) 0.3820(4) 0.5138(3)
C6D C 0.4533(4) 0.4460(5) 0.5525(3)
H2D H 0.4214 0.4947 0.5614
C7D C 0.5295(4) 0.4319(5) 0.5781(3)
H3D H 0.5530 0.4700 0.6055
C8D C 0.5647(3) 0.3558(4) 0.5580(3)
C9D C 0.6442(3) 0.3217(4) 0.5749(3)
C10C C 1.1730(7) 1.0851(7) 0.9267(5)
H4C H 1.2161 1.0923 0.9523
C11C C 1.1279(7) 1.0114(7) 0.9345(6)
H5C H 1.1442 0.9691 0.9620
C12C C 1.0649(6) 0.9985(6) 0.9058(5)
C13C C 1.0588(8) 1.0536(8) 0.8567(7)
H6C H 1.0214 1.0410 0.8274
C14C C 1.1076(7) 1.1270(7) 0.8509(6)
H7C H 1.1000 1.1644 0.8185
C15C C 1.0106(8) 0.9207(7) 0.9156(6)
H8C H 1.0432 0.8701 0.9263
H9C H 0.9765 0.9338 0.9493
C16C C 0.9594(8) 0.8950(7) 0.8655(6)
H10C H 0.9278 0.9472 0.8567
H11C H 0.9955 0.8876 0.8322
C17C C 0.9061(8) 0.8239(8) 0.8618(6)
H12C H 0.8630 0.8345 0.8897
H13C H 0.9338 0.7709 0.8747
C18C C 0.8705(7) 0.8058(7) 0.8033(5)
C19C C 0.8650(7) 0.7232(7) 0.7818(5)
H14C H 0.8872 0.6759 0.8024
C20C C 0.8264(7) 0.7095(6) 0.7293(4)
H15C H 0.8214 0.6512 0.7165
C21C C 0.8070(7) 0.8537(7) 0.7144(4)
H16C H 0.7888 0.9002 0.6909
C22C C 0.8437(8) 0.8738(7) 0.7666(5)
H17C H 0.8508 0.9326 0.7778
N3 N 0.1747(8) 0.2173(17) 0.6127(11)
C23 C 0.1504(9) 0.1825(18) 0.6713(13)
H18 H 0.1464 0.2281 0.6990
C24 C 0.1885(15) 0.3130(18) 0.6061(12)
H19 H 0.1457 0.3387 0.5836
H20 H 0.2381 0.3226 0.5857
H21 H 0.1908 0.3401 0.6446
C25 C 0.1796(16) 0.1405(17) 0.5718(12)
H22 H 0.1393 0.0979 0.5821
H23 H 0.2313 0.1136 0.5750
H24 H 0.1712 0.1602 0.5317
O7 O 0.1337(11) 0.1091(15) 0.6945(11)
loop_
_geom_bond_atom_site_label_1
_geom_bond_atom_site_label_2
_geom_bond_site_symmetry_1
_geom_bond_site_symmetry_2
Co1 O1 1_555 1_555
Co2 N1 1_555 1_555
N1 C10 1_555 1_555
N2 C20 1_555 1_555
O1 C1 1_555 1_555
O2 Co2 1_555 1_555
O3 Co1 1_555 1_555
O4 Co2 1_555 1_555
O5 C9 1_555 1_555
O6 C9 1_555 1_555
S1 C2 1_555 1_555
S2 C5 1_555 1_555
C1 O2 1_555 1_555
C2 C1 1_555 1_555
C3 C2 1_555 1_555
H1 C3 1_555 1_555
C4 O3 1_555 1_555
C5 C4 1_555 1_555
C6 C5 1_555 1_555
H2 C6 1_555 1_555
C7 C6 1_555 1_555
H3 C7 1_555 1_555
C8 S2 1_555 1_555
C9 C8 1_555 1_555
C10 H4 1_555 1_555
C11 C10 1_555 1_555
H5 C11 1_555 1_555
C12 C11 1_555 1_555
C13 C12 1_555 1_555
H6 C13 1_555 1_555
C14 N1 1_555 1_555
H7 C14 1_555 1_555
C15 C12 1_555 1_555
H8 C15 1_555 1_555
H9 C15 1_555 1_555
C16 C15 1_555 1_555
H10 C16 1_555 1_555
H11 C16 1_555 1_555
C17 C16 1_555 1_555
H12 C17 1_555 1_555
H13 C17 1_555 1_555
C18 C17 1_555 1_555
C19 C18 1_555 1_555
H14 C19 1_555 1_555
C20 C19 1_555 1_555
H15 C20 1_555 1_555
C21 N2 1_555 1_555
H16 C21 1_555 1_555
C22 C18 1_555 1_555
H17 C22 1_555 1_555
N3 C23 1_555 1_555
C23 H18 1_555 1_555
C24 N3 1_555 1_555
H19 C24 1_555 1_555
H20 C24 1_555 1_555
H21 C24 1_555 1_555
C25 N3 1_555 1_555
H22 C25 1_555 1_555
H23 C25 1_555 1_555
H24 C25 1_555 1_555
O7 C23 1_555 1_555
Co1D O5 1_555 1_555
Co1B O1B 1_555 1_555
Co2B N1B 1_555 1_555
Co2C N2 1_555 1_555
Co2E O5 1_555 1_555
Co2D O4D 1_555 1_555
Co2A O5D 1_555 1_555
Co2C_2 N1C 1_555 1_555
N1C C10C 1_555 1_555
N2C Co2 1_555 1_555
N2A Co2B 1_555 1_555
O1B C1B 1_555 1_555
O1A Co1 1_555 1_555
O2B Co2B 1_555 1_555
O3D Co1D 1_555 1_555
O3A Co1 1_555 1_555
O4D C4D 1_555 1_555
O4B Co2B 1_555 1_555
O5D Co1 1_555 1_555
O5E Co1 1_555 1_555
O5G Co1B 1_555 1_555
O6D Co2A 1_555 1_555
O6E Co2 1_555 1_555
O6G Co2B 1_555 1_555
S2D C5D 1_555 1_555
C1B O2B 1_555 1_555
C2B S1 1_555 1_555
C3B C3 1_555 1_555
H1B C3B 1_555 1_555
C4D O3D 1_555 1_555
C5D C4D 1_555 1_555
C6D C5D 1_555 1_555
H2D C6D 1_555 1_555
C7D C6D 1_555 1_555
H3D C7D 1_555 1_555
C8D S2D 1_555 1_555
C9D O5D 1_555 1_555
C10C H4C 1_555 1_555
C11C C10C 1_555 1_555
H5C C11C 1_555 1_555
C12C C11C 1_555 1_555
C13C C12C 1_555 1_555
H6C C13C 1_555 1_555
C14C N1C 1_555 1_555
H7C C14C 1_555 1_555
C15C C12C 1_555 1_555
H8C C15C 1_555 1_555
H9C C15C 1_555 1_555
C16C C15C 1_555 1_555
H10C C16C 1_555 1_555
H11C C16C 1_555 1_555
C17C C16C 1_555 1_555
H12C C17C 1_555 1_555
H13C C17C 1_555 1_555
C18C C17C 1_555 1_555
C19C C18C 1_555 1_555
H14C C19C 1_555 1_555
C20C N2C 1_555 1_555
H15C C20C 1_555 1_555
C21C N2C 1_555 1_555
H16C C21C 1_555 1_555
C22C C18C 1_555 1_555
H17C C22C 1_555 1_555
Co2 O5E 1_555 1_555
O4 C4 1_555 1_555
O6 Co2E 1_555 1_555
C7 C8 1_555 1_555
C13 C14 1_555 1_555
C21 C22 1_555 1_555
Co2B O5G 1_555 1_555
O6D C9D 1_555 1_555
C1B C2B 1_555 1_555
C2B C3B 1_555 1_555
C7D C8D 1_555 1_555
C8D C9D 1_555 1_555
C13C C14C 1_555 1_555
C19C C20C 1_555 1_555
C21C C22C 1_555 1_555

#END
