
#######################################################################
#
#                 Cambridge Crystallographic Data Centre
#                                CCDC 
#
#######################################################################
#
# If this CIF has been generated from an entry in the Cambridge 
# Structural Database, then it will include bibliographic, chemical, 
# crystal, experimental, refinement or atomic coordinate data resulting 
# from the CCDC's data processing and validation procedures.
#
#######################################################################

data_EZIMIK
_symmetry_cell_setting           rhombohedral
_symmetry_space_group_name_H-M   'R -3 m'
_symmetry_Int_Tables_number      166
_space_group_name_Hall           '-R 3 2"'
loop_
_symmetry_equiv_pos_site_id
_symmetry_equiv_pos_as_xyz
1 x,y,z
2 -y,x-y,z
3 -x+y,-x,z
4 y,x,-z
5 x-y,-y,-z
6 -x,-x+y,-z
7 2/3+x,1/3+y,1/3+z
8 2/3-y,1/3+x-y,1/3+z
9 2/3-x+y,1/3-x,1/3+z
10 2/3+y,1/3+x,1/3-z
11 2/3+x-y,1/3-y,1/3-z
12 2/3-x,1/3-x+y,1/3-z
13 1/3+x,2/3+y,2/3+z
14 1/3-y,2/3+x-y,2/3+z
15 1/3-x+y,2/3-x,2/3+z
16 1/3+y,2/3+x,2/3-z
17 1/3+x-y,2/3-y,2/3-z
18 1/3-x,2/3-x+y,2/3-z
19 -x,-y,-z
20 y,-x+y,-z
21 x-y,x,-z
22 -y,-x,z
23 -x+y,y,z
24 x,x-y,z
25 1/3-x,2/3-y,2/3-z
26 1/3+y,2/3-x+y,2/3-z
27 1/3+x-y,2/3+x,2/3-z
28 1/3-y,2/3-x,2/3+z
29 1/3-x+y,2/3+y,2/3+z
30 1/3+x,2/3+x-y,2/3+z
31 2/3-x,1/3-y,1/3-z
32 2/3+y,1/3-x+y,1/3-z
33 2/3+x-y,1/3+x,1/3-z
34 2/3-y,1/3-x,1/3+z
35 2/3-x+y,1/3+y,1/3+z
36 2/3+x,1/3+x-y,1/3+z
_cell_length_a                   18.667(3)
_cell_length_b                   18.667(3)
_cell_length_c                   36.398(7)
_cell_angle_alpha                90
_cell_angle_beta                 90
_cell_angle_gamma                120
_cell_volume                     10983.9
loop_
_atom_site_label
_atom_site_type_symbol
_atom_site_fract_x
_atom_site_fract_y
_atom_site_fract_z
Zn1 Zn 0.526750(13) 0.473250(13) 1.032576(11)
O1 O 0.48125(18) 0.36993(18) 1.00175(7)
O2 O 0.4091(2) 0.43900(18) 1.04819(7)
C1 C 0.5421(3) 0.45792(16) 1.11183(11)
N1 N 0.5417(3) 0.4209(3) 1.07926(11)
C2 C 0.5435(4) 0.3496(4) 1.07889(16)
H1 H 0.5472 0.3274 1.0559
C3 C 0.5400(4) 0.3066(5) 1.11123(17)
C4 C 0.5362(5) 0.3410(5) 1.14420(18)
H2 H 0.5359 0.3146 1.1665
C5 C 0.5328(5) 0.4130(4) 1.14512(14)
C6 C 0.5368(5) 0.4632(3) 1.17889(16)
C7 C 0.5169(5) 0.4832(2) 1.20592(15)
C8 C 0.4923(4) 0.5077(2) 1.23899(12)
C9 C 0.4160(3) 0.4556(3) 1.25438(9)
H3 H 0.3799 0.4037 1.2433
C10 C 0.3918(2) 0.4796(2) 1.28660(9)
C11 C 0.4452(3) 0.55481(16) 1.30252(11)
H4 H 0.4299 0.5701 1.3248
C12 C 0.4496(2) 0.3581(2) 0.97010(9)
Zn1G Zn 0.193417(13) 0.386833(18) 1.365909(11)
Zn1K Zn 0.139917(13) 0.279833(18) 1.300757(11)
Zn1H Zn 0.613167(18) 0.806583(13) 1.365909(11)
Zn1J Zn 0.720167(18) 0.860083(13) 1.300757(11)
O1U O 0.63007(18) 0.51875(18) 1.00175(7)
O1G O 0.29674(18) 0.44465(25) 1.33508(7)
O1HA O 0.55535(25) 0.70326(18) 1.33508(7)
O1J O 0.77799(25) 0.96340(18) 1.33158(7)
O1FA O 0.77799(25) 0.81458(18) 1.33158(7)
O2U O 0.56100(18) 0.5909(2) 1.04819(7)
O2C O 0.43900(18) 0.4091(2) 0.95181(7)
O2K O 0.2576(2) 0.36323(27) 1.28514(7)
O2FA O 0.63677(27) 0.7424(2) 1.28514(7)
O2J O 0.63677(27) 0.89433(18) 1.28514(7)
N1U N 0.5791(3) 0.4583(3) 1.07926(11)
N1J N 0.7875(4) 0.9124(3) 1.25407(11)
N1FA N 0.7875(4) 0.8750(3) 1.25407(11)
C3W C 0.5400(4) 0.2334(6) 1.11123(17)
C5U C 0.5870(4) 0.4672(5) 1.14512(14)
C9U C 0.5444(3) 0.5840(3) 1.25438(9)
H3U H 0.5963 0.6201 1.2433
C10U C 0.5204(2) 0.6082(2) 1.28660(9)
C10N C 0.4211(3) 0.2749(2) 0.95327(9)
C12C C 0.3581(2) 0.4496(2) 1.02990(9)
C12G C 0.3086(2) 0.4248(3) 1.30343(9)
C12HA C 0.5752(3) 0.6914(2) 1.30343(9)
loop_
_geom_bond_atom_site_label_1
_geom_bond_atom_site_label_2
_geom_bond_site_symmetry_1
_geom_bond_site_symmetry_2
Zn1 O1 1_555 1_555
O1 C12 1_555 1_555
O2 Zn1 1_555 1_555
C1 N1 1_555 1_555
N1 Zn1 1_555 1_555
C2 N1 1_555 1_555
H1 C2 1_555 1_555
C3 C2 1_555 1_555
C4 C3 1_555 1_555
H2 C4 1_555 1_555
C5 C1 1_555 1_555
C6 C5 1_555 1_555
C7 C6 1_555 1_555
C8 C7 1_555 1_555
C9 C8 1_555 1_555
H3 C9 1_555 1_555
C10 C9 1_555 1_555
C11 C10 1_555 1_555
H4 C11 1_555 1_555
C12 O2C 1_555 1_555
Zn1G O1G 1_555 1_555
Zn1K O2K 1_555 1_555
Zn1H O1HA 1_555 1_555
Zn1J O1J 1_555 1_555
O1U Zn1 1_555 1_555
O1G C12G 1_555 1_555
O1HA C12HA 1_555 1_555
O1FA Zn1J 1_555 1_555
O2U Zn1 1_555 1_555
O2K C12G 1_555 1_555
O2FA Zn1J 1_555 1_555
O2J Zn1J 1_555 1_555
N1U Zn1 1_555 1_555
N1J Zn1J 1_555 1_555
N1FA Zn1J 1_555 1_555
C3W C3 1_555 1_555
C5U C1 1_555 1_555
C9U C8 1_555 1_555
H3U C9U 1_555 1_555
C10U C11 1_555 1_555
C10N C12 1_555 1_555
C12C O2 1_555 1_555
C12G C10 1_555 1_555
C12HA O2FA 1_555 1_555
C1 N1U 1_555 1_555
N1 N1U 1_555 1_555
C4 C5 1_555 1_555
C5 C5U 1_555 1_555
C6 C5U 1_555 1_555
C9U C10U 1_555 1_555
C10U C12HA 1_555 1_555

#END
