
#######################################################################
#
#                 Cambridge Crystallographic Data Centre
#                                CCDC 
#
#######################################################################
#
# If this CIF has been generated from an entry in the Cambridge 
# Structural Database, then it will include bibliographic, chemical, 
# crystal, experimental, refinement or atomic coordinate data resulting 
# from the CCDC's data processing and validation procedures.
#
#######################################################################

data_EZOFIJ
_symmetry_cell_setting           trigonal
_symmetry_space_group_name_H-M   'P -3'
_symmetry_Int_Tables_number      147
_space_group_name_Hall           '-P 3'
loop_
_symmetry_equiv_pos_site_id
_symmetry_equiv_pos_as_xyz
1 x,y,z
2 -y,x-y,z
3 -x+y,-x,z
4 -x,-y,-z
5 y,-x+y,-z
6 x-y,x,-z
_cell_length_a                   13.8230(4)
_cell_length_b                   13.8230(4)
_cell_length_c                   7.9625(2)
_cell_angle_alpha                90
_cell_angle_beta                 90
_cell_angle_gamma                120
_cell_volume                     1317.6
loop_
_atom_site_label
_atom_site_type_symbol
_atom_site_fract_x
_atom_site_fract_y
_atom_site_fract_z
Ni1 Ni 0.21806(2) 0.98651(2) 0.10110(4)
O1 O 0.05058(13) 0.86577(13) 0.1131(2)
O2 O 0.25376(14) 0.88088(14) -0.0214(2)
O3 O 0.09919(14) 0.71675(14) -0.0784(2)
O4 O -0.10525(14) 0.80924(14) 0.2663(2)
O5 O 0.25179(15) 0.92321(15) 0.3176(2)
N1 N 0.35893(18) 0.96087(19) 0.5504(3)
C1 C 0.26932(19) 0.71924(19) -0.0334(3)
C2 C 0.3857(2) 0.7823(2) -0.0324(3)
H1 H 0.422(2) 0.858(2) -0.031(3)
C3 C 0.20135(19) 0.77707(19) -0.0433(3)
C4 C 0.3128(2) 0.9891(2) 0.4275(3)
H2 H 0.328(3) 1.066(3) 0.430(4)
C5 C -0.0025(2) 0.8521(2) 0.2499(3)
H3 H 0.041(2) 0.879(2) 0.351(3)
C6 C 0.3380(3) 0.8464(3) 0.5614(4)
H4 H 0.408(3) 0.849(3) 0.613(4)
H5 H 0.324(3) 0.813(3) 0.456(4)
H6 H 0.271(3) 0.796(3) 0.635(5)
C7 C 0.4216(3) 1.0384(3) 0.6868(4)
H7 H 0.386(3) 1.010(3) 0.789(4)
H8 H 0.425(3) 1.112(3) 0.664(4)
H9 H 0.501(3) 1.051(3) 0.692(4)
Ni1E Ni 0.23155(3) 1.21806(2) -0.10110(4)
Ni1A Ni 0.01349(2) 1.23155(3) 0.10110(4)
Ni1D Ni -0.01349(2) 0.76845(3) -0.10110(4)
Ni1B Ni -0.23155(3) 0.78194(2) 0.10110(4)
Ni1A_2 Ni 0.01349(2) 0.23155(3) 0.10110(4)
Ni1E_2 Ni 0.23155(3) 0.21806(2) -0.10110(4)
Ni1B_2 Ni 0.76845(3) 0.78194(2) 0.10110(4)
Ni1C Ni 0.78194(2) 1.01349(2) -0.10110(4)
O1E O 0.18481(18) 1.05058(13) -0.1131(2)
O1A O 0.13423(13) 1.18481(18) 0.1131(2)
O1C O -0.05058(13) 1.13423(13) -0.1131(2)
O2A O 0.11912(14) 0.37288(20) -0.0214(2)
O2B O 0.62712(20) 0.74624(14) -0.0214(2)
O2E O 0.37288(20) 1.25376(14) 0.0214(2)
O2A_2 O 0.11912(14) 1.37288(20) -0.0214(2)
O3A O 0.28325(14) 0.38244(20) -0.0784(2)
O3B O 0.61756(20) 0.90081(14) -0.0784(2)
O3E O 0.38244(20) 1.09919(14) 0.0784(2)
O3A_2 O 0.28325(14) 1.38244(20) -0.0784(2)
O3C O -0.09919(14) 1.28325(14) 0.0784(2)
O4E O 0.08551(20) 0.89475(14) -0.2663(2)
O4A O 0.19076(14) 1.08551(20) 0.2663(2)
O4C O 0.10525(14) 1.19076(14) -0.2663(2)
O4B O -0.08551(20) 1.10525(14) 0.2663(2)
O5E O 0.32858(21) 1.25179(15) -0.3176(2)
O5A O 0.07679(15) 1.32858(21) 0.3176(2)
N1E N 0.39806(26) 1.35893(18) -0.5504(3)
N1A N 0.03913(19) 1.39806(26) 0.5504(3)
C1B C 0.44992(27) 0.73068(19) -0.0334(3)
C1A C 0.28076(19) 0.55008(27) -0.0334(3)
C2B C 0.3966(3) 0.6143(2) -0.0324(3)
C2A C 0.2177(2) 0.6034(3) -0.0324(3)
H1A H 0.142(2) 0.564(3) -0.031(3)
H1B H 0.436(3) 0.578(2) -0.031(3)
C3A C 0.22293(19) 0.42428(27) -0.0433(3)
C3B C 0.57572(27) 0.79865(19) -0.0433(3)
C4E C 0.3237(3) 1.3128(2) -0.4275(3)
C4A C 0.0109(2) 1.3237(3) 0.4275(3)
H2E H 0.262(4) 1.328(3) -0.430(4)
H2A H -0.066(3) 1.262(4) 0.430(4)
C5E C 0.1454(3) 0.9975(2) -0.2499(3)
C5A C 0.1479(2) 1.1454(3) 0.2499(3)
H3E H 0.162(3) 1.041(2) -0.351(3)
H3A H 0.121(2) 1.162(3) 0.351(3)
C6E C 0.4916(4) 1.3380(3) -0.5614(4)
C6A C 0.1536(3) 1.4916(4) 0.5614(4)
H4E H 0.559(4) 1.408(3) -0.613(4)
H4A H 0.151(3) 1.559(4) 0.613(4)
H5E H 0.511(4) 1.324(3) -0.456(4)
H5A H 0.187(3) 1.511(4) 0.456(4)
H6E H 0.475(4) 1.271(3) -0.635(5)
H6A H 0.204(3) 1.475(4) 0.635(5)
C7E C 0.3832(4) 1.4216(3) -0.6868(4)
C7A C -0.0384(3) 1.3832(4) 0.6868(4)
H7E H 0.376(4) 1.386(3) -0.789(4)
H7A H -0.010(3) 1.376(4) 0.789(4)
H8E H 0.313(4) 1.425(3) -0.664(4)
H8A H -0.112(3) 1.313(4) 0.664(4)
H9E H 0.450(4) 1.501(3) -0.692(4)
H9A H -0.051(3) 1.450(4) 0.692(4)
loop_
_geom_bond_atom_site_label_1
_geom_bond_atom_site_label_2
_geom_bond_site_symmetry_1
_geom_bond_site_symmetry_2
Ni1 O1 1_555 1_555
O1 C5 1_555 1_555
O2 Ni1 1_555 1_555
O3 C3 1_555 1_555
O4 C5 1_555 1_555
O5 Ni1 1_555 1_555
N1 C4 1_555 1_555
C1 C2 1_555 1_555
C2 H1 1_555 1_555
C3 O2 1_555 1_555
C4 O5 1_555 1_555
H2 C4 1_555 1_555
C5 H3 1_555 1_555
C6 N1 1_555 1_555
H4 C6 1_555 1_555
H5 C6 1_555 1_555
H6 C6 1_555 1_555
C7 N1 1_555 1_555
H7 C7 1_555 1_555
H8 C7 1_555 1_555
H9 C7 1_555 1_555
Ni1E O1E 1_555 1_555
Ni1A O1A 1_555 1_555
Ni1D O1 1_555 1_555
Ni1B O4 1_555 1_555
Ni1A_2 O2A 1_555 1_555
Ni1E_2 O3A 1_555 1_555
Ni1B_2 O2B 1_555 1_555
Ni1C O3B 1_555 1_555
O1E Ni1 1_555 1_555
O1A Ni1E 1_555 1_555
O1C Ni1A 1_555 1_555
O2A C3A 1_555 1_555
O2B C3B 1_555 1_555
O2E Ni1E 1_555 1_555
O2A_2 Ni1A 1_555 1_555
O3A C3A 1_555 1_555
O3B C3B 1_555 1_555
O3E Ni1 1_555 1_555
O3A_2 Ni1E 1_555 1_555
O3C Ni1A 1_555 1_555
O4E Ni1D 1_555 1_555
O4A Ni1 1_555 1_555
O4C Ni1E 1_555 1_555
O4B Ni1A 1_555 1_555
O5E Ni1E 1_555 1_555
O5A Ni1A 1_555 1_555
N1E C4E 1_555 1_555
N1A C4A 1_555 1_555
C1B C2 1_555 1_555
C1A C2B 1_555 1_555
C2B C1B 1_555 1_555
C2A C1 1_555 1_555
H1A C2A 1_555 1_555
H1B C2B 1_555 1_555
C3A C1A 1_555 1_555
C3B C1B 1_555 1_555
C4E O5E 1_555 1_555
C4A O5A 1_555 1_555
H2E C4E 1_555 1_555
H2A C4A 1_555 1_555
C5E O1E 1_555 1_555
C5A O1A 1_555 1_555
H3E C5E 1_555 1_555
H3A C5A 1_555 1_555
C6E N1E 1_555 1_555
C6A N1A 1_555 1_555
H4E C6E 1_555 1_555
H4A C6A 1_555 1_555
H5E C6E 1_555 1_555
H5A C6A 1_555 1_555
H6E C6E 1_555 1_555
H6A C6A 1_555 1_555
C7E N1E 1_555 1_555
C7A N1A 1_555 1_555
H7E C7E 1_555 1_555
H7A C7A 1_555 1_555
H8E C7E 1_555 1_555
H8A C7A 1_555 1_555
H9E C7E 1_555 1_555
H9A C7A 1_555 1_555
O3 Ni1D 1_555 1_555
C1 C3 1_555 1_555
O4E C5E 1_555 1_555
O4A C5A 1_555 1_555
C1A C2A 1_555 1_555

#END
