
#######################################################################
#
#                 Cambridge Crystallographic Data Centre
#                                CCDC 
#
#######################################################################
#
# If this CIF has been generated from an entry in the Cambridge 
# Structural Database, then it will include bibliographic, chemical, 
# crystal, experimental, refinement or atomic coordinate data resulting 
# from the CCDC's data processing and validation procedures.
#
#######################################################################

data_EZOFEF
_symmetry_cell_setting           cubic
_symmetry_space_group_name_H-M   'F m -3 m'
_symmetry_Int_Tables_number      225
_space_group_name_Hall           '-F 4 2 3'
loop_
_symmetry_equiv_pos_site_id
_symmetry_equiv_pos_as_xyz
1 x,y,z
2 x,-y,-z
3 -x,-y,z
4 -x,y,-z
5 -y,x,z
6 y,x,-z
7 y,-x,z
8 -y,-x,-z
9 y,z,x
10 -y,-z,x
11 y,-z,-x
12 -y,z,-x
13 -z,y,x
14 -z,-y,-x
15 z,-y,x
16 z,y,-x
17 z,x,y
18 -z,x,-y
19 -z,-x,y
20 z,-x,-y
21 -x,-z,-y
22 -x,z,y
23 x,-z,y
24 x,z,-y
25 x,1/2+y,1/2+z
26 x,1/2-y,1/2-z
27 -x,1/2-y,1/2+z
28 -x,1/2+y,1/2-z
29 -y,1/2+x,1/2+z
30 y,1/2+x,1/2-z
31 y,1/2-x,1/2+z
32 -y,1/2-x,1/2-z
33 y,1/2+z,1/2+x
34 -y,1/2-z,1/2+x
35 y,1/2-z,1/2-x
36 -y,1/2+z,1/2-x
37 -z,1/2+y,1/2+x
38 -z,1/2-y,1/2-x
39 z,1/2-y,1/2+x
40 z,1/2+y,1/2-x
41 z,1/2+x,1/2+y
42 -z,1/2+x,1/2-y
43 -z,1/2-x,1/2+y
44 z,1/2-x,1/2-y
45 -x,1/2-z,1/2-y
46 -x,1/2+z,1/2+y
47 x,1/2-z,1/2+y
48 x,1/2+z,1/2-y
49 1/2+x,y,1/2+z
50 1/2+x,-y,1/2-z
51 1/2-x,-y,1/2+z
52 1/2-x,y,1/2-z
53 1/2-y,x,1/2+z
54 1/2+y,x,1/2-z
55 1/2+y,-x,1/2+z
56 1/2-y,-x,1/2-z
57 1/2+y,z,1/2+x
58 1/2-y,-z,1/2+x
59 1/2+y,-z,1/2-x
60 1/2-y,z,1/2-x
61 1/2-z,y,1/2+x
62 1/2-z,-y,1/2-x
63 1/2+z,-y,1/2+x
64 1/2+z,y,1/2-x
65 1/2+z,x,1/2+y
66 1/2-z,x,1/2-y
67 1/2-z,-x,1/2+y
68 1/2+z,-x,1/2-y
69 1/2-x,-z,1/2-y
70 1/2-x,z,1/2+y
71 1/2+x,-z,1/2+y
72 1/2+x,z,1/2-y
73 1/2+x,1/2+y,z
74 1/2+x,1/2-y,-z
75 1/2-x,1/2-y,z
76 1/2-x,1/2+y,-z
77 1/2-y,1/2+x,z
78 1/2+y,1/2+x,-z
79 1/2+y,1/2-x,z
80 1/2-y,1/2-x,-z
81 1/2+y,1/2+z,x
82 1/2-y,1/2-z,x
83 1/2+y,1/2-z,-x
84 1/2-y,1/2+z,-x
85 1/2-z,1/2+y,x
86 1/2-z,1/2-y,-x
87 1/2+z,1/2-y,x
88 1/2+z,1/2+y,-x
89 1/2+z,1/2+x,y
90 1/2-z,1/2+x,-y
91 1/2-z,1/2-x,y
92 1/2+z,1/2-x,-y
93 1/2-x,1/2-z,-y
94 1/2-x,1/2+z,y
95 1/2+x,1/2-z,y
96 1/2+x,1/2+z,-y
97 -x,-y,-z
98 -x,y,z
99 x,y,-z
100 x,-y,z
101 y,-x,-z
102 -y,-x,z
103 -y,x,-z
104 y,x,z
105 -y,-z,-x
106 y,z,-x
107 -y,z,x
108 y,-z,x
109 z,-y,-x
110 z,y,x
111 -z,y,-x
112 -z,-y,x
113 -z,-x,-y
114 z,-x,y
115 z,x,-y
116 -z,x,y
117 x,z,y
118 x,-z,-y
119 -x,z,-y
120 -x,-z,y
121 -x,1/2-y,1/2-z
122 -x,1/2+y,1/2+z
123 x,1/2+y,1/2-z
124 x,1/2-y,1/2+z
125 y,1/2-x,1/2-z
126 -y,1/2-x,1/2+z
127 -y,1/2+x,1/2-z
128 y,1/2+x,1/2+z
129 -y,1/2-z,1/2-x
130 y,1/2+z,1/2-x
131 -y,1/2+z,1/2+x
132 y,1/2-z,1/2+x
133 z,1/2-y,1/2-x
134 z,1/2+y,1/2+x
135 -z,1/2+y,1/2-x
136 -z,1/2-y,1/2+x
137 -z,1/2-x,1/2-y
138 z,1/2-x,1/2+y
139 z,1/2+x,1/2-y
140 -z,1/2+x,1/2+y
141 x,1/2+z,1/2+y
142 x,1/2-z,1/2-y
143 -x,1/2+z,1/2-y
144 -x,1/2-z,1/2+y
145 1/2-x,-y,1/2-z
146 1/2-x,y,1/2+z
147 1/2+x,y,1/2-z
148 1/2+x,-y,1/2+z
149 1/2+y,-x,1/2-z
150 1/2-y,-x,1/2+z
151 1/2-y,x,1/2-z
152 1/2+y,x,1/2+z
153 1/2-y,-z,1/2-x
154 1/2+y,z,1/2-x
155 1/2-y,z,1/2+x
156 1/2+y,-z,1/2+x
157 1/2+z,-y,1/2-x
158 1/2+z,y,1/2+x
159 1/2-z,y,1/2-x
160 1/2-z,-y,1/2+x
161 1/2-z,-x,1/2-y
162 1/2+z,-x,1/2+y
163 1/2+z,x,1/2-y
164 1/2-z,x,1/2+y
165 1/2+x,z,1/2+y
166 1/2+x,-z,1/2-y
167 1/2-x,z,1/2-y
168 1/2-x,-z,1/2+y
169 1/2-x,1/2-y,-z
170 1/2-x,1/2+y,z
171 1/2+x,1/2+y,-z
172 1/2+x,1/2-y,z
173 1/2+y,1/2-x,-z
174 1/2-y,1/2-x,z
175 1/2-y,1/2+x,-z
176 1/2+y,1/2+x,z
177 1/2-y,1/2-z,-x
178 1/2+y,1/2+z,-x
179 1/2-y,1/2+z,x
180 1/2+y,1/2-z,x
181 1/2+z,1/2-y,-x
182 1/2+z,1/2+y,x
183 1/2-z,1/2+y,-x
184 1/2-z,1/2-y,x
185 1/2-z,1/2-x,-y
186 1/2+z,1/2-x,y
187 1/2+z,1/2+x,-y
188 1/2-z,1/2+x,y
189 1/2+x,1/2+z,y
190 1/2+x,1/2-z,-y
191 1/2-x,1/2+z,-y
192 1/2-x,1/2-z,y
_cell_length_a                   26.5941(7)
_cell_length_b                   26.5941(7)
_cell_length_c                   26.5941(7)
_cell_angle_alpha                90
_cell_angle_beta                 90
_cell_angle_gamma                90
_cell_volume                     18808.6
loop_
_atom_site_label
_atom_site_type_symbol
_atom_site_fract_x
_atom_site_fract_y
_atom_site_fract_z
Ni1 Ni 0.28607(2) 0.5000 0.28607(2)
O1 O 0.24227(12) 0.44675(11) 0.31697(12)
N1 N 0.3385(2) 0.5000 0.3385(2)
H1 H 0.3620 0.5000 0.3620
C1 C 0.20208(16) 0.4306(2) 0.29792(16)
C2 C 0.17777(16) 0.3864(2) 0.32223(16)
C3 C 0.1985(2) 0.36498(17) 0.36498(17)
H2 H 0.2268 0.3795 0.3795
C4 C 0.3550(6) 0.547(2) 0.3550(6)
H3 H 0.3801 0.5430 0.3806
H4 H 0.3270 0.5657 0.3685
H5 H 0.3691 0.5654 0.3272
Ni1YA Ni 0.21393(2) 0.5000 0.21393(2)
Ni1LC Ni 0.21393(2) 0.21393(2) 0.5000
Ni1P Ni 0.28607(2) 0.28607(2) 0.5000
Ni1AB Ni 0.0000 0.28607(2) 0.21393(2)
Ni1ZB Ni 0.0000 0.21393(2) 0.28607(2)
Ni1CA Ni 0.5000 0.78607(2) 0.21393(2)
Ni1F Ni 0.5000 0.71393(2) 0.28607(2)
Ni1NB Ni 0.21393(2) 0.71393(2) 0.0000
Ni1NA Ni 0.28607(2) 0.78607(2) 0.0000
Ni1KC Ni 0.21393(2) 0.78607(2) 0.5000
Ni1S Ni 0.28607(2) 0.71393(2) 0.5000
Ni1CB Ni 0.0000 0.71393(2) 0.21393(2)
Ni1XB Ni 0.0000 0.78607(2) 0.28607(2)
Ni1EA Ni 0.5000 0.21393(2) 0.21393(2)
Ni1D Ni 0.5000 0.28607(2) 0.28607(2)
Ni1MB Ni 0.21393(2) 0.28607(2) 0.0000
Ni1QA Ni 0.28607(2) 0.21393(2) 0.0000
O1BF O 0.18303(12) 0.44675(11) 0.25773(12)
O1LC O 0.18303(12) 0.25773(12) 0.44675(11)
O1LD O 0.24227(12) 0.31697(12) 0.44675(11)
O1GB O 0.05325(11) 0.31697(12) 0.25773(12)
O1QF O 0.05325(11) 0.25773(12) 0.31697(12)
O1N O 0.31697(12) 0.55325(11) 0.24227(12)
O1NE O 0.25773(12) 0.55325(11) 0.18303(12)
O1CA O 0.44675(11) 0.74227(12) 0.18303(12)
O1CD O 0.44675(11) 0.68303(12) 0.24227(12)
O1PB O 0.25773(12) 0.68303(12) 0.05325(11)
O1HE O 0.31697(12) 0.74227(12) 0.05325(11)
O1UC O 0.24227(12) 0.55325(11) 0.31697(12)
O1IB O 0.18303(12) 0.55325(11) 0.25773(12)
O1EG O 0.18303(12) 0.74227(12) 0.44675(11)
O1V O 0.24227(12) 0.68303(12) 0.44675(11)
O1VE O 0.05325(11) 0.68303(12) 0.25773(12)
O1XB O 0.05325(11) 0.74227(12) 0.31697(12)
O1ED O 0.31697(12) 0.44675(11) 0.24227(12)
O1YA O 0.25773(12) 0.44675(11) 0.18303(12)
O1TD O 0.44675(11) 0.25773(12) 0.18303(12)
O1H O 0.44675(11) 0.31697(12) 0.24227(12)
O1JF O 0.25773(12) 0.31697(12) 0.05325(11)
O1QA O 0.31697(12) 0.25773(12) 0.05325(11)
O1NC O 0.25773(12) 0.18303(12) 0.55325(11)
O1BG O 0.18303(12) 0.25773(12) 0.55325(11)
O1IG O 0.25773(12) 0.18303(12) 0.44675(11)
O1JD O 0.31697(12) 0.24227(12) 0.55325(11)
O1W O 0.24227(12) 0.31697(12) 0.55325(11)
O1P O 0.31697(12) 0.24227(12) 0.44675(11)
O1AB O -0.05325(11) 0.24227(12) 0.18303(12)
O1WE O -0.05325(11) 0.31697(12) 0.25773(12)
O1TE O 0.05325(11) 0.24227(12) 0.18303(12)
O1WF O -0.05325(11) 0.18303(12) 0.24227(12)
O1ZB O -0.05325(11) 0.25773(12) 0.31697(12)
O1CC O 0.05325(11) 0.18303(12) 0.24227(12)
N1YA N 0.1615(2) 0.5000 0.1615(2)
N1LC N 0.1615(2) 0.1615(2) 0.5000
N1P N 0.3385(2) 0.3385(2) 0.5000
N1AB N 0.0000 0.3385(2) 0.1615(2)
N1ZB N 0.0000 0.1615(2) 0.3385(2)
H1YA H 0.1380 0.5000 0.1380
H1LC H 0.1380 0.1380 0.5000
H1P H 0.3620 0.3620 0.5000
H1AB H 0.0000 0.3620 0.1380
H1ZB H 0.0000 0.1380 0.3620
C1LC C 0.20208(16) 0.29792(16) 0.4306(2)
C1GB C 0.0694(2) 0.29792(16) 0.29792(16)
C1N C 0.29792(16) 0.5694(2) 0.20208(16)
C1CA C 0.4306(2) 0.70208(16) 0.20208(16)
C1PB C 0.29792(16) 0.70208(16) 0.0694(2)
C1IB C 0.20208(16) 0.5694(2) 0.29792(16)
C1V C 0.20208(16) 0.70208(16) 0.4306(2)
C1XB C 0.0694(2) 0.70208(16) 0.29792(16)
C1YA C 0.29792(16) 0.4306(2) 0.20208(16)
C1H C 0.4306(2) 0.29792(16) 0.20208(16)
C1QA C 0.29792(16) 0.29792(16) 0.0694(2)
C2LC C 0.17777(16) 0.32223(16) 0.3864(2)
C2GB C 0.1136(2) 0.32223(16) 0.32223(16)
C2N C 0.32223(16) 0.6136(2) 0.17777(16)
C2CA C 0.3864(2) 0.67777(16) 0.17777(16)
C2PB C 0.32223(16) 0.67777(16) 0.1136(2)
C2IB C 0.17777(16) 0.6136(2) 0.32223(16)
C2V C 0.17777(16) 0.67777(16) 0.3864(2)
C2XB C 0.1136(2) 0.67777(16) 0.32223(16)
C2YA C 0.32223(16) 0.3864(2) 0.17777(16)
C2H C 0.3864(2) 0.32223(16) 0.17777(16)
C2QA C 0.32223(16) 0.32223(16) 0.1136(2)
C3LC C 0.13502(17) 0.3015(2) 0.36498(17)
C3GB C 0.13502(17) 0.36498(17) 0.3015(2)
C3N C 0.36498(17) 0.63502(17) 0.1985(2)
C3CA C 0.36498(17) 0.6985(2) 0.13502(17)
C3PB C 0.3015(2) 0.63502(17) 0.13502(17)
C3V C 0.1985(2) 0.63502(17) 0.36498(17)
C3XB C 0.13502(17) 0.6985(2) 0.36498(17)
C3IB C 0.13502(17) 0.63502(17) 0.3015(2)
C3H C 0.36498(17) 0.36498(17) 0.1985(2)
C3QA C 0.36498(17) 0.3015(2) 0.13502(17)
C3YA C 0.3015(2) 0.36498(17) 0.13502(17)
H2GB H 0.1205 0.3795 0.2732
H2LC H 0.1205 0.2732 0.3795
H2N H 0.3795 0.6205 0.2268
H2PB H 0.2732 0.6205 0.1205
H2CA H 0.3795 0.7268 0.1205
H2V H 0.2268 0.6205 0.3795
H2IB H 0.1205 0.6205 0.2732
H2XB H 0.1205 0.7268 0.3795
H2H H 0.3795 0.3795 0.2268
H2YA H 0.2732 0.3795 0.1205
H2QA H 0.3795 0.2732 0.1205
C4N C 0.3550(6) 0.453(2) 0.3550(6)
C4YA C 0.1450(6) 0.547(2) 0.1450(6)
C4IB C 0.1450(6) 0.453(2) 0.1450(6)
C4LC C 0.1450(6) 0.1450(6) 0.547(2)
C4NC C 0.1450(6) 0.1450(6) 0.453(2)
C4P C 0.3550(6) 0.3550(6) 0.547(2)
C4W C 0.3550(6) 0.3550(6) 0.453(2)
C4GB C -0.047(2) 0.3550(6) 0.1450(6)
C4AB C 0.047(2) 0.3550(6) 0.1450(6)
C4CC C -0.047(2) 0.1450(6) 0.3550(6)
C4ZB C 0.047(2) 0.1450(6) 0.3550(6)
H3N H 0.3806 0.4570 0.3801
H3BF H 0.1194 0.5430 0.1199
H3NE H 0.1199 0.4570 0.1194
H3LC H 0.1194 0.1199 0.5430
H3NC H 0.1199 0.1194 0.4570
H3LD H 0.3801 0.3806 0.5430
H3JD H 0.3806 0.3801 0.4570
H3GB H -0.0430 0.3806 0.1199
H3AB H 0.0430 0.3801 0.1194
H3QF H -0.0430 0.1199 0.3806
H3WF H 0.0430 0.1194 0.3801
H4N H 0.3685 0.4343 0.3270
H4BF H 0.1315 0.5657 0.1730
H4NE H 0.1730 0.4343 0.1315
H4LC H 0.1315 0.1730 0.5657
H4NC H 0.1730 0.1315 0.4343
H4LD H 0.3270 0.3685 0.5657
H4JD H 0.3685 0.3270 0.4343
H4GB H -0.0657 0.3685 0.1730
H4AB H 0.0657 0.3270 0.1315
H4QF H -0.0657 0.1730 0.3685
H4WF H 0.0657 0.1315 0.3270
H5N H 0.3272 0.4346 0.3691
H5BF H 0.1728 0.5654 0.1309
H5NE H 0.1309 0.4346 0.1728
H5LC H 0.1728 0.1309 0.5654
H5NC H 0.1309 0.1728 0.4346
H5LD H 0.3691 0.3272 0.5654
H5JD H 0.3272 0.3691 0.4346
H5GB H -0.0654 0.3272 0.1309
H5AB H 0.0654 0.3691 0.1728
H5QF H -0.0654 0.1309 0.3272
H5WF H 0.0654 0.1728 0.3691
loop_
_geom_bond_atom_site_label_1
_geom_bond_atom_site_label_2
_geom_bond_site_symmetry_1
_geom_bond_site_symmetry_2
Ni1 O1 1_555 1_555
O1 C1 1_555 1_555
N1 Ni1 1_555 1_555
H1 N1 1_555 1_555
C1 C2 1_555 1_555
C2 C3 1_555 1_555
C3 H2 1_555 1_555
C4 N1 1_555 1_555
H3 C4 1_555 1_555
H4 C4 1_555 1_555
H5 C4 1_555 1_555
Ni1YA O1BF 1_555 1_555
Ni1LC O1LC 1_555 1_555
Ni1P O1LD 1_555 1_555
Ni1AB O1GB 1_555 1_555
Ni1ZB O1QF 1_555 1_555
Ni1CA O1CA 1_555 1_555
Ni1F O1CD 1_555 1_555
Ni1NB O1PB 1_555 1_555
Ni1NA O1HE 1_555 1_555
Ni1KC O1EG 1_555 1_555
Ni1S O1V 1_555 1_555
Ni1CB O1VE 1_555 1_555
Ni1XB O1XB 1_555 1_555
Ni1EA O1TD 1_555 1_555
Ni1D O1H 1_555 1_555
Ni1MB O1JF 1_555 1_555
Ni1QA O1QA 1_555 1_555
O1BF C1 1_555 1_555
O1LC C1LC 1_555 1_555
O1LD C1LC 1_555 1_555
O1GB C1GB 1_555 1_555
O1QF C1GB 1_555 1_555
O1N Ni1 1_555 1_555
O1NE Ni1YA 1_555 1_555
O1CA C1CA 1_555 1_555
O1CD C1CA 1_555 1_555
O1PB C1PB 1_555 1_555
O1HE C1PB 1_555 1_555
O1UC Ni1 1_555 1_555
O1IB Ni1YA 1_555 1_555
O1EG C1V 1_555 1_555
O1V C1V 1_555 1_555
O1VE C1XB 1_555 1_555
O1XB C1XB 1_555 1_555
O1ED Ni1 1_555 1_555
O1YA Ni1YA 1_555 1_555
O1TD C1H 1_555 1_555
O1H C1H 1_555 1_555
O1JF C1QA 1_555 1_555
O1QA C1QA 1_555 1_555
O1NC Ni1LC 1_555 1_555
O1BG Ni1LC 1_555 1_555
O1IG Ni1LC 1_555 1_555
O1JD Ni1P 1_555 1_555
O1W Ni1P 1_555 1_555
O1P Ni1P 1_555 1_555
O1AB Ni1AB 1_555 1_555
O1WE Ni1AB 1_555 1_555
O1TE Ni1AB 1_555 1_555
O1WF Ni1ZB 1_555 1_555
O1ZB Ni1ZB 1_555 1_555
O1CC Ni1ZB 1_555 1_555
N1YA Ni1YA 1_555 1_555
N1LC Ni1LC 1_555 1_555
N1P Ni1P 1_555 1_555
N1AB Ni1AB 1_555 1_555
N1ZB Ni1ZB 1_555 1_555
H1YA N1YA 1_555 1_555
H1LC N1LC 1_555 1_555
H1P N1P 1_555 1_555
H1AB N1AB 1_555 1_555
H1ZB N1ZB 1_555 1_555
C1LC C2LC 1_555 1_555
C1GB C2GB 1_555 1_555
C1N O1N 1_555 1_555
C1CA C2CA 1_555 1_555
C1PB C2PB 1_555 1_555
C1IB O1UC 1_555 1_555
C1V C2V 1_555 1_555
C1XB C2XB 1_555 1_555
C1YA O1ED 1_555 1_555
C1H C2H 1_555 1_555
C1QA C2QA 1_555 1_555
C2LC C3 1_555 1_555
C2GB C3LC 1_555 1_555
C2N C1N 1_555 1_555
C2CA C3N 1_555 1_555
C2PB C3CA 1_555 1_555
C2IB C1IB 1_555 1_555
C2V C3V 1_555 1_555
C2XB C3XB 1_555 1_555
C2YA C1YA 1_555 1_555
C2H C3H 1_555 1_555
C2QA C3QA 1_555 1_555
C3LC C2LC 1_555 1_555
C3GB C2 1_555 1_555
C3N C2N 1_555 1_555
C3CA C2CA 1_555 1_555
C3PB C2N 1_555 1_555
C3V C2IB 1_555 1_555
C3XB C2V 1_555 1_555
C3IB C2IB 1_555 1_555
C3H C2YA 1_555 1_555
C3QA C2H 1_555 1_555
C3YA C2YA 1_555 1_555
H2GB C3GB 1_555 1_555
H2LC C3LC 1_555 1_555
H2N C3N 1_555 1_555
H2PB C3PB 1_555 1_555
H2CA C3CA 1_555 1_555
H2V C3V 1_555 1_555
H2IB C3IB 1_555 1_555
H2XB C3XB 1_555 1_555
H2H C3H 1_555 1_555
H2YA C3YA 1_555 1_555
H2QA C3QA 1_555 1_555
C4N N1 1_555 1_555
C4YA N1YA 1_555 1_555
C4IB N1YA 1_555 1_555
C4LC N1LC 1_555 1_555
C4NC N1LC 1_555 1_555
C4P N1P 1_555 1_555
C4W N1P 1_555 1_555
C4GB N1AB 1_555 1_555
C4AB N1AB 1_555 1_555
C4CC N1ZB 1_555 1_555
C4ZB N1ZB 1_555 1_555
H3N C4N 1_555 1_555
H3BF C4YA 1_555 1_555
H3NE C4IB 1_555 1_555
H3LC C4LC 1_555 1_555
H3NC C4NC 1_555 1_555
H3LD C4P 1_555 1_555
H3JD C4W 1_555 1_555
H3GB C4GB 1_555 1_555
H3AB C4AB 1_555 1_555
H3QF C4CC 1_555 1_555
H3WF C4ZB 1_555 1_555
H4N C4N 1_555 1_555
H4BF C4YA 1_555 1_555
H4NE C4IB 1_555 1_555
H4LC C4LC 1_555 1_555
H4NC C4NC 1_555 1_555
H4LD C4P 1_555 1_555
H4JD C4W 1_555 1_555
H4GB C4GB 1_555 1_555
H4AB C4AB 1_555 1_555
H4QF C4CC 1_555 1_555
H4WF C4ZB 1_555 1_555
H5N C4N 1_555 1_555
H5BF C4YA 1_555 1_555
H5NE C4IB 1_555 1_555
H5LC C4LC 1_555 1_555
H5NC C4NC 1_555 1_555
H5LD C4P 1_555 1_555
H5JD C4W 1_555 1_555
H5GB C4GB 1_555 1_555
H5AB C4AB 1_555 1_555
H5QF C4CC 1_555 1_555
H5WF C4ZB 1_555 1_555
O1NE C1N 1_555 1_555
O1IB C1IB 1_555 1_555
O1YA C1YA 1_555 1_555
C2GB C3GB 1_555 1_555
C2PB C3PB 1_555 1_555
C2XB C3IB 1_555 1_555
C2QA C3YA 1_555 1_555

#END
