
#######################################################################
#
#                 Cambridge Crystallographic Data Centre
#                                CCDC 
#
#######################################################################
#
# If this CIF has been generated from an entry in the Cambridge 
# Structural Database, then it will include bibliographic, chemical, 
# crystal, experimental, refinement or atomic coordinate data resulting 
# from the CCDC's data processing and validation procedures.
#
#######################################################################

data_EZUCIM
_symmetry_cell_setting           orthorhombic
_symmetry_space_group_name_H-M   'P 21 21 21'
_symmetry_Int_Tables_number      19
_space_group_name_Hall           'P 2ac 2ab'
loop_
_symmetry_equiv_pos_site_id
_symmetry_equiv_pos_as_xyz
1 x,y,z
2 1/2-x,-y,1/2+z
3 1/2+x,1/2-y,-z
4 -x,1/2+y,1/2-z
_cell_length_a                   8.741(5)
_cell_length_b                   14.796(5)
_cell_length_c                   19.340(5)
_cell_angle_alpha                90
_cell_angle_beta                 90
_cell_angle_gamma                90
_cell_volume                     2501.28
loop_
_atom_site_label
_atom_site_type_symbol
_atom_site_fract_x
_atom_site_fract_y
_atom_site_fract_z
Zn1 Zn 0.63146(8) 0.95552(5) 0.07330(3)
O1 O 0.0323(6) 0.9765(4) 0.5297(2)
N1 N 0.6206(7) 1.0115(4) 0.3874(2)
N2 N 0.4884(6) 1.0428(4) 0.4217(2)
O2 O -0.0451(5) 1.0266(4) 0.4272(3)
O3 O 0.5556(6) 0.9287(4) 0.5850(3)
O4 O 0.6743(5) 1.0396(4) 0.5275(2)
N3 N 0.4159(6) 1.3236(4) 0.4314(3)
N4 N 0.6283(7) 0.9824(4) 0.1745(2)
C1 C 0.3176(8) 0.9416(5) 0.4833(3)
C2 C 0.6175(8) 1.0021(4) 0.3175(3)
C3 C 0.4484(8) 0.9848(4) 0.4790(3)
C4 C 0.4683(7) 1.1347(4) 0.4267(3)
C5 C 0.3605(10) 1.1713(5) 0.4706(3)
H1 H 0.3037 1.1341 0.4996
C6 C 0.7542(8) 0.9791(5) 0.2839(3)
H2 H 0.8443 0.9712 0.3087
C7 C 0.3372(8) 1.2648(5) 0.4710(3)
H3 H 0.2627 1.2879 0.5005
C8 C 0.1907(8) 0.9445(5) 0.4345(4)
H4 H 0.1673 0.8834 0.4198
H5 H 0.2219 0.9784 0.3940
C9 C 0.0481(9) 0.9867(5) 0.4640(3)
C10 C 0.7514(8) 0.9686(5) 0.2135(3)
H6 H 0.8412 0.9507 0.1917
C11 C 0.5511(8) 1.1949(5) 0.3857(3)
H7 H 0.6257 1.1731 0.3558
C12 C 0.5235(8) 1.2843(5) 0.3894(3)
H8 H 0.5815 1.3221 0.3613
C13 C 0.4974(8) 1.0055(4) 0.2069(3)
H9 H 0.4101 1.0140 0.1802
C14 C 0.4861(8) 1.0172(4) 0.2773(3)
H10 H 0.3943 1.0346 0.2977
C15 C 0.5671(8) 0.9818(5) 0.5353(3)
H17 H 0.705(7) 1.001(4) 0.405(3)
H18 H 0.311(10) 0.926(5) 0.533(5)
Zn1A Zn -0.13146(8) 1.04448(5) 0.57330(3)
Zn1A_2 Zn 0.86854(8) 1.04448(5) 0.57330(3)
Zn1C Zn 0.36854(8) 1.45552(5) 0.42670(3)
O1A O 0.4677(6) 1.0235(4) 0.0297(2)
O4A O 0.8257(5) 0.9604(4) 0.0275(2)
N3C N 0.5841(6) 0.8236(4) 0.0686(3)
O5 O 0.0880(16) 1.1183(11) 0.3161(5)
O6 O 0.1333(11) 1.0209(13) 0.1987(6)
O7 O 0.157(3) 0.824(3) 0.2097(17)
O8 O -0.007(3) 0.7508(18) 0.6797(17)
H11 H 0.0375 0.7679 0.7146
C16 C 0.205(4) 0.731(2) 0.5684(18)
H12 H 0.1563 0.7337 0.5239
H13 H 0.2428 0.6715 0.5766
H14 H 0.2883 0.7736 0.5695
C17 C 0.088(5) 0.756(3) 0.625(2)
H15 H 0.1423 0.8095 0.6411
H16 H 0.0124 0.7813 0.5934
loop_
_geom_bond_atom_site_label_1
_geom_bond_atom_site_label_2
_geom_bond_site_symmetry_1
_geom_bond_site_symmetry_2
Zn1 N4 1_555 1_555
O1 C9 1_555 1_555
N1 N2 1_555 1_555
N2 C3 1_555 1_555
O2 C9 1_555 1_555
O3 C15 1_555 1_555
O4 C15 1_555 1_555
N3 C7 1_555 1_555
N4 C10 1_555 1_555
C1 C3 1_555 1_555
C2 N1 1_555 1_555
C3 C15 1_555 1_555
C4 N2 1_555 1_555
C5 C4 1_555 1_555
H1 C5 1_555 1_555
C6 C2 1_555 1_555
H2 C6 1_555 1_555
C7 C5 1_555 1_555
H3 C7 1_555 1_555
C8 C1 1_555 1_555
H4 C8 1_555 1_555
H5 C8 1_555 1_555
C9 C8 1_555 1_555
C10 C6 1_555 1_555
H6 C10 1_555 1_555
C11 C4 1_555 1_555
H7 C11 1_555 1_555
C12 N3 1_555 1_555
H8 C12 1_555 1_555
C13 N4 1_555 1_555
H9 C13 1_555 1_555
C14 C2 1_555 1_555
H10 C14 1_555 1_555
O8 H11 1_555 1_555
C16 H12 1_555 1_555
H13 C16 1_555 1_555
H14 C16 1_555 1_555
C17 O8 1_555 1_555
H15 C17 1_555 1_555
H16 C17 1_555 1_555
H17 N1 1_555 1_555
H18 C1 1_555 1_555
Zn1A O1 1_555 1_555
Zn1A_2 O4 1_555 1_555
Zn1C N3 1_555 1_555
O1A Zn1 1_555 1_555
O4A Zn1 1_555 1_555
N3C Zn1 1_555 1_555
C11 C12 1_555 1_555
C13 C14 1_555 1_555
C16 C17 1_555 1_555

#END
