
#######################################################################
#
#                 Cambridge Crystallographic Data Centre
#                                CCDC 
#
#######################################################################
#
# If this CIF has been generated from an entry in the Cambridge 
# Structural Database, then it will include bibliographic, chemical, 
# crystal, experimental, refinement or atomic coordinate data resulting 
# from the CCDC's data processing and validation procedures.
#
#######################################################################

data_FAHPOV
_symmetry_cell_setting           orthorhombic
_symmetry_space_group_name_H-M   'P n m n'
_symmetry_Int_Tables_number      58
_space_group_name_Hall           '-P 2n 2n'
loop_
_symmetry_equiv_pos_site_id
_symmetry_equiv_pos_as_xyz
1 x,y,z
2 1/2-x,1/2-y,1/2+z
3 1/2+x,1/2-y,1/2-z
4 -x,y,-z
5 -x,-y,-z
6 1/2+x,1/2+y,1/2-z
7 1/2-x,1/2+y,1/2+z
8 x,-y,z
_cell_length_a                   19.8070(3)
_cell_length_b                   27.7140(5)
_cell_length_c                   27.8470(5)
_cell_angle_alpha                90
_cell_angle_beta                 90
_cell_angle_gamma                90
_cell_volume                     15286.1
loop_
_atom_site_label
_atom_site_type_symbol
_atom_site_fract_x
_atom_site_fract_y
_atom_site_fract_z
Zn1 Zn 0.68856(3) 0.05763(2) 0.381992(19)
Zn2 Zn 0.80041(3) 0.0000 0.43794(2)
Zn3 Zn 0.80124(4) 0.0000 0.32423(3)
O1 O 0.74407(19) 0.0000 0.38170(13)
O2 O 0.68989(18) 0.08457(15) 0.44813(15)
O3 O 0.7824(2) 0.05424(14) 0.48100(12)
O4 O 0.7948(2) 0.4001(2) 0.8295(2)
O5 O 0.7034(3) 0.4382(3) 0.7959(3)
O6 O 0.8959(2) 0.0000 0.34774(17)
O7 O 0.8978(2) 0.0000 0.42907(16)
O8 O 1.59241(15) -0.04037(13) 0.37688(12)
O9 O 0.7002(5) 0.0000 0.2803(5)
O10 O 0.8545(8) 0.0000 0.2520(4)
C1 C 0.7340(3) 0.0827(2) 0.4794(2)
C2 C 0.7291(3) 0.1177(2) 0.5202(2)
C3 C 0.6770(4) 0.1492(3) 0.5242(3)
H1 H 0.6419 0.1485 0.5010
C4 C 0.6737(5) 0.1830(3) 0.5618(3)
H2 H 0.6363 0.2044 0.5635
C5 C 0.7237(5) 0.1855(3) 0.5964(3)
C6 C 0.7713(5) 0.1525(3) 0.5928(3)
H3 H 0.8053 0.1524 0.6169
C7 C 0.7765(4) 0.1172(3) 0.5561(3)
H4 H 0.8117 0.0939 0.5563
C8 C 0.7236(4) 0.2204(4) 0.6310(3)
C9 C 0.7246(5) 0.2509(4) 0.6612(4)
C10 C 0.7300(5) 0.2883(4) 0.6980(4)
C11 C 0.7785(5) 0.2898(4) 0.7305(4)
H5 H 0.8101 0.2641 0.7317
C12 C 0.7854(4) 0.3278(4) 0.7632(3)
H6 H 0.8227 0.3288 0.7846
C13 C 0.7398(4) 0.3620(4) 0.7640(4)
C14 C 0.6922(5) 0.3644(4) 0.7298(5)
H7 H 0.6627 0.3914 0.7278
C15 C 0.6872(5) 0.3266(5) 0.6974(5)
H8 H 0.6524 0.3275 0.6739
C16 C 0.7458(4) 0.4065(5) 0.7958(4)
C17 C 0.9245(3) 0.0000 0.3885(3)
C18 C 1.0024(3) 0.0000 0.3888(3)
C19 C 1.0343(4) 0.0000 0.3452(4)
H9 H 1.0084 0.0000 0.3165
C20 C 1.1045(4) 0.0000 0.3427(3)
H10 H 1.1264 0.0000 0.3124
C21 C 1.1428(4) 0.0000 0.3851(3)
C22 C 1.1074(4) 0.0000 0.4272(3)
H11 H 1.1316 0.0000 0.4566
C23 C 1.0376(4) 0.0000 0.4285(3)
H12 H 1.0150 0.0000 0.4586
C24 C 1.2151(4) 0.0000 0.3844(3)
C25 C 1.2747(4) 0.0000 0.3816(3)
C26 C 1.3470(4) 0.0000 0.3792(3)
C27 C 1.3817(3) -0.0436(3) 0.3782(2)
H13 H 1.3580 -0.0734 0.3782
C28 C 1.4513(3) -0.0427(3) 0.3772(2)
H14 H 1.4754 -0.0723 0.3779
C29 C 1.4870(3) 0.0000 0.3752(2)
C30 C 1.5646(3) 0.0000 0.3764(2)
Zn1G Zn 0.68856(3) -0.05763(2) 0.381992(19)
Zn1A Zn 0.81144(3) 0.44237(2) 0.881992(19)
Zn1G_2 Zn 1.68856(3) -0.05763(2) 0.381992(19)
Zn1_2 Zn 1.68856(3) 0.05763(2) 0.381992(19)
Zn1F Zn 0.81144(3) -0.44237(2) 0.881992(19)
Zn3A Zn 0.69876(4) 0.5000 0.82423(3)
Zn3A_2 Zn 0.69876(4) -0.5000 0.82423(3)
O2G O 0.68989(18) -0.08457(15) 0.44813(15)
O3G O 0.7824(2) -0.05424(14) 0.48100(12)
O4G O 0.7948(2) -0.4001(2) 0.8295(2)
O4A O 0.7052(2) 0.0999(2) 0.3295(2)
O4F O 0.7052(2) -0.0999(2) 0.3295(2)
O5G O 0.7034(3) -0.4382(3) 0.7959(3)
O5A O 0.7966(3) 0.0618(3) 0.2959(3)
O5F O 0.7966(3) -0.0618(3) 0.2959(3)
O8G O 1.59241(15) 0.04037(13) 0.37688(12)
O8G_2 O 0.59241(15) 0.04037(13) 0.37688(12)
O8_2 O 0.59241(15) -0.04037(13) 0.37688(12)
C1G C 0.7340(3) -0.0827(2) 0.4794(2)
C2G C 0.7291(3) -0.1177(2) 0.5202(2)
C3G C 0.6770(4) -0.1492(3) 0.5242(3)
H1G H 0.6419 -0.1485 0.5010
C4G C 0.6737(5) -0.1830(3) 0.5618(3)
H2G H 0.6363 -0.2044 0.5635
C5G C 0.7237(5) -0.1855(3) 0.5964(3)
C6G C 0.7713(5) -0.1525(3) 0.5928(3)
H3G H 0.8053 -0.1524 0.6169
C7G C 0.7765(4) -0.1172(3) 0.5561(3)
H4G H 0.8117 -0.0939 0.5563
C8G C 0.7236(4) -0.2204(4) 0.6310(3)
C9G C 0.7246(5) -0.2509(4) 0.6612(4)
C10G C 0.7300(5) -0.2883(4) 0.6980(4)
C11G C 0.7785(5) -0.2898(4) 0.7305(4)
H5G H 0.8101 -0.2641 0.7317
C12G C 0.7854(4) -0.3278(4) 0.7632(3)
H6G H 0.8227 -0.3288 0.7846
C13G C 0.7398(4) -0.3620(4) 0.7640(4)
C14G C 0.6922(5) -0.3644(4) 0.7298(5)
H7G H 0.6627 -0.3914 0.7278
C15G C 0.6872(5) -0.3266(5) 0.6974(5)
H8G H 0.6524 -0.3275 0.6739
C16G C 0.7458(4) -0.4065(5) 0.7958(4)
C27G C 1.3817(3) 0.0436(3) 0.3782(2)
H13G H 1.3580 0.0734 0.3782
C28G C 1.4513(3) 0.0427(3) 0.3772(2)
H14G H 1.4754 0.0723 0.3779
loop_
_geom_bond_atom_site_label_1
_geom_bond_atom_site_label_2
_geom_bond_site_symmetry_1
_geom_bond_site_symmetry_2
Zn1 O1 1_555 1_555
Zn2 O1 1_555 1_555
Zn3 O1 1_555 1_555
O1 Zn1G 1_555 1_555
O2 Zn1 1_555 1_555
O3 Zn2 1_555 1_555
O4 C16 1_555 1_555
O5 C16 1_555 1_555
O6 Zn3 1_555 1_555
O7 Zn2 1_555 1_555
O8 C30 1_555 1_555
O9 Zn3 1_555 1_555
O10 Zn3 1_555 1_555
C1 O2 1_555 1_555
C2 C1 1_555 1_555
C3 C2 1_555 1_555
H1 C3 1_555 1_555
C4 C3 1_555 1_555
H2 C4 1_555 1_555
C5 C4 1_555 1_555
C6 C5 1_555 1_555
H3 C6 1_555 1_555
C7 C2 1_555 1_555
H4 C7 1_555 1_555
C8 C5 1_555 1_555
C9 C8 1_555 1_555
C10 C9 1_555 1_555
C11 C10 1_555 1_555
H5 C11 1_555 1_555
C12 C11 1_555 1_555
H6 C12 1_555 1_555
C13 C12 1_555 1_555
C14 C13 1_555 1_555
H7 C14 1_555 1_555
C15 C10 1_555 1_555
H8 C15 1_555 1_555
C16 C13 1_555 1_555
C17 O6 1_555 1_555
C18 C17 1_555 1_555
C19 C18 1_555 1_555
H9 C19 1_555 1_555
C20 C19 1_555 1_555
H10 C20 1_555 1_555
C21 C20 1_555 1_555
C22 C21 1_555 1_555
H11 C22 1_555 1_555
C23 C18 1_555 1_555
H12 C23 1_555 1_555
C24 C21 1_555 1_555
C25 C24 1_555 1_555
C26 C25 1_555 1_555
C27 C26 1_555 1_555
H13 C27 1_555 1_555
C28 C27 1_555 1_555
H14 C28 1_555 1_555
C29 C28 1_555 1_555
C30 C29 1_555 1_555
Zn1G O2G 1_555 1_555
Zn1A O4 1_555 1_555
Zn1G_2 O8 1_555 1_555
Zn1_2 O8G 1_555 1_555
Zn1F O4G 1_555 1_555
Zn3A O5 1_555 1_555
Zn3A_2 O5G 1_555 1_555
O2G C1G 1_555 1_555
O3G Zn2 1_555 1_555
O4G C16G 1_555 1_555
O4A Zn1 1_555 1_555
O4F Zn1G 1_555 1_555
O5G C16G 1_555 1_555
O5A Zn3 1_555 1_555
O5F Zn3 1_555 1_555
O8G C30 1_555 1_555
O8G_2 Zn1 1_555 1_555
O8_2 Zn1G 1_555 1_555
C1G O3G 1_555 1_555
C2G C1G 1_555 1_555
C3G C2G 1_555 1_555
H1G C3G 1_555 1_555
C4G C3G 1_555 1_555
H2G C4G 1_555 1_555
C5G C4G 1_555 1_555
C6G C5G 1_555 1_555
H3G C6G 1_555 1_555
C7G C2G 1_555 1_555
H4G C7G 1_555 1_555
C8G C5G 1_555 1_555
C9G C8G 1_555 1_555
C10G C9G 1_555 1_555
C11G C10G 1_555 1_555
H5G C11G 1_555 1_555
C12G C11G 1_555 1_555
H6G C12G 1_555 1_555
C13G C12G 1_555 1_555
C14G C13G 1_555 1_555
H7G C14G 1_555 1_555
C15G C10G 1_555 1_555
H8G C15G 1_555 1_555
C16G C13G 1_555 1_555
C27G C26 1_555 1_555
H13G C27G 1_555 1_555
C28G C29 1_555 1_555
H14G C28G 1_555 1_555
O3 C1 1_555 1_555
O7 C17 1_555 1_555
C6 C7 1_555 1_555
C14 C15 1_555 1_555
C22 C23 1_555 1_555
C6G C7G 1_555 1_555
C14G C15G 1_555 1_555
C27G C28G 1_555 1_555

#END
