
#######################################################################
#
#                 Cambridge Crystallographic Data Centre
#                                CCDC 
#
#######################################################################
#
# If this CIF has been generated from an entry in the Cambridge 
# Structural Database, then it will include bibliographic, chemical, 
# crystal, experimental, refinement or atomic coordinate data resulting 
# from the CCDC's data processing and validation procedures.
#
#######################################################################

data_FAJYAS
_symmetry_cell_setting           monoclinic
_symmetry_space_group_name_H-M   'P 21/n'
_symmetry_Int_Tables_number      14
_space_group_name_Hall           '-P 2yn'
loop_
_symmetry_equiv_pos_site_id
_symmetry_equiv_pos_as_xyz
1 x,y,z
2 1/2-x,1/2+y,1/2-z
3 -x,-y,-z
4 1/2+x,1/2-y,1/2+z
_cell_length_a                   13.8773(6)
_cell_length_b                   21.6080(8)
_cell_length_c                   34.9221(14)
_cell_angle_alpha                90
_cell_angle_beta                 96.2360(10)
_cell_angle_gamma                90
_cell_volume                     10409.8
loop_
_atom_site_label
_atom_site_type_symbol
_atom_site_fract_x
_atom_site_fract_y
_atom_site_fract_z
Co1 Co 1.52164(6) 0.49346(3) -0.851347(18)
Co2 Co 1.70022(5) 0.41584(3) -0.812188(17)
Co3 Co 1.72829(6) -0.43149(3) -0.837745(19)
O1 O 1.3987(2) 0.07344(12) -1.08309(7)
O2 O 1.4988(2) 0.06932(13) -0.90969(8)
O3 O 1.8516(2) 0.08870(14) -0.92679(9)
O4 O 1.6629(3) 0.48847(12) -0.85052(8)
N1 N 1.2970(2) -0.00787(14) -1.09910(9)
H1 H 1.2574 -0.0339 -1.0893
C1 C 1.3744(3) -0.07031(17) -0.98172(10)
O5 O 1.9997(2) 0.08011(15) -1.09250(8)
O6 O 1.3141(3) -0.17217(14) -0.98844(9)
N2 N 1.4379(3) -0.15436(14) -0.94160(9)
H2 H 1.4772 -0.1251 -0.9318
O7 O 1.2428(3) -0.06356(15) -1.27921(9)
O8 O 1.4756(3) 0.41388(16) -0.87391(11)
C2 C 1.3865(3) 0.05263(18) -1.00456(10)
H3 H 1.3916 0.0945 -1.0124
C3 C 1.3551(3) 0.02774(17) -1.07350(10)
O9 O 1.9753(3) 0.00384(13) -1.30032(8)
O10 O 1.7917(2) -0.14925(13) -1.02311(9)
O11 O 1.3048(2) 0.03217(15) -1.27952(8)
C4 C 1.3960(3) -0.02445(17) -0.95481(11)
H4 H 1.4070 -0.0353 -0.9283
O12 O 1.4685(3) -0.43425(15) -0.88114(10)
C5 C 1.3637(3) 0.00710(16) -1.03204(11)
C6 C 1.3577(3) -0.05332(16) -1.02099(10)
H5 H 1.3420 -0.0843 -1.0399
N3 N 1.4012(3) 0.14043(16) -0.94064(10)
H6 H 1.3526 0.1447 -0.9589
N4 N 1.8578(3) -0.13231(17) -0.96176(11)
H7 H 1.8950 -0.1066 -0.9473
C7 C 1.4019(3) 0.03746(18) -0.96544(10)
N5 N 1.8839(3) 0.16485(17) -0.96717(11)
H8 H 1.9063 0.1727 -0.9893
N6 N 1.8979(3) 0.00898(18) -1.12326(11)
H9 H 1.8500 -0.0168 -1.1206
C8 C 1.9021(3) 0.07184(19) -1.02681(11)
H10 H 1.9180 0.1131 -1.0332
C9 C 1.4376(3) 0.08354(17) -0.93559(11)
C10 C 1.8721(3) 0.1051(2) -0.95831(12)
O13 O 1.5960(4) 0.36065(17) -0.84057(12)
C11 C 1.5321(4) -0.2203(2) -0.89710(13)
H11 H 1.5746 -0.1864 -0.8910
O14 O 1.5812(3) -0.39134(16) -0.84034(9)
C12 C 1.8617(3) -0.0028(2) -0.98034(13)
H12 H 1.8511 -0.0123 -0.9546
C13 C 1.8806(3) 0.0572(2) -0.98963(12)
C14 C 1.8331(3) -0.1141(2) -0.99865(12)
C15 C 1.2947(3) -0.00673(18) -1.13916(11)
C16 C 1.8575(3) -0.0504(2) -1.00736(12)
O15 O 1.7391(3) 0.3435(2) -0.77366(11)
C17 C 2.0253(4) 0.0275(2) -1.27219(14)
C18 C 1.4319(3) 0.19506(19) -0.91989(13)
C19 C 1.4519(3) -0.21283(19) -0.92455(12)
C20 C 1.2853(4) -0.0139(2) -1.21951(12)
C21 C 1.8998(3) 0.0249(2) -1.05438(12)
C22 C 1.3709(3) -0.13649(18) -0.97158(11)
O16 O 2.1049(3) 0.05471(18) -1.27401(10)
C23 C 1.8635(4) 0.2173(2) -0.94417(13)
C24 C 1.5146(4) -0.3874(2) -0.86798(13)
O17 O 1.7344(3) -0.39380(17) -0.89701(10)
O18 O 1.7811(3) -0.34462(18) -0.84430(11)
C25 C 1.2784(4) -0.0161(2) -1.26275(14)
C26 C 1.5502(4) -0.2756(2) -0.87894(14)
H13 H 1.6048 -0.2791 -0.8602
C27 C 1.9912(4) 0.0223(2) -1.23294(14)
C28 C 1.3201(4) 0.0435(2) -1.16069(12)
H14 H 1.3400 0.0810 -1.1480
C29 C 1.3170(4) 0.0398(2) -1.19937(13)
H15 H 1.3368 0.0745 -1.2133
C30 C 1.8749(3) -0.0352(2) -1.04538(12)
H16 H 1.8696 -0.0661 -1.0648
C31 C 1.4091(4) -0.3180(2) -0.91363(16)
H17 H 1.3649 -0.3513 -0.9187
O19 O 1.7974(4) 0.37608(19) -0.84666(10)
C32 C 1.4884(4) 0.3045(2) -0.88302(13)
C33 C 1.5198(5) 0.3655(3) -0.86352(15)
C34 C 1.9363(3) 0.0407(2) -1.09188(12)
C35 C 1.8319(3) -0.1869(2) -0.94357(13)
C36 C 1.9306(3) 0.0151(2) -1.16013(13)
C37 C 1.2622(4) -0.0605(2) -1.15874(12)
H18 H 1.2436 -0.0952 -1.1446
C38 C 1.9000(4) 0.0022(2) -1.22800(15)
H19 H 1.8571 -0.0099 -1.2498
C39 C 1.4918(4) -0.3265(2) -0.88697(13)
O20 O 1.7399(5) 0.4198(2) -0.90359(13)
C40 C 1.2569(4) -0.0635(2) -1.19872(14)
H20 H 1.2336 -0.1001 -1.2117
C41 C 1.8151(5) 0.3220(3) -0.90431(15)
C42 C 1.7910(4) -0.2914(3) -0.90313(15)
C43 C 1.4007(4) 0.3004(2) -0.90434(16)
H21 H 1.3595 0.3356 -0.9068
C44 C 1.8364(5) 0.2708(2) -0.96353(16)
H22 H 1.8347 0.2724 -0.9908
C45 C 1.8601(5) 0.2160(3) -0.90490(15)
H23 H 1.8738 0.1785 -0.8912
C46 C 1.3702(4) 0.2456(2) -0.92252(16)
H24 H 1.3078 0.2428 -0.9366
C47 C 1.8372(5) 0.2682(2) -0.88542(15)
H25 H 1.8369 0.2667 -0.8583
C48 C 1.8281(6) -0.2393(3) -0.88533(17)
H26 H 1.8396 -0.2385 -0.8580
C49 C 1.5218(4) 0.1989(2) -0.89876(16)
H27 H 1.5647 0.1645 -0.8967
C50 C 1.5472(4) 0.2540(2) -0.88080(16)
H28 H 1.6089 0.2569 -0.8661
C51 C 1.3911(4) -0.2628(2) -0.93235(15)
H29 H 1.3361 -0.2588 -0.9509
C52 C 1.7687(5) -0.3467(3) -0.88066(16)
C53 C 1.8489(6) -0.1891(3) -0.90550(17)
H30 H 1.8766 -0.1540 -0.8921
C54 C 1.7965(6) -0.2374(3) -0.96213(18)
H31 H 1.7846 -0.2372 -0.9894
C55 C 1.8118(5) 0.3223(3) -0.94339(16)
H32 H 1.7920 0.3589 -0.9571
C56 C 1.8693(4) -0.0007(3) -1.19190(15)
H33 H 1.8051 -0.0139 -1.1890
C57 C 2.0226(4) 0.0336(3) -1.16429(15)
H34 H 2.0663 0.0438 -1.1423
C58 C 1.7818(7) 0.3770(3) -0.88233(19)
C59 C 1.7771(6) -0.2903(3) -0.94177(17)
H35 H 1.7537 -0.3263 -0.9554
C60 C 2.0521(4) 0.0375(3) -1.20128(17)
H36 H 2.1159 0.0511 -1.2043
N7 N 1.7035(8) 0.2530(3) -0.7437(2)
C61 C 1.6956(11) 0.3000(4) -0.7702(3)
C62 C 1.6287(12) 0.2030(5) -0.7404(3)
H37 H 1.5719 0.2110 -0.7589
H38 H 1.6092 0.2029 -0.7142
H39 H 1.6565 0.1626 -0.7458
C63 C 1.7896(11) 0.2553(9) -0.7203(5)
H40 H 1.8282 0.2903 -0.7278
H41 H 1.8256 0.2168 -0.7228
H42 H 1.7765 0.2605 -0.6934
O21 O 1.8714(4) -0.4683(3) -0.84475(16)
Co1_2 Co 1.52164(6) -0.50654(3) -0.851347(18)
Co1C Co 2.02164(6) 0.00654(3) -1.351347(18)
Co2C Co 1.20022(5) 0.08416(3) -1.312188(17)
Co2C_2 Co 2.20022(5) 0.08416(3) -1.312188(17)
Co3_2 Co 1.72829(6) 0.56851(3) -0.837745(19)
Co3C Co 1.22829(6) -0.06851(3) -1.337745(19)
O4_2 O 1.6629(3) -0.51153(12) -0.85052(8)
O7C O 1.7428(3) -0.43644(15) -0.77921(9)
O9C O 1.4753(3) 0.49616(13) -0.80032(8)
O11C O 1.8048(2) 0.46783(15) -0.77952(8)
O12_2 O 1.4685(3) 0.56575(15) -0.88114(10)
O16C O 1.6049(3) 0.44529(18) -0.77401(10)
loop_
_geom_bond_atom_site_label_1
_geom_bond_atom_site_label_2
_geom_bond_site_symmetry_1
_geom_bond_site_symmetry_2
Co1 O4 1_555 1_555
Co2 O4 1_555 1_555
Co3 O14 1_555 1_555
O1 C3 1_555 1_555
O2 C9 1_555 1_555
O3 C10 1_555 1_555
O4 Co3_2 1_555 1_555
N1 H1 1_555 1_555
C1 C4 1_555 1_555
O5 C34 1_555 1_555
O6 C22 1_555 1_555
N2 H2 1_555 1_555
O7 C25 1_555 1_555
O8 Co1 1_555 1_555
C2 H3 1_555 1_555
C3 N1 1_555 1_555
O9 C17 1_555 1_555
O10 C14 1_555 1_555
O11 C25 1_555 1_555
C4 H4 1_555 1_555
O12 C24 1_555 1_555
C5 C2 1_555 1_555
C6 C1 1_555 1_555
H5 C6 1_555 1_555
N3 H6 1_555 1_555
N4 H7 1_555 1_555
C7 C2 1_555 1_555
N5 H8 1_555 1_555
N6 H9 1_555 1_555
C8 H10 1_555 1_555
C9 N3 1_555 1_555
C10 N5 1_555 1_555
O13 Co2 1_555 1_555
C11 H11 1_555 1_555
O14 C24 1_555 1_555
C12 H12 1_555 1_555
C13 C8 1_555 1_555
C14 N4 1_555 1_555
C15 N1 1_555 1_555
C16 C12 1_555 1_555
O15 Co2 1_555 1_555
C17 O16 1_555 1_555
C18 N3 1_555 1_555
C19 N2 1_555 1_555
C20 C25 1_555 1_555
C21 C8 1_555 1_555
C22 C1 1_555 1_555
O16 Co2C_2 1_555 1_555
C23 N5 1_555 1_555
C24 C39 1_555 1_555
O17 Co3 1_555 1_555
O18 Co3 1_555 1_555
C26 C11 1_555 1_555
H13 C26 1_555 1_555
C27 C17 1_555 1_555
C28 C15 1_555 1_555
H14 C28 1_555 1_555
C29 C20 1_555 1_555
H15 C29 1_555 1_555
C30 C16 1_555 1_555
H16 C30 1_555 1_555
C31 H17 1_555 1_555
O19 Co2 1_555 1_555
C32 C33 1_555 1_555
C33 O8 1_555 1_555
C34 N6 1_555 1_555
C35 N4 1_555 1_555
C36 N6 1_555 1_555
C37 C15 1_555 1_555
H18 C37 1_555 1_555
C38 C27 1_555 1_555
H19 C38 1_555 1_555
C39 C26 1_555 1_555
O20 C58 1_555 1_555
C40 C20 1_555 1_555
H20 C40 1_555 1_555
C41 C47 1_555 1_555
C42 C48 1_555 1_555
C43 C32 1_555 1_555
H21 C43 1_555 1_555
C44 C23 1_555 1_555
H22 C44 1_555 1_555
C45 C23 1_555 1_555
H23 C45 1_555 1_555
C46 C18 1_555 1_555
H24 C46 1_555 1_555
C47 C45 1_555 1_555
H25 C47 1_555 1_555
C48 H26 1_555 1_555
C49 C18 1_555 1_555
H27 C49 1_555 1_555
C50 C32 1_555 1_555
H28 C50 1_555 1_555
C51 C19 1_555 1_555
H29 C51 1_555 1_555
C52 O17 1_555 1_555
C53 C35 1_555 1_555
H30 C53 1_555 1_555
C54 C35 1_555 1_555
H31 C54 1_555 1_555
C55 C41 1_555 1_555
H32 C55 1_555 1_555
C56 C36 1_555 1_555
H33 C56 1_555 1_555
C57 C36 1_555 1_555
H34 C57 1_555 1_555
C58 O19 1_555 1_555
C59 C42 1_555 1_555
H35 C59 1_555 1_555
C60 C27 1_555 1_555
H36 C60 1_555 1_555
N7 C61 1_555 1_555
C61 O15 1_555 1_555
C62 N7 1_555 1_555
H37 C62 1_555 1_555
H38 C62 1_555 1_555
H39 C62 1_555 1_555
C63 N7 1_555 1_555
H40 C63 1_555 1_555
H41 C63 1_555 1_555
H42 C63 1_555 1_555
O21 Co3 1_555 1_555
Co1_2 O12 1_555 1_555
Co1C O9 1_555 1_555
Co2C O11 1_555 1_555
Co3C O7 1_555 1_555
O4_2 Co3 1_555 1_555
O7C Co3 1_555 1_555
O9C Co1 1_555 1_555
O11C Co2 1_555 1_555
O12_2 Co1 1_555 1_555
O16C Co2 1_555 1_555
N2 C22 1_555 1_555
C3 C5 1_555 1_555
C4 C7 1_555 1_555
C5 C6 1_555 1_555
C7 C9 1_555 1_555
C10 C13 1_555 1_555
O13 C33 1_555 1_555
C11 C19 1_555 1_555
C12 C13 1_555 1_555
C14 C16 1_555 1_555
C21 C30 1_555 1_555
C21 C34 1_555 1_555
O18 C52 1_555 1_555
C28 C29 1_555 1_555
C31 C39 1_555 1_555
C31 C51 1_555 1_555
C37 C40 1_555 1_555
C38 C56 1_555 1_555
C41 C58 1_555 1_555
C42 C52 1_555 1_555
C43 C46 1_555 1_555
C44 C55 1_555 1_555
C48 C53 1_555 1_555
C49 C50 1_555 1_555
C54 C59 1_555 1_555
C57 C60 1_555 1_555
Co1_2 O4_2 1_555 1_555

#END
