
#######################################################################
#
#                 Cambridge Crystallographic Data Centre
#                                CCDC 
#
#######################################################################
#
# If this CIF has been generated from an entry in the Cambridge 
# Structural Database, then it will include bibliographic, chemical, 
# crystal, experimental, refinement or atomic coordinate data resulting 
# from the CCDC's data processing and validation procedures.
#
#######################################################################

data_FALHEH
_symmetry_cell_setting           monoclinic
_symmetry_space_group_name_H-M   'P 21/c'
_symmetry_Int_Tables_number      14
_space_group_name_Hall           '-P 2ybc'
loop_
_symmetry_equiv_pos_site_id
_symmetry_equiv_pos_as_xyz
1 x,y,z
2 -x,1/2+y,1/2-z
3 -x,-y,-z
4 x,1/2-y,1/2+z
_cell_length_a                   17.952(2)
_cell_length_b                   7.2962(8)
_cell_length_c                   20.787(2)
_cell_angle_alpha                90
_cell_angle_beta                 112.323(2)
_cell_angle_gamma                90
_cell_volume                     2518.66
loop_
_atom_site_label
_atom_site_type_symbol
_atom_site_fract_x
_atom_site_fract_y
_atom_site_fract_z
Co1 Co -0.24261(3) -1.58871(9) -0.06825(3)
Co2 Co -0.5000 -1.5000 0.0000
O1 O -0.55760(17) -1.2410(4) -0.02412(15)
H1 H -0.542(3) -1.170(6) -0.0492(18)
H2 H -0.548(3) -1.192(5) 0.0151(11)
O2 O -0.2106(2) -1.3207(5) -0.08120(17)
H3 H -0.244(3) -1.254(6) -0.112(2)
H4 H -0.185(3) -1.256(5) -0.0455(16)
O3 O -0.2661(2) -1.8566(5) -0.04720(18)
H5 H -0.3076(16) -1.912(6) -0.075(3)
H6 H -0.2259(15) -1.928(5) -0.035(2)
O4 O -0.21383(17) -1.6946(5) -0.25524(16)
O5 O -0.18708(15) -1.6673(5) -0.14121(14)
O6 O -0.59149(17) -1.4671(5) -0.35946(15)
O7 O -0.50478(18) -1.4885(4) -0.41156(14)
O8 O -0.34183(16) -1.5182(5) -0.04377(13)
O9 O -0.47441(14) -1.4673(4) -0.08971(13)
N1 N -0.33404(17) -1.5753(5) -0.16322(15)
N2 N -0.89619(18) -1.8650(5) -0.15727(17)
N3 N -0.97033(18) -1.9006(5) -0.20967(17)
N4 N -0.88595(17) -1.8128(5) -0.25663(16)
N5 N -0.8503(2) -1.7642(7) -0.3036(2)
H7 H -0.852(4) -1.863(6) -0.330(3)
H8 H -0.879(3) -1.669(6) -0.329(3)
N6 N -0.61006(17) -1.6285(5) -0.06838(15)
N7 N -1.15104(18) -1.9114(5) -0.46833(16)
C1 C -0.3200(2) -1.6046(6) -0.22028(19)
C2 C -0.3798(2) -1.5778(6) -0.2852(2)
H9 H -0.3692 -1.5942 -0.3253
C3 C -0.4559(2) -1.5259(6) -0.28938(19)
C4 C -0.4694(2) -1.5012(6) -0.22839(19)
H10 H -0.5202 -1.4691 -0.2299
C5 C -0.4060(2) -1.5251(6) -0.16552(19)
C6 C -0.2331(2) -1.6612(6) -0.2059(2)
C7 C -0.5232(2) -1.4922(6) -0.3596(2)
C8 C -0.4084(2) -1.5014(6) -0.09396(19)
C9 C -1.0762(2) -1.9680(7) -0.4574(2)
H11 H -1.0660 -2.0160 -0.4947
C10 C -1.1646(2) -1.8524(6) -0.4132(2)
H12 H -1.2169 -1.8192 -0.4194
C11 C -1.1059(2) -1.8378(6) -0.3477(2)
H13 H -1.1180 -1.7940 -0.3108
C12 C -1.0279(2) -1.8898(6) -0.3378(2)
C13 C -1.0137(2) -1.9584(7) -0.3934(2)
H14 H -0.9624 -1.9982 -0.3880
C14 C -0.9629(2) -1.8688(6) -0.2682(2)
C15 C -0.8473(2) -1.8114(6) -0.18673(19)
C16 C -0.7634(2) -1.7530(6) -0.1486(2)
C17 C -0.7160(2) -1.8468(6) -0.0893(2)
H15 H -0.7344 -1.9534 -0.0758
C18 C -0.6401(2) -1.7771(6) -0.0507(2)
H16 H -0.6087 -1.8380 -0.0101
C19 C -0.6553(2) -1.5435(6) -0.1266(2)
H17 H -0.6339 -1.4418 -0.1404
C20 C -0.7326(2) -1.5982(6) -0.1678(2)
H18 H -0.7631 -1.5324 -0.2074
Co1B Co -0.75739(3) -1.41129(9) 0.06825(3)
Co1C Co -1.24261(3) -1.91129(9) -0.56825(3)
Co1A Co 0.24261(3) -1.08871(9) 0.56825(3)
O1B O -0.44240(17) -1.7590(4) 0.02412(15)
H1B H -0.458(3) -1.830(6) 0.0492(18)
H2B H -0.452(3) -1.808(5) -0.0151(11)
O2B O -0.7894(2) -1.6793(5) 0.08120(17)
H3B H -0.756(3) -1.746(6) 0.112(2)
H4B H -0.815(3) -1.744(5) 0.0455(16)
O3B O -0.7339(2) -1.1434(5) 0.04720(18)
H5B H -0.6924(16) -1.088(6) 0.075(3)
H6B H -0.7741(15) -1.072(5) 0.035(2)
O4B O -0.78617(17) -1.3054(5) 0.25524(16)
O5B O -0.81292(15) -1.3327(5) 0.14121(14)
O6B O -0.40851(17) -1.5329(5) 0.35946(15)
O7B O -0.49522(18) -1.5115(4) 0.41156(14)
O8B O -0.65817(16) -1.4818(5) 0.04377(13)
O9B O -0.52559(14) -1.5327(4) 0.08971(13)
N1B N -0.66596(17) -1.4247(5) 0.16322(15)
N2B N -0.10381(18) -1.1350(5) 0.15727(17)
N3B N -0.02967(18) -1.0994(5) 0.20967(17)
N4B N -0.11405(17) -1.1872(5) 0.25663(16)
N5B N -0.1497(2) -1.2358(7) 0.3036(2)
H7B H -0.148(4) -1.137(6) 0.330(3)
H8B H -0.121(3) -1.331(6) 0.329(3)
N6B N -0.38994(17) -1.3715(5) 0.06838(15)
N7B N 0.15104(18) -1.0886(5) 0.46833(16)
N7C N -0.15104(18) -1.5886(5) 0.03167(16)
N7A N -0.84896(18) -1.4114(5) -0.03167(16)
C1B C -0.6800(2) -1.3954(6) 0.22028(19)
C2B C -0.6202(2) -1.4222(6) 0.2852(2)
H9B H -0.6308 -1.4058 0.3253
C3B C -0.5441(2) -1.4741(6) 0.28938(19)
C4B C -0.5306(2) -1.4988(6) 0.22839(19)
H10B H -0.4798 -1.5309 0.2299
C5B C -0.5940(2) -1.4749(6) 0.16552(19)
C6B C -0.7669(2) -1.3388(6) 0.2059(2)
C7B C -0.4768(2) -1.5078(6) 0.3596(2)
C8B C -0.5916(2) -1.4986(6) 0.09396(19)
C9B C 0.0762(2) -1.0320(7) 0.4574(2)
H11B H 0.0660 -0.9840 0.4947
C10B C 0.1646(2) -1.1476(6) 0.4132(2)
H12B H 0.2169 -1.1808 0.4194
C11B C 0.1059(2) -1.1622(6) 0.3477(2)
H13B H 0.1180 -1.2060 0.3108
C12B C 0.0279(2) -1.1102(6) 0.3378(2)
C13B C 0.0137(2) -1.0416(7) 0.3934(2)
H14B H -0.0376 -1.0018 0.3880
C14B C -0.0371(2) -1.1312(6) 0.2682(2)
C15B C -0.1527(2) -1.1886(6) 0.18673(19)
C16B C -0.2366(2) -1.2470(6) 0.1486(2)
C17B C -0.2840(2) -1.1532(6) 0.0893(2)
H15B H -0.2656 -1.0466 0.0758
C18B C -0.3599(2) -1.2229(6) 0.0507(2)
H16B H -0.3913 -1.1620 0.0101
C19B C -0.3447(2) -1.4565(6) 0.1266(2)
H17B H -0.3661 -1.5582 0.1404
C20B C -0.2674(2) -1.4018(6) 0.1678(2)
H18B H -0.2369 -1.4676 0.2074
O10 O -0.8683(3) -1.9243(6) -0.0184(2)
H19 H -0.879(3) -1.918(8) -0.0620(8)
H20 H -0.9084(19) -1.964(8) -0.011(2)
O11 O -0.9333(3) -1.0689(7) 0.1235(3)
H21 H -0.906(4) -1.165(5) 0.125(3)
H22 H -0.955(4) -1.077(9) 0.154(3)
O12 O -0.3114(3) -1.3642(8) 0.3094(2)
H23 H -0.351(3) -1.416(9) 0.315(3)
H24 H -0.316(3) -1.372(9) 0.2676(12)
O13? O -0.9962(12) -1.098(2) -0.0038(10)
loop_
_geom_bond_atom_site_label_1
_geom_bond_atom_site_label_2
_geom_bond_site_symmetry_1
_geom_bond_site_symmetry_2
Co1 O2 1_555 1_555
Co2 O1 1_555 1_555
O1 H1 1_555 1_555
H2 O1 1_555 1_555
O2 H3 1_555 1_555
H4 O2 1_555 1_555
O3 Co1 1_555 1_555
H5 O3 1_555 1_555
H6 O3 1_555 1_555
O4 C6 1_555 1_555
O5 Co1 1_555 1_555
O6 C7 1_555 1_555
O7 C7 1_555 1_555
O8 Co1 1_555 1_555
O9 Co2 1_555 1_555
N1 Co1 1_555 1_555
N2 N3 1_555 1_555
N3 C14 1_555 1_555
N4 N5 1_555 1_555
N5 H7 1_555 1_555
H8 N5 1_555 1_555
N6 Co2 1_555 1_555
N7 C9 1_555 1_555
C1 N1 1_555 1_555
C2 C1 1_555 1_555
H9 C2 1_555 1_555
C3 C2 1_555 1_555
C4 C3 1_555 1_555
H10 C4 1_555 1_555
C5 N1 1_555 1_555
C6 O5 1_555 1_555
C7 C3 1_555 1_555
C8 O8 1_555 1_555
C9 H11 1_555 1_555
C10 N7 1_555 1_555
H12 C10 1_555 1_555
C11 C10 1_555 1_555
H13 C11 1_555 1_555
C12 C11 1_555 1_555
C13 C9 1_555 1_555
H14 C13 1_555 1_555
C14 N4 1_555 1_555
C15 N2 1_555 1_555
C16 C15 1_555 1_555
C17 C16 1_555 1_555
H15 C17 1_555 1_555
C18 N6 1_555 1_555
H16 C18 1_555 1_555
C19 N6 1_555 1_555
H17 C19 1_555 1_555
C20 C16 1_555 1_555
H18 C20 1_555 1_555
O10 H19 1_555 1_555
H20 O10 1_555 1_555
O11 H21 1_555 1_555
H22 O11 1_555 1_555
O12 H23 1_555 1_555
H24 O12 1_555 1_555
Co1B O2B 1_555 1_555
Co1C N7 1_555 1_555
Co1A N7B 1_555 1_555
O1B Co2 1_555 1_555
H1B O1B 1_555 1_555
H2B O1B 1_555 1_555
O2B H3B 1_555 1_555
H4B O2B 1_555 1_555
O3B Co1B 1_555 1_555
H5B O3B 1_555 1_555
H6B O3B 1_555 1_555
O4B C6B 1_555 1_555
O5B Co1B 1_555 1_555
O6B C7B 1_555 1_555
O7B C7B 1_555 1_555
O8B Co1B 1_555 1_555
O9B Co2 1_555 1_555
N1B Co1B 1_555 1_555
N2B N3B 1_555 1_555
N3B C14B 1_555 1_555
N4B N5B 1_555 1_555
N5B H7B 1_555 1_555
H8B N5B 1_555 1_555
N6B Co2 1_555 1_555
N7B C9B 1_555 1_555
N7C Co1 1_555 1_555
N7A Co1B 1_555 1_555
C1B N1B 1_555 1_555
C2B C1B 1_555 1_555
H9B C2B 1_555 1_555
C3B C2B 1_555 1_555
C4B C3B 1_555 1_555
H10B C4B 1_555 1_555
C5B N1B 1_555 1_555
C6B O5B 1_555 1_555
C7B C3B 1_555 1_555
C8B O8B 1_555 1_555
C9B H11B 1_555 1_555
C10B N7B 1_555 1_555
H12B C10B 1_555 1_555
C11B C10B 1_555 1_555
H13B C11B 1_555 1_555
C12B C11B 1_555 1_555
C13B C9B 1_555 1_555
H14B C13B 1_555 1_555
C14B N4B 1_555 1_555
C15B N2B 1_555 1_555
C16B C15B 1_555 1_555
C17B C16B 1_555 1_555
H15B C17B 1_555 1_555
C18B N6B 1_555 1_555
H16B C18B 1_555 1_555
C19B N6B 1_555 1_555
H17B C19B 1_555 1_555
C20B C16B 1_555 1_555
H18B C20B 1_555 1_555
O9 C8 1_555 1_555
N4 C15 1_555 1_555
C1 C6 1_555 1_555
C4 C5 1_555 1_555
C5 C8 1_555 1_555
C12 C13 1_555 1_555
C12 C14 1_555 1_555
C17 C18 1_555 1_555
C19 C20 1_555 1_555
O9B C8B 1_555 1_555
N4B C15B 1_555 1_555
C1B C6B 1_555 1_555
C4B C5B 1_555 1_555
C5B C8B 1_555 1_555
C12B C13B 1_555 1_555
C12B C14B 1_555 1_555
C17B C18B 1_555 1_555
C19B C20B 1_555 1_555

#END
