
#######################################################################
#
#                 Cambridge Crystallographic Data Centre
#                                CCDC 
#
#######################################################################
#
# If this CIF has been generated from an entry in the Cambridge 
# Structural Database, then it will include bibliographic, chemical, 
# crystal, experimental, refinement or atomic coordinate data resulting 
# from the CCDC's data processing and validation procedures.
#
#######################################################################

data_FAPTOH
_symmetry_cell_setting           orthorhombic
_symmetry_space_group_name_H-M   'P b a m'
_symmetry_Int_Tables_number      55
_space_group_name_Hall           '-P 2 2ab'
loop_
_symmetry_equiv_pos_site_id
_symmetry_equiv_pos_as_xyz
1 x,y,z
2 -x,-y,z
3 1/2+x,1/2-y,-z
4 1/2-x,1/2+y,-z
5 -x,-y,-z
6 x,y,-z
7 1/2-x,1/2+y,z
8 1/2+x,1/2-y,z
_cell_length_a                   14.296(4)
_cell_length_b                   17.317(5)
_cell_length_c                   11.714(6)
_cell_angle_alpha                90
_cell_angle_beta                 90
_cell_angle_gamma                90
_cell_volume                     2899.96
loop_
_atom_site_label
_atom_site_type_symbol
_atom_site_fract_x
_atom_site_fract_y
_atom_site_fract_z
O1 O 0.5032(3) 0.0902(2) 1.0000
O2 O 0.6523(4) 0.1140(3) 1.0000
C1 C 0.5692(5) 0.1361(3) 1.0000
Cd1 Cd 0.36545(3) 0.01744(2) 1.0000
C2 C 0.5519(5) 0.2214(4) 1.0000
C3 C 0.6140(5) 0.3527(4) 1.0000
O3 O 0.7774(4) 0.3738(3) 1.0000
C4 C 0.4498(6) 0.3314(5) 1.0000
C5 C 0.6968(5) 0.4035(4) 1.0000
N1 N 0.3714(3) 0.0195(2) 1.1980(5)
C6 C 0.4614(6) 0.2519(4) 1.0000
H1 H 0.4097 0.2193 1.0000
C7 C 0.3880(7) 0.0800(6) 1.2549(9)
H2 H 0.4031 0.1247 1.2148
C8 C 0.5233(7) 0.3801(5) 1.0000
H3 H 0.5127 0.4331 1.0000
C9 C 0.6283(4) 0.2724(4) 1.0000
H4 H 0.6889 0.2529 1.0000
C10 C 0.3583(7) -0.0416(7) 1.3748(10)
H5 H 0.3508 -0.0885 1.4124
C11 C 0.3579(7) -0.0400(8) 1.2574(11)
H6 H 0.3468 -0.0862 1.2192
C12 C 0.3691(4) 0.0223(4) 1.4351(6)
C13 C 0.3850(7) 0.0842(6) 1.3733(8)
H7 H 0.3944 0.1315 1.4092
O4 O 0.6882(5) 0.4746(3) 1.0000
N2 N 0.3592(9) 0.3602(12) 1.0000
H8 H 0.3498 0.4092 1.0000
H9 H 0.3124 0.3290 1.0000
O2A O 0.3477(4) -0.1140(3) 1.0000
Cd1A Cd 0.63455(3) -0.01744(2) 1.0000
Cd1B Cd 0.86545(3) 0.48256(2) 1.0000
Cd1_2 Cd 0.36545(3) 0.01744(2) 2.0000
O3B O 0.2774(4) 0.1262(3) 1.0000
N1E N 0.3714(3) 0.0195(2) 1.8020(5)
N1E_2 N 0.3714(3) 0.0195(2) 0.8020(5)
C7E C 0.3880(7) 0.0800(6) 1.7451(9)
H2E H 0.4031 0.1247 1.7852
C10E C 0.3583(7) -0.0416(7) 1.6252(10)
H5E H 0.3508 -0.0885 1.5876
C11E C 0.3579(7) -0.0400(8) 1.7426(11)
H6E H 0.3468 -0.0862 1.7808
C12E C 0.3691(4) 0.0223(4) 1.5649(6)
C13E C 0.3850(7) 0.0842(6) 1.6267(8)
H7E H 0.3944 0.1315 1.5908
O4B O 0.1882(5) 0.0254(3) 1.0000
loop_
_geom_bond_atom_site_label_1
_geom_bond_atom_site_label_2
_geom_bond_site_symmetry_1
_geom_bond_site_symmetry_2
O1 C1 1_555 1_555
O2 C1 1_555 1_555
C1 C2 1_555 1_555
Cd1 O1 1_555 1_555
C2 C6 1_555 1_555
C3 C5 1_555 1_555
O3 C5 1_555 1_555
C4 C6 1_555 1_555
C5 O4 1_555 1_555
N1 Cd1 1_555 1_555
C6 H1 1_555 1_555
C7 N1 1_555 1_555
H2 C7 1_555 1_555
C8 C3 1_555 1_555
H3 C8 1_555 1_555
C9 C2 1_555 1_555
H4 C9 1_555 1_555
C10 H5 1_555 1_555
C11 N1 1_555 1_555
H6 C11 1_555 1_555
C12 C10 1_555 1_555
C13 C7 1_555 1_555
H7 C13 1_555 1_555
O4 Cd1B 1_555 1_555
N2 C4 1_555 1_555
H8 N2 1_555 1_555
H9 N2 1_555 1_555
O2A Cd1 1_555 1_555
Cd1A O2 1_555 1_555
Cd1B O3 1_555 1_555
Cd1_2 N1E 1_555 1_555
O3B Cd1 1_555 1_555
N1E C7E 1_555 1_555
N1E_2 Cd1 1_555 1_555
C7E H2E 1_555 1_555
C10E H5E 1_555 1_555
C11E N1E 1_555 1_555
H6E C11E 1_555 1_555
C12E C12 1_555 1_555
C13E C7E 1_555 1_555
H7E C13E 1_555 1_555
O4B Cd1 1_555 1_555
C3 C9 1_555 1_555
C4 C8 1_555 1_555
C10 C11 1_555 1_555
C12 C13 1_555 1_555
C10E C11E 1_555 1_555
C10E C12E 1_555 1_555
C12E C13E 1_555 1_555

#END
