
#######################################################################
#
#                 Cambridge Crystallographic Data Centre
#                                CCDC 
#
#######################################################################
#
# If this CIF has been generated from an entry in the Cambridge 
# Structural Database, then it will include bibliographic, chemical, 
# crystal, experimental, refinement or atomic coordinate data resulting 
# from the CCDC's data processing and validation procedures.
#
#######################################################################

data_FAPVAV
_symmetry_cell_setting           orthorhombic
_symmetry_space_group_name_H-M   'P b a m'
_symmetry_Int_Tables_number      55
_space_group_name_Hall           '-P 2 2ab'
loop_
_symmetry_equiv_pos_site_id
_symmetry_equiv_pos_as_xyz
1 x,y,z
2 -x,-y,z
3 1/2+x,1/2-y,-z
4 1/2-x,1/2+y,-z
5 -x,-y,-z
6 x,y,-z
7 1/2-x,1/2+y,z
8 1/2+x,1/2-y,z
_cell_length_a                   14.324(3)
_cell_length_b                   16.713(3)
_cell_length_c                   11.371(2)
_cell_angle_alpha                90
_cell_angle_beta                 90
_cell_angle_gamma                90
_cell_volume                     2722.18
loop_
_atom_site_label
_atom_site_type_symbol
_atom_site_fract_x
_atom_site_fract_y
_atom_site_fract_z
Co1 Co 0.86236(8) 0.02595(7) 0.0000
C1 C 1.0572(7) 0.1259(5) 0.0000
C2 C 1.0514(7) 0.2172(6) 0.0000
C3 C 0.9635(7) 0.2519(6) 0.0000
H1 H 0.9101 0.2202 0.0000
C4 C 0.9565(7) 0.3352(6) 0.0000
C5 C 1.0357(7) 0.3803(6) 0.0000
H2 H 1.0299 0.4357 0.0000
C6 C 1.1237(7) 0.3476(6) 0.0000
C7 C 1.1307(7) 0.2653(6) 0.0000
H3 H 1.1894 0.2415 0.0000
C8 C 1.2086(6) 0.3985(5) 0.0000
C9 C 0.8321(6) -0.0358(5) 0.2495(7)
H4 H 0.8084 -0.0794 0.2084
C10 C 0.8304(6) -0.0399(4) 0.3709(6)
H5 H 0.8067 -0.0849 0.4087
C11 C 0.8642(5) 0.0232(4) 0.4348(5)
C12 C 0.8982(7) 0.0843(4) 0.3691(7)
H6 H 0.9228 0.1287 0.4075
C13 C 0.8980(6) 0.0835(5) 0.2512(6)
H7 H 0.9232 0.1274 0.2121
N1 N 0.8644(4) 0.0244(3) 0.1874(4)
N2 N 0.8654(5) 0.3698(5) 0.0000
H8 H 0.8591 0.4210 0.0000
H9 H 0.8169 0.3396 0.0000
O1 O 0.9825(4) 0.0888(3) 0.0000
O2 O 1.1373(4) 0.0969(3) 0.0000
O3 O 1.2857(4) 0.3648(4) 0.0000
O4 O 1.2034(4) 0.4728(3) 0.0000
Co1A Co 1.13764(8) -0.02595(7) 0.0000
Co1B Co 1.36236(8) 0.47405(7) 0.0000
Co1_2 Co 0.86236(8) 0.02595(7) 1.0000
C9E C 0.8321(6) -0.0358(5) 0.7505(7)
H4E H 0.8084 -0.0794 0.7916
C10E C 0.8304(6) -0.0399(4) 0.6291(6)
H5E H 0.8067 -0.0849 0.5913
C11E C 0.8642(5) 0.0232(4) 0.5652(5)
C12E C 0.8982(7) 0.0843(4) 0.6309(7)
H6E H 0.9228 0.1287 0.5925
C13E C 0.8980(6) 0.0835(5) 0.7488(6)
H7E H 0.9232 0.1274 0.7879
N1E N 0.8644(4) 0.0244(3) 0.8126(4)
N1E_2 N 0.8644(4) 0.0244(3) -0.1874(4)
O2A O 0.8627(4) -0.0969(3) 0.0000
O3B O 0.7857(4) 0.1352(4) 0.0000
O4B O 0.7034(4) 0.0272(3) 0.0000
loop_
_geom_bond_atom_site_label_1
_geom_bond_atom_site_label_2
_geom_bond_site_symmetry_1
_geom_bond_site_symmetry_2
Co1 N1 1_555 1_555
C1 C2 1_555 1_555
C2 C3 1_555 1_555
C3 H1 1_555 1_555
C4 C3 1_555 1_555
C5 C4 1_555 1_555
H2 C5 1_555 1_555
C6 C5 1_555 1_555
C7 C2 1_555 1_555
H3 C7 1_555 1_555
C8 C6 1_555 1_555
C9 H4 1_555 1_555
C10 C9 1_555 1_555
H5 C10 1_555 1_555
C11 C10 1_555 1_555
C12 C11 1_555 1_555
H6 C12 1_555 1_555
C13 C12 1_555 1_555
H7 C13 1_555 1_555
N1 C9 1_555 1_555
N2 C4 1_555 1_555
H8 N2 1_555 1_555
H9 N2 1_555 1_555
O1 Co1 1_555 1_555
O2 C1 1_555 1_555
O3 C8 1_555 1_555
O4 C8 1_555 1_555
Co1A O2 1_555 1_555
Co1B O3 1_555 1_555
Co1_2 N1E 1_555 1_555
C9E H4E 1_555 1_555
C10E C9E 1_555 1_555
H5E C10E 1_555 1_555
C11E C11 1_555 1_555
C12E C11E 1_555 1_555
H6E C12E 1_555 1_555
C13E C12E 1_555 1_555
H7E C13E 1_555 1_555
N1E C9E 1_555 1_555
N1E_2 Co1 1_555 1_555
O2A Co1 1_555 1_555
O3B Co1 1_555 1_555
O4B Co1 1_555 1_555
C1 O1 1_555 1_555
C6 C7 1_555 1_555
C13 N1 1_555 1_555
O4 Co1B 1_555 1_555
C10E C11E 1_555 1_555
C13E N1E 1_555 1_555

#END
