
#######################################################################
#
#                 Cambridge Crystallographic Data Centre
#                                CCDC 
#
#######################################################################
#
# If this CIF has been generated from an entry in the Cambridge 
# Structural Database, then it will include bibliographic, chemical, 
# crystal, experimental, refinement or atomic coordinate data resulting 
# from the CCDC's data processing and validation procedures.
#
#######################################################################

data_FAPYEA04
_symmetry_cell_setting           tetragonal
_symmetry_space_group_name_H-M   'I 41/a'
_symmetry_Int_Tables_number      88
_space_group_name_Hall           '-I 4ad'
loop_
_symmetry_equiv_pos_site_id
_symmetry_equiv_pos_as_xyz
1 x,y,z
2 1/2+x,1/2+y,1/2+z
3 3/4-y,1/4+x,1/4+z
4 1/4-y,3/4+x,3/4+z
5 1/2-x,-y,1/2+z
6 -x,1/2-y,z
7 3/4+y,3/4-x,3/4+z
8 1/4+y,1/4-x,1/4+z
9 -x,-y,-z
10 1/2-x,1/2-y,1/2-z
11 1/4+y,3/4-x,3/4-z
12 3/4+y,1/4-x,1/4-z
13 1/2+x,y,1/2-z
14 x,1/2+y,-z
15 1/4-y,1/4+x,1/4-z
16 3/4-y,3/4+x,3/4-z
_cell_length_a                   21.606(2)
_cell_length_b                   21.606(2)
_cell_length_c                   3.8811(4)
_cell_angle_alpha                90
_cell_angle_beta                 90
_cell_angle_gamma                90
_cell_volume                     1811.77
loop_
_atom_site_label
_atom_site_type_symbol
_atom_site_fract_x
_atom_site_fract_y
_atom_site_fract_z
Cu1 Cu 0.0000 0.2500 0.6250
N1 N -0.0354(1) 0.3233(1) 0.8617(6)
N2 N -0.0715(1) 0.4225(1) 1.1053(5)
C1 C -0.0491(1) 0.3703(1) 0.9824(7)
C2 C -0.0359(1) 0.4593(1) 1.2980(7)
C3 C -0.0626(1) 0.5167(1) 1.4188(6)
C4 C 0.0270(1) 0.4448(1) 1.3871(7)
C5 C -0.1287(1) 0.5323(1) 1.3332(9)
H1 H 0.0434(17) 0.4072(19) 1.311(10)
H2 H -0.1395(20) 0.5257(21) 1.120(12)
H3 H -0.1530(21) 0.5066(23) 1.422(12)
H4 H -0.1420(20) 0.5671(22) 1.439(11)
C3K C 0.2667(1) 0.3126(1) -0.1688(6)
C2K C 0.2093(1) 0.2859(1) -0.0480(7)
C4B C 0.3052(1) 0.2770(1) -0.3629(7)
C5K C 0.2823(1) 0.3787(1) -0.0832(9)
C4K C 0.1948(1) 0.2230(1) -0.1371(7)
N2K N 0.1725(1) 0.3215(1) 0.1447(5)
C2B C 0.2907(1) 0.2141(1) -0.4520(7)
H1B H 0.3428(19) 0.2934(17) -0.439(10)
H4K H 0.3171(22) 0.3920(20) -0.189(11)
H2K H 0.2757(21) 0.3895(20) 0.130(12)
H3K H 0.2566(23) 0.4030(21) -0.172(12)
C3B C 0.2333(1) 0.1874(1) -0.3312(6)
H1K H 0.1572(19) 0.2066(17) -0.061(10)
C1K C 0.1203(1) 0.2991(1) 0.2676(7)
N2B N 0.3275(1) 0.1785(1) -0.6447(5)
C5B C 0.2177(1) 0.1213(1) -0.4168(9)
N1K N 0.0733(1) 0.2854(1) 0.3883(6)
C1B C 0.3797(1) 0.2009(1) -0.7676(7)
H4B H 0.1829(22) 0.1080(20) -0.311(11)
H2B H 0.2243(21) 0.1105(20) -0.630(12)
H3B H 0.2434(23) 0.0970(21) -0.328(12)
N1B N 0.4267(1) 0.2146(1) -0.8883(6)
N1N N -0.0733(1) 0.2146(1) 0.3883(6)
N1E N 0.0354(1) 0.1767(1) 0.8617(6)
Cu1B Cu 0.5000 0.2500 -1.1250
C1N C -0.1203(1) 0.2009(1) 0.2676(7)
C1E C 0.0491(1) 0.1297(1) 0.9824(7)
N1L N 0.4646(1) 0.3233(1) -1.3617(6)
N1G N 0.5733(1) 0.2854(1) -0.8883(6)
N1I N 0.5354(1) 0.1767(1) -1.3617(6)
N2N N -0.1725(1) 0.1785(1) 0.1447(5)
N2E N 0.0715(1) 0.0775(1) 1.1053(5)
C2N C -0.2093(1) 0.2141(1) -0.0480(7)
C2E C 0.0359(1) 0.0407(1) 1.2980(7)
C3N C -0.2667(1) 0.1874(1) -0.1688(6)
C4N C -0.1948(1) 0.2770(1) -0.1371(7)
C3E C 0.0626(1) -0.0167(1) 1.4188(6)
C4E C -0.0270(1) 0.0552(1) 1.3871(7)
C4G C -0.3052(1) 0.2230(1) -0.3629(7)
C5N C -0.2823(1) 0.1213(1) -0.0832(9)
C3G C -0.2333(1) 0.3126(1) -0.3312(6)
H1N H -0.1572(19) 0.2934(17) -0.061(10)
C4M C 0.0270(1) -0.0552(1) 1.6129(7)
C5E C 0.1287(1) -0.0323(1) 1.3332(9)
C3M C -0.0626(1) 0.0167(1) 1.5812(6)
H1E H -0.0434(17) 0.0928(19) 1.311(10)
C4H C -0.0270(1) 0.5552(1) 1.6129(7)
C3H C 0.0626(1) 0.4833(1) 1.5812(6)
C2G C -0.2907(1) 0.2859(1) -0.4520(7)
H1G H -0.3428(19) 0.2066(17) -0.439(10)
H4N H -0.3171(22) 0.1080(20) -0.189(11)
H2N H -0.2757(21) 0.1105(20) 0.130(12)
H3N H -0.2566(23) 0.0970(21) -0.172(12)
C5G C -0.2177(1) 0.3787(1) -0.4168(9)
C2M C -0.0359(1) -0.0407(1) 1.7020(7)
H1M H 0.0434(17) -0.0928(19) 1.689(10)
H4E H 0.1420(20) -0.0671(22) 1.439(11)
H2E H 0.1395(20) -0.0257(21) 1.120(12)
H3E H 0.1530(21) -0.0066(23) 1.422(12)
C5M C -0.1287(1) 0.0323(1) 1.6668(9)
C2H C 0.0359(1) 0.5407(1) 1.7020(7)
H1H H -0.0434(17) 0.5928(19) 1.689(10)
C5H C 0.1287(1) 0.4677(1) 1.6668(9)
N2G N -0.3275(1) 0.3215(1) -0.6447(5)
H4G H -0.1829(22) 0.3920(20) -0.311(11)
H2G H -0.2243(21) 0.3895(20) -0.630(12)
H3G H -0.2434(23) 0.4030(21) -0.328(12)
N2M N -0.0715(1) -0.0775(1) 1.8947(5)
H4M H -0.1420(20) 0.0671(22) 1.561(11)
H2M H -0.1395(20) 0.0257(21) 1.880(12)
H3M H -0.1530(21) 0.0066(23) 1.578(12)
N2H N 0.0715(1) 0.5775(1) 1.8947(5)
H4H H 0.1420(20) 0.4329(22) 1.561(11)
H2H H 0.1395(20) 0.4743(21) 1.880(12)
H3H H 0.1530(21) 0.4934(23) 1.578(12)
C1G C -0.3797(1) 0.2991(1) -0.7676(7)
C1M C -0.0491(1) -0.1297(1) 2.0176(7)
C1H C 0.0491(1) 0.6297(1) 2.0176(7)
N1G_2 N -0.4267(1) 0.2854(1) -0.8883(6)
N1M N -0.0354(1) -0.1767(1) 2.1383(6)
N1H N 0.0354(1) 0.6767(1) 2.1383(6)
Cu1B_2 Cu -0.5000 0.2500 -1.1250
Cu1C Cu 0.0000 -0.2500 2.3750
Cu1C_2 Cu 0.0000 0.7500 2.3750
loop_
_geom_bond_atom_site_label_1
_geom_bond_atom_site_label_2
_geom_bond_site_symmetry_1
_geom_bond_site_symmetry_2
Cu1 N1 1_555 1_555
N1 C1 1_555 1_555
N2 C1 1_555 1_555
C2 N2 1_555 1_555
C3 C2 1_555 1_555
C4 C2 1_555 1_555
C5 C3 1_555 1_555
H1 C4 1_555 1_555
H2 C5 1_555 1_555
H3 C5 1_555 1_555
H4 C5 1_555 1_555
C3K C2K 1_555 1_555
C2K C4K 1_555 1_555
C4B C3K 1_555 1_555
C5K C3K 1_555 1_555
C4K C3B 1_555 1_555
N2K C2K 1_555 1_555
C2B C4B 1_555 1_555
H1B C4B 1_555 1_555
H4K C5K 1_555 1_555
H2K C5K 1_555 1_555
H3K C5K 1_555 1_555
C3B C2B 1_555 1_555
H1K C4K 1_555 1_555
C1K N2K 1_555 1_555
N2B C2B 1_555 1_555
C5B C3B 1_555 1_555
N1K Cu1 1_555 1_555
C1B N2B 1_555 1_555
H4B C5B 1_555 1_555
H2B C5B 1_555 1_555
H3B C5B 1_555 1_555
N1B C1B 1_555 1_555
N1N Cu1 1_555 1_555
N1E Cu1 1_555 1_555
Cu1B N1B 1_555 1_555
C1N N1N 1_555 1_555
C1E N1E 1_555 1_555
N1L Cu1B 1_555 1_555
N1G Cu1B 1_555 1_555
N1I Cu1B 1_555 1_555
N2N C1N 1_555 1_555
N2E C1E 1_555 1_555
C2N N2N 1_555 1_555
C2E N2E 1_555 1_555
C3N C2N 1_555 1_555
C4N C2N 1_555 1_555
C3E C2E 1_555 1_555
C4E C2E 1_555 1_555
C4G C3N 1_555 1_555
C5N C3N 1_555 1_555
C3G C4N 1_555 1_555
H1N C4N 1_555 1_555
C4M C3E 1_555 1_555
C5E C3E 1_555 1_555
C3M C4E 1_555 1_555
H1E C4E 1_555 1_555
C4H C3 1_555 1_555
C3H C4 1_555 1_555
C2G C4G 1_555 1_555
H1G C4G 1_555 1_555
H4N C5N 1_555 1_555
H2N C5N 1_555 1_555
H3N C5N 1_555 1_555
C5G C3G 1_555 1_555
C2M C4M 1_555 1_555
H1M C4M 1_555 1_555
H4E C5E 1_555 1_555
H2E C5E 1_555 1_555
H3E C5E 1_555 1_555
C5M C3M 1_555 1_555
C2H C4H 1_555 1_555
H1H C4H 1_555 1_555
C5H C3H 1_555 1_555
N2G C2G 1_555 1_555
H4G C5G 1_555 1_555
H2G C5G 1_555 1_555
H3G C5G 1_555 1_555
N2M C2M 1_555 1_555
H4M C5M 1_555 1_555
H2M C5M 1_555 1_555
H3M C5M 1_555 1_555
N2H C2H 1_555 1_555
H4H C5H 1_555 1_555
H2H C5H 1_555 1_555
H3H C5H 1_555 1_555
C1G N2G 1_555 1_555
C1M N2M 1_555 1_555
C1H N2H 1_555 1_555
N1G_2 C1G 1_555 1_555
N1M C1M 1_555 1_555
N1H C1H 1_555 1_555
Cu1B_2 N1G_2 1_555 1_555
Cu1C N1M 1_555 1_555
Cu1C_2 N1H 1_555 1_555
C1K N1K 1_555 1_555
C3G C2G 1_555 1_555
C3M C2M 1_555 1_555
C3H C2H 1_555 1_555

#END
