
#######################################################################
#
#                 Cambridge Crystallographic Data Centre
#                                CCDC 
#
#######################################################################
#
# If this CIF has been generated from an entry in the Cambridge 
# Structural Database, then it will include bibliographic, chemical, 
# crystal, experimental, refinement or atomic coordinate data resulting 
# from the CCDC's data processing and validation procedures.
#
#######################################################################

data_FAPYEA
_symmetry_cell_setting           tetragonal
_symmetry_space_group_name_H-M   'I 41'
_symmetry_Int_Tables_number      80
_space_group_name_Hall           'I 4bw'
loop_
_symmetry_equiv_pos_site_id
_symmetry_equiv_pos_as_xyz
1 x,y,z
2 1/2+x,1/2+y,1/2+z
3 -y,1/2+x,1/4+z
4 1/2-y,x,3/4+z
5 -x,-y,z
6 1/2-x,1/2-y,1/2+z
7 y,1/2-x,1/4+z
8 1/2+y,-x,3/4+z
_cell_length_a                   21.614(3)
_cell_length_b                   21.614(3)
_cell_length_c                   3.881(4)
_cell_angle_alpha                90
_cell_angle_beta                 90
_cell_angle_gamma                90
_cell_volume                     1813.07
loop_
_atom_site_label
_atom_site_type_symbol
_atom_site_fract_x
_atom_site_fract_y
_atom_site_fract_z
Cu1 Cu 0.5000 0.0000 0.7500
C1 C 0.2094(3) 0.0350(3) -0.3235(22)
C2 C 0.1938(3) -0.0258(3) -0.2382(29)
C3 C 0.2349(2) -0.0624(3) -0.0398(15)
C4 C 0.2908(3) -0.0370(3) 0.0778(26)
C5 C 0.3034(4) 0.0281(3) -0.0145(28)
C6 C 0.2684(2) 0.0625(3) -0.2015(15)
C7 C 0.2795(2) 0.1293(3) -0.3030(16)
C8 C 0.2145(3) -0.1285(2) 0.0311(16)
N1 N 0.1720(3) 0.0712(3) -0.5166(27)
C9 C 0.1206(3) 0.0497(2) -0.6359(18)
N2 N 0.0721(2) 0.0365(2) -0.7560(12)
N3 N 0.3268(3) -0.0718(3) 0.2741(22)
C10 C 0.3806(3) -0.0485(2) 0.3972(16)
N4 N 0.4261(2) -0.0342(2) 0.5183(14)
H1 H 0.1548 -0.0428 -0.3100
H2 H 0.3405 0.0462 0.0765
H3 H 0.3136 0.1355 -0.1483
H4 H 0.2480 0.1594 -0.2565
H5 H 0.2936 0.1337 -0.5363
H6 H 0.1741 -0.1461 -0.0032
H7 H 0.2288 -0.1385 0.2587
H8 H 0.2426 -0.1452 -0.1361
Cu1B Cu 0.0000 0.0000 -1.0000
N2C N 0.4635(2) 0.0721(2) 0.9940(12)
N2G N 0.5365(2) -0.0721(2) 0.9940(12)
N4D N 0.5739(2) 0.0342(2) 0.5183(14)
C9C C 0.4503(2) 0.1206(3) 1.1141(18)
N1C N 0.4288(3) 0.1720(3) 1.2334(27)
C1C C 0.4650(3) 0.2094(3) 1.4265(22)
C2C C 0.5258(3) 0.1938(3) 1.5118(29)
C6C C 0.4375(3) 0.2684(2) 1.5485(15)
C3C C 0.5624(3) 0.2349(2) 1.7102(15)
H1C H 0.5428 0.1548 1.4400
C5C C 0.4719(3) 0.3034(4) 1.7355(28)
C7C C 0.3707(3) 0.2795(2) 1.4470(16)
C4C C 0.5370(3) 0.2908(3) 1.8278(26)
C8C C 0.6285(2) 0.2145(3) 1.7811(16)
H2C H 0.4538 0.3405 1.8265
H3C H 0.3645 0.3136 1.6017
H4C H 0.3406 0.2480 1.4935
H5C H 0.3663 0.2936 1.2137
N3C N 0.5718(3) 0.3268(3) 2.0241(22)
H6C H 0.6461 0.1741 1.7468
H7C H 0.6385 0.2288 2.0087
H8C H 0.6452 0.2426 1.6139
C10C C 0.5485(2) 0.3806(3) 2.1472(16)
N4C N 0.5342(2) 0.4261(2) 2.2683(14)
Cu1C Cu 0.5000 0.5000 2.5000
loop_
_geom_bond_atom_site_label_1
_geom_bond_atom_site_label_2
_geom_bond_site_symmetry_1
_geom_bond_site_symmetry_2
Cu1 N4 1_555 1_555
C1 C2 1_555 1_555
C2 C3 1_555 1_555
C3 C4 1_555 1_555
C4 C5 1_555 1_555
C5 C6 1_555 1_555
C6 C1 1_555 1_555
C7 C6 1_555 1_555
C8 C3 1_555 1_555
N1 C1 1_555 1_555
C9 N1 1_555 1_555
N2 C9 1_555 1_555
N3 C4 1_555 1_555
C10 N3 1_555 1_555
N4 C10 1_555 1_555
H1 C2 1_555 1_555
H2 C5 1_555 1_555
H3 C7 1_555 1_555
H4 C7 1_555 1_555
H5 C7 1_555 1_555
H6 C8 1_555 1_555
H7 C8 1_555 1_555
H8 C8 1_555 1_555
Cu1B N2 1_555 1_555
N2C Cu1 1_555 1_555
N2G Cu1 1_555 1_555
N4D Cu1 1_555 1_555
C9C N2C 1_555 1_555
N1C C9C 1_555 1_555
C1C N1C 1_555 1_555
C2C C1C 1_555 1_555
C6C C1C 1_555 1_555
C3C C2C 1_555 1_555
H1C C2C 1_555 1_555
C5C C6C 1_555 1_555
C7C C6C 1_555 1_555
C4C C3C 1_555 1_555
C8C C3C 1_555 1_555
H2C C5C 1_555 1_555
H3C C7C 1_555 1_555
H4C C7C 1_555 1_555
H5C C7C 1_555 1_555
N3C C4C 1_555 1_555
H6C C8C 1_555 1_555
H7C C8C 1_555 1_555
H8C C8C 1_555 1_555
C10C N3C 1_555 1_555
N4C C10C 1_555 1_555
Cu1C N4C 1_555 1_555
C5C C4C 1_555 1_555

#END
