
#######################################################################
#
#                 Cambridge Crystallographic Data Centre
#                                CCDC 
#
#######################################################################
#
# If this CIF has been generated from an entry in the Cambridge 
# Structural Database, then it will include bibliographic, chemical, 
# crystal, experimental, refinement or atomic coordinate data resulting 
# from the CCDC's data processing and validation procedures.
#
#######################################################################

data_FASHAK
_symmetry_cell_setting           tetragonal
_symmetry_space_group_name_H-M   'I 41'
_symmetry_Int_Tables_number      80
_space_group_name_Hall           'I 4bw'
loop_
_symmetry_equiv_pos_site_id
_symmetry_equiv_pos_as_xyz
1 x,y,z
2 -y,1/2+x,1/4+z
3 1/2-x,1/2-y,1/2+z
4 1/2+y,-x,3/4+z
5 1/2+x,1/2+y,1/2+z
6 1/2-y,x,3/4+z
7 -x,-y,z
8 y,1/2-x,1/4+z
_cell_length_a                   17.116(9)
_cell_length_b                   17.116(9)
_cell_length_c                   14.083(10)
_cell_angle_alpha                90
_cell_angle_beta                 90
_cell_angle_gamma                90
_cell_volume                     4125.72
loop_
_atom_site_label
_atom_site_type_symbol
_atom_site_fract_x
_atom_site_fract_y
_atom_site_fract_z
Pr1 Pr 0.20125(3) 0.65250(3) 0.3637(4)
O1 O 0.1403(10) 0.5321(8) 0.4240(12)
H1 H 0.1748 0.4967 0.4290
H2 H 0.1027 0.5082 0.4507
O2 O 0.1814(5) 0.7916(4) 0.3155(8)
O3 O 0.1994(7) 0.8948(5) 0.2295(8)
O4 O 0.2715(5) 0.8181(5) 0.6656(8)
O5 O 0.2680(6) 0.9358(5) 0.7264(8)
O6 O 0.2345(9) 1.1151(6) 0.4492(12)
O7 O 0.0762(5) 0.6318(6) 0.2876(8)
O8 O 0.0625(7) 0.6948(7) 0.1568(10)
O9 O 0.0000 0.5000 -0.0886(11)
C1 C 0.2154(3) 0.9097(4) 0.3939(6)
C2 C 0.2302(3) 0.8763(3) 0.4820(7)
H3 H 0.2292 0.8223 0.4890
C3 C 0.2467(3) 0.9237(4) 0.5597(6)
C4 C 0.2482(5) 1.0044(4) 0.5492(7)
H4 H 0.2592 1.0361 0.6012
C5 C 0.2334(6) 1.0378(3) 0.4611(8)
C6 C 0.2169(5) 0.9905(4) 0.3834(7)
H5 H 0.2070 1.0128 0.3245
C7 C 0.1976(4) 0.8618(7) 0.3091(10)
C8 C 0.2628(4) 0.8905(6) 0.6545(9)
C9 C 0.0276(2) 0.56463(16) 0.1537(4)
C10 C 0.0276(2) 0.56463(16) 0.0551(4)
H6 H 0.0461 0.6079 0.0222
C11 C 0.0000 0.5000 0.0055(4)
C12 C 0.0000 0.5000 0.2032(4)
H7 H 0.0000 0.5000 0.2692
C13 C 0.0579(4) 0.6355(7) 0.2046(10)
Pr1A Pr 0.34750(3) 0.70125(3) 0.6137(4)
Pr1C Pr 0.15250(3) 0.79875(3) 0.1137(4)
Pr1B Pr 0.29875(3) 0.84750(3) 0.8637(4)
Pr1F Pr -0.20125(3) 0.34750(3) 0.3637(4)
Pr1E Pr -0.15250(3) 0.20125(3) 0.1137(4)
Pr1C_2 Pr 0.15250(3) 0.79875(3) 1.1137(4)
O1A O 0.4679(8) 0.6403(10) 0.6740(12)
H1A H 0.5033 0.6748 0.6790
H2A H 0.4918 0.6027 0.7007
O2A O 0.2084(4) 0.6814(5) 0.5655(8)
O2B O 0.3186(5) 0.7084(4) 0.8155(8)
O3A O 0.1052(5) 0.6994(7) 0.4795(8)
O3B O 0.3006(7) 0.6052(5) 0.7295(8)
O4A O 0.1819(5) 0.7715(5) 0.9156(8)
O4B O 0.2285(5) 0.6819(5) 0.1656(8)
O4C O 0.3181(5) 0.7285(5) 0.4156(8)
O5A O 0.0642(5) 0.7680(6) 0.9764(8)
O5B O 0.2320(6) 0.5642(5) 0.2264(8)
O5C O 0.4358(5) 0.7320(6) 0.4764(8)
O6A O -0.1151(6) 0.7345(9) 0.6992(12)
O7F O -0.0762(5) 0.3682(6) 0.2876(8)
O7A O 0.3682(6) 0.5762(5) 0.5376(8)
O8F O -0.0625(7) 0.3052(7) 0.1568(10)
O8A O 0.3052(7) 0.5625(7) 0.4068(10)
O8B O 0.4375(7) 0.8052(7) 0.6568(10)
C1A C 0.0903(4) 0.7154(3) 0.6439(6)
C2A C 0.1237(3) 0.7302(3) 0.7320(7)
H3A H 0.1777 0.7292 0.7390
C3A C 0.0763(4) 0.7467(3) 0.8097(6)
C4A C -0.0044(4) 0.7482(5) 0.7992(7)
H4A H -0.0361 0.7592 0.8512
C5A C -0.0378(3) 0.7334(6) 0.7111(8)
C6A C 0.0095(4) 0.7169(5) 0.6334(7)
H5A H -0.0128 0.7070 0.5745
C7A C 0.1382(7) 0.6976(4) 0.5591(10)
C8A C 0.1095(6) 0.7628(4) 0.9045(9)
C9F C -0.0276(2) 0.43537(16) 0.1537(4)
C10F C -0.0276(2) 0.43537(16) 0.0551(4)
H6F H -0.0461 0.3921 0.0222
C13F C -0.0579(4) 0.3645(7) 0.2046(10)
loop_
_geom_bond_atom_site_label_1
_geom_bond_atom_site_label_2
_geom_bond_site_symmetry_1
_geom_bond_site_symmetry_2
Pr1 O1 1_555 1_555
O1 H1 1_555 1_555
H2 O1 1_555 1_555
O2 Pr1 1_555 1_555
O3 C7 1_555 1_555
O4 C8 1_555 1_555
O5 C8 1_555 1_555
O6 C5 1_555 1_555
O7 Pr1 1_555 1_555
O8 C13 1_555 1_555
O9 C11 1_555 1_555
C1 C2 1_555 1_555
C2 H3 1_555 1_555
C3 C2 1_555 1_555
C4 C3 1_555 1_555
H4 C4 1_555 1_555
C5 C4 1_555 1_555
C6 C1 1_555 1_555
H5 C6 1_555 1_555
C7 O2 1_555 1_555
C8 C3 1_555 1_555
C9 C10 1_555 1_555
C10 H6 1_555 1_555
C11 C10 1_555 1_555
C12 C9 1_555 1_555
H7 C12 1_555 1_555
C13 O7 1_555 1_555
Pr1A O4 1_555 1_555
Pr1C O2 1_555 1_555
Pr1B O4 1_555 1_555
Pr1F O7F 1_555 1_555
Pr1E O8F 1_555 1_555
Pr1C_2 O4A 1_555 1_555
O1A Pr1A 1_555 1_555
H1A O1A 1_555 1_555
H2A O1A 1_555 1_555
O2A Pr1 1_555 1_555
O2B Pr1A 1_555 1_555
O3A Pr1 1_555 1_555
O3B Pr1A 1_555 1_555
O4A Pr1B 1_555 1_555
O4B Pr1 1_555 1_555
O4C Pr1 1_555 1_555
O5A Pr1C_2 1_555 1_555
O5B Pr1 1_555 1_555
O5C Pr1A 1_555 1_555
O6A C5A 1_555 1_555
O7F C13F 1_555 1_555
O7A Pr1A 1_555 1_555
O8F C13F 1_555 1_555
O8A Pr1 1_555 1_555
O8B Pr1A 1_555 1_555
C1A C2A 1_555 1_555
C2A H3A 1_555 1_555
C3A C2A 1_555 1_555
C4A C3A 1_555 1_555
H4A C4A 1_555 1_555
C5A C4A 1_555 1_555
C6A C1A 1_555 1_555
H5A C6A 1_555 1_555
C7A O2A 1_555 1_555
C8A O4A 1_555 1_555
C9F C12 1_555 1_555
C10F C11 1_555 1_555
H6F C10F 1_555 1_555
C13F C9F 1_555 1_555
O3 Pr1C 1_555 1_555
O5 Pr1B 1_555 1_555
O8 Pr1C 1_555 1_555
C1 C7 1_555 1_555
C5 C6 1_555 1_555
C9 C13 1_555 1_555
Pr1A O2A 1_555 1_555
Pr1A O4C 1_555 1_555
Pr1C O4B 1_555 1_555
Pr1B O2B 1_555 1_555
O3A C7A 1_555 1_555
O5A C8A 1_555 1_555
C1A C7A 1_555 1_555
C3A C8A 1_555 1_555
C5A C6A 1_555 1_555
C9F C10F 1_555 1_555

#END
