
#######################################################################
#
#                 Cambridge Crystallographic Data Centre
#                                CCDC 
#
#######################################################################
#
# If this CIF has been generated from an entry in the Cambridge 
# Structural Database, then it will include bibliographic, chemical, 
# crystal, experimental, refinement or atomic coordinate data resulting 
# from the CCDC's data processing and validation procedures.
#
#######################################################################

data_FATKIV
_symmetry_cell_setting           rhombohedral
_symmetry_space_group_name_H-M   'R -3'
_symmetry_Int_Tables_number      148
_space_group_name_Hall           '-R 3'
loop_
_symmetry_equiv_pos_site_id
_symmetry_equiv_pos_as_xyz
1 x,y,z
2 -y,x-y,z
3 -x+y,-x,z
4 2/3+x,1/3+y,1/3+z
5 2/3-y,1/3+x-y,1/3+z
6 2/3-x+y,1/3-x,1/3+z
7 1/3+x,2/3+y,2/3+z
8 1/3-y,2/3+x-y,2/3+z
9 1/3-x+y,2/3-x,2/3+z
10 -x,-y,-z
11 y,-x+y,-z
12 x-y,x,-z
13 1/3-x,2/3-y,2/3-z
14 1/3+y,2/3-x+y,2/3-z
15 1/3+x-y,2/3+x,2/3-z
16 2/3-x,1/3-y,1/3-z
17 2/3+y,1/3-x+y,1/3-z
18 2/3+x-y,1/3+x,1/3-z
_cell_length_a                   51.668(5)
_cell_length_b                   51.668(5)
_cell_length_c                   20.345(3)
_cell_angle_alpha                90
_cell_angle_beta                 90
_cell_angle_gamma                120.00
_cell_volume                     47036.1
loop_
_atom_site_label
_atom_site_type_symbol
_atom_site_fract_x
_atom_site_fract_y
_atom_site_fract_z
Mn4 Mn 0.92095(2) 1.02099(2) 0.53093(9)
O11 O 0.89719(13) 1.02817(12) 0.4749(4)
O12 O 0.87952(11) 0.94052(12) 0.4301(4)
O13 O 0.94005(11) 1.00597(11) 0.5883(3)
O14 O 0.88759(14) 1.01262(14) 0.6133(5)
N10 N 0.90513(13) 0.98096(13) 0.4967(4)
N11 N 0.91613(14) 0.96386(13) 0.5263(4)
N12 N 0.8798(2) 1.0404(2) 0.6902(5)
C69 C 0.8791(2) 1.01120(19) 0.4274(9)
C70 C 0.8643(3) 1.0233(2) 0.3907(12)
H90 H 0.8686 1.0432 0.3992
C71 C 0.8443(4) 1.0072(3) 0.3443(13)
H91 H 0.8329 1.0147 0.3243
C72 C 0.8400(3) 0.9787(3) 0.3244(11)
H92 H 0.8280 0.9685 0.2873
C73 C 0.8539(2) 0.9667(2) 0.3611(8)
H93 H 0.8497 0.9470 0.3514
C74 C 0.87347(19) 0.9820(2) 0.4111(7)
C75 C 0.88680(17) 0.96753(17) 0.4482(6)
C76 C 0.93352(18) 0.97887(18) 0.5739(5)
C77 C 0.9473(2) 0.9649(2) 0.6168(6)
H94 H 0.9494 0.9498 0.5912
H95 H 0.9675 0.9805 0.6309
C78 C 0.9285(4) 0.9507(4) 0.6755(8)
H96 H 0.9087 0.9340 0.6618
H97 H 0.9252 0.9654 0.6997
C79 C 0.9452(5) 0.9381(5) 0.7231(12)
H98 H 0.9528 0.9279 0.6943
H99 H 0.9629 0.9557 0.7419
C80 C 0.931(2) 0.9191(12) 0.774(3)
C81 C 0.88391(17) 1.03347(19) 0.6307(6)
H100 H 0.8841 1.0461 0.5965
C82 C 0.8791(5) 1.0206(5) 0.7478(9)
H101 H 0.8588 1.0096 0.7659
H102 H 0.8930 1.0332 0.7821
H103 H 0.8850 1.0063 0.7320
C83 C 0.8757(2) 1.0657(2) 0.7039(6)
H104 H 0.8738 1.0743 0.6624
H105 H 0.8930 1.0809 0.7284
H106 H 0.8575 1.0591 0.7302
Mn4K Mn 0.89996(3) 0.92095(2) 0.46907(9)
O12J O 0.94052(12) 1.06100(16) 0.5699(4)
N11J N 0.96386(13) 1.04773(19) 0.4737(4)
Mn1 Mn 0.59983(2) 0.02213(2) 0.96669(6)
O1 O 0.63450(11) 0.04847(11) 1.0113(3)
O2 O 0.60770(9) 0.10340(9) 0.9098(3)
O3 O 0.56326(10) 0.00088(10) 0.9171(3)
N1 N 0.59700(11) 0.05562(12) 0.9301(3)
N2 N 0.57195(11) 0.04733(11) 0.8892(3)
N3 N 0.62343(14) 0.01510(14) 0.8797(4)
C1 C 0.64855(16) 0.07831(17) 1.0152(4)
C2 C 0.6728(2) 0.0923(2) 1.0572(6)
H1 H 0.6769 0.0801 1.0855
C3 C 0.6913(3) 0.1226(2) 1.0601(7)
H2 H 0.7087 0.1311 1.0869
C4 C 0.6838(2) 0.1407(2) 1.0220(7)
H3 H 0.6959 0.1619 1.0237
C5 C 0.65907(18) 0.12764(17) 0.9828(5)
H4 H 0.6540 0.1400 0.9578
C6 C 0.64122(15) 0.09692(16) 0.9782(4)
C7 C 0.61431(14) 0.08514(15) 0.9368(4)
C8 C 0.55592(15) 0.01824(16) 0.8856(4)
C9 C 0.52847(17) 0.00383(18) 0.8450(4)
H5 H 0.5112 -0.0083 0.8741
H6 H 0.5255 0.0197 0.8253
C10 C 0.5285(4) -0.0142(5) 0.7954(9)
H7 H 0.5253 -0.0322 0.8194
H8 H 0.5094 -0.0203 0.7727
C11 C 0.5466(4) -0.0123(4) 0.7460(9)
H9 H 0.5670 -0.0023 0.7647
H10 H 0.5462 0.0020 0.7142
C12 C 0.5438(4) -0.0391(5) 0.7035(10)
H11 H 0.5468 -0.0530 0.7318
H12 H 0.5594 -0.0315 0.6689
C13 C 0.5103(4) -0.0570(4) 0.6694(9)
H13 H 0.4950 -0.0656 0.7044
H14 H 0.5069 -0.0425 0.6442
C14 C 0.5065(7) -0.0828(5) 0.6219(11)
H15 H 0.5127 -0.0956 0.6456
H16 H 0.5202 -0.0738 0.5841
C15 C 0.4734(8) -0.1036(7) 0.5945(14)
H17 H 0.4597 -0.1138 0.6317
H18 H 0.4666 -0.0910 0.5719
C16 C 0.4722(8) -0.1261(7) 0.5482(16)
H19 H 0.4870 -0.1161 0.5127
H20 H 0.4770 -0.1400 0.5715
C17 C 0.4448(6) -0.1411(6) 0.5230(13)
H21 H 0.4303 -0.1555 0.5549
H22 H 0.4377 -0.1275 0.5076
C18 C 0.4495(12) -0.1549(11) 0.473(3)
H23 H 0.4551 -0.1695 0.4891
H24 H 0.4656 -0.1404 0.4439
C19 C 0.4194(11) -0.1708(10) 0.4364(19)
H25 H 0.4230 -0.1694 0.3889
H26 H 0.4077 -0.1613 0.4476
H27 H 0.4084 -0.1919 0.4494
C20 C 0.6077(2) -0.0097(3) 0.8470(6)
H28 H 0.5874 -0.0224 0.8592
C21 C 0.6190(2) -0.0182(2) 0.7960(7)
H29 H 0.6062 -0.0360 0.7722
C22 C 0.6481(2) -0.00185(19) 0.7788(6)
C23 C 0.6642(2) 0.0223(2) 0.8179(6)
H30 H 0.6852 0.0343 0.8115
C24 C 0.6505(2) 0.0299(2) 0.8671(5)
H31 H 0.6625 0.0473 0.8924
C25 C 0.6616(3) -0.0110(2) 0.7224(7)
H32 H 0.6644 0.0018 0.6837
H33 H 0.6815 -0.0076 0.7358
Mn2 Mn 0.56815(2) 0.08820(2) 0.87027(6)
O4 O 0.58130(11) 0.09380(12) 0.7835(3)
O5 O 0.48705(11) 0.05255(11) 0.7718(3)
O6 O 0.54809(9) 0.08123(10) 0.9543(2)
O7 O 0.57299(13) 0.13329(12) 0.8746(4)
N4 N 0.52704(12) 0.07034(12) 0.8401(3)
N5 N 0.50584(12) 0.06108(12) 0.8912(3)
N6 N 0.54899(19) 0.15001(16) 0.8120(6)
C26 C 0.56653(18) 0.08815(17) 0.7269(5)
C27 C 0.5830(2) 0.0963(2) 0.6695(6)
H34 H 0.6041 0.1053 0.6717
C28 C 0.5692(3) 0.0914(3) 0.6094(7)
H35 H 0.5809 0.0966 0.5704
C29 C 0.5386(3) 0.0789(3) 0.6052(6)
H36 H 0.5291 0.0763 0.5638
C30 C 0.5221(2) 0.0703(2) 0.6625(5)
H37 H 0.5009 0.0606 0.6596
C31 C 0.53509(17) 0.07526(17) 0.7235(4)
C32 C 0.51557(16) 0.06569(16) 0.7811(4)
C33 C 0.51870(15) 0.06799(15) 0.9478(4)
C34 C 0.50051(15) 0.06261(16) 1.0075(4)
H38 H 0.5110 0.0601 1.0456
H39 H 0.4811 0.0439 1.0022
C35 C 0.49480(18) 0.08892(18) 1.0211(4)
H40 H 0.5141 0.1073 1.0301
H41 H 0.4859 0.0926 0.9816
C36 C 0.4740(2) 0.0824(2) 1.0792(5)
H42 H 0.4834 0.0798 1.1192
H43 H 0.4551 0.0635 1.0712
C37 C 0.4667(2) 0.1077(2) 1.0914(5)
H44 H 0.4853 0.1263 1.1032
H45 H 0.4589 0.1115 1.0503
C38 C 0.4438(3) 0.0998(2) 1.1461(6)
H46 H 0.4254 0.0810 1.1346
H47 H 0.4518 0.0964 1.1873
C39 C 0.4359(3) 0.1238(3) 1.1577(8)
H48 H 0.4543 0.1426 1.1694
H49 H 0.4282 0.1274 1.1162
C40 C 0.4133(3) 0.1168(3) 1.2102(8)
H50 H 0.4196 0.1099 1.2493
H51 H 0.3941 0.0999 1.1950
C41 C 0.4076(4) 0.1420(3) 1.2320(9)
H52 H 0.4261 0.1583 1.2518
H53 H 0.4028 0.1501 1.1929
C42 C 0.3826(4) 0.1318(4) 1.2809(8)
H54 H 0.3888 0.1265 1.3225
H55 H 0.3650 0.1136 1.2639
C43 C 0.3737(4) 0.1558(4) 1.2954(10)
H56 H 0.3909 0.1729 1.3169
H57 H 0.3706 0.1630 1.2527
C44 C 0.3474(4) 0.1478(5) 1.3358(15)
H58 H 0.3300 0.1303 1.3169
H59 H 0.3437 0.1646 1.3372
H60 H 0.3509 0.1431 1.3805
C45 C 0.5688(4) 0.1453(3) 0.8407(10)
H61 H 0.5876 0.1590 0.8217
C46 C 0.5195(3) 0.1360(4) 0.8315(9)
H62 H 0.5075 0.1190 0.8025
H63 H 0.5122 0.1502 0.8292
H64 H 0.5179 0.1289 0.8768
C47 C 0.5579(3) 0.1658(3) 0.7529(8)
H65 H 0.5795 0.1796 0.7537
H66 H 0.5475 0.1771 0.7470
H67 H 0.5529 0.1517 0.7163
Mn3 Mn 0.54019(2) -0.03809(2) 1.15216(6)
O8 O 0.54452(11) -0.07149(11) 1.1496(3)
O9 O 0.59916(10) -0.01482(10) 0.9963(3)
O10 O 0.54115(10) 0.00006(11) 1.1453(3)
N7 N 0.56680(11) -0.02092(12) 1.0779(3)
N8 N 0.57181(12) 0.00772(12) 1.0581(3)
N9 N 0.68356(16) -0.07237(18) 0.5610(4)
C48 C 0.56240(18) -0.07699(17) 1.1119(5)
C49 C 0.5633(2) -0.10354(19) 1.1273(5)
H68 H 0.5509 -0.1164 1.1612
C50 C 0.5821(3) -0.1105(2) 1.0931(7)
H69 H 0.5833 -0.1276 1.1051
C51 C 0.5992(3) -0.0927(2) 1.0415(7)
H70 H 0.6120 -0.0976 1.0179
C52 C 0.5973(2) -0.0672(2) 1.0242(5)
H71 H 0.6082 -0.0556 0.9873
C53 C 0.57990(17) -0.05896(16) 1.0604(4)
C54 C 0.58196(15) -0.03040(15) 1.0428(4)
C55 C 0.55726(16) 0.01578(16) 1.0956(4)
C56 C 0.5571(2) 0.04422(19) 1.0806(6)
H72 H 0.5379 0.0389 1.0594
H73 H 0.5732 0.0558 1.0483
C57 C 0.5614(2) 0.0638(2) 1.1376(7)
H74 H 0.5564 0.0794 1.1252
H75 H 0.5482 0.0519 1.1743
C58 C 0.5931(3) 0.0778(3) 1.1577(7)
H76 H 0.5971 0.0622 1.1745
H77 H 0.6060 0.0871 1.1188
C59 C 0.6011(5) 0.1014(4) 1.2103(9)
H78 H 0.5881 0.0916 1.2487
H79 H 0.5958 0.1161 1.1933
C60 C 0.6324(7) 0.1185(5) 1.2349(15)
H80 H 0.6390 0.1045 1.2500
H81 H 0.6458 0.1309 1.1990
C61 C 0.6342(7) 0.1407(6) 1.2978(17)
H82 H 0.6192 0.1281 1.3310
H83 H 0.6285 0.1551 1.2810
C62 C 0.6649(8) 0.1586(11) 1.333(3)
C63 C 0.6939(3) -0.0609(4) 0.6093(9)
H84 H 0.7113 -0.0616 0.6215
C64 C 0.6852(4) -0.0460(4) 0.6541(12)
H85 H 0.6996 -0.0311 0.6824
C65 C 0.6593(4) -0.0522(4) 0.6565(8)
C66 C 0.6430(3) -0.0639(3) 0.5921(9)
H86 H 0.6247 -0.0644 0.5829
C67 C 0.6564(2) -0.0737(3) 0.5476(7)
H87 H 0.6468 -0.0816 0.5067
C68 C 0.6427(4) -0.0424(4) 0.7040(9)
H88 H 0.6369 -0.0550 0.7439
H89 H 0.6242 -0.0452 0.6827
O5I O 0.51295(11) -0.05255(11) 1.2282(3)
N5I N 0.49416(12) -0.06108(12) 1.1088(3)
Mn3I Mn 0.45981(2) 0.03809(2) 0.84784(6)
Mn3D Mn 0.70476(2) -0.08839(3) 0.48549(6)
N9H N 0.57740(24) -0.01689(16) 1.2277(4)
loop_
_geom_bond_atom_site_label_1
_geom_bond_atom_site_label_2
_geom_bond_site_symmetry_1
_geom_bond_site_symmetry_2
Mn1 O1 1_555 1_555
O1 C1 1_555 1_555
O2 C7 1_555 1_555
O3 Mn1 1_555 1_555
N1 Mn1 1_555 1_555
N2 N1 1_555 1_555
N3 Mn1 1_555 1_555
C1 C2 1_555 1_555
C2 H1 1_555 1_555
C3 C2 1_555 1_555
H2 C3 1_555 1_555
C4 C3 1_555 1_555
H3 C4 1_555 1_555
C5 C4 1_555 1_555
H4 C5 1_555 1_555
C6 C1 1_555 1_555
C7 N1 1_555 1_555
C8 O3 1_555 1_555
C9 C8 1_555 1_555
H5 C9 1_555 1_555
H6 C9 1_555 1_555
C10 C9 1_555 1_555
H7 C10 1_555 1_555
H8 C10 1_555 1_555
C11 C10 1_555 1_555
H9 C11 1_555 1_555
H10 C11 1_555 1_555
C12 C11 1_555 1_555
H11 C12 1_555 1_555
H12 C12 1_555 1_555
C13 C12 1_555 1_555
H13 C13 1_555 1_555
H14 C13 1_555 1_555
C14 C13 1_555 1_555
H15 C14 1_555 1_555
H16 C14 1_555 1_555
C15 C14 1_555 1_555
H17 C15 1_555 1_555
H18 C15 1_555 1_555
C16 C15 1_555 1_555
H19 C16 1_555 1_555
H20 C16 1_555 1_555
C17 C16 1_555 1_555
H21 C17 1_555 1_555
H22 C17 1_555 1_555
C18 C17 1_555 1_555
H23 C18 1_555 1_555
H24 C18 1_555 1_555
C19 C18 1_555 1_555
H25 C19 1_555 1_555
H26 C19 1_555 1_555
H27 C19 1_555 1_555
C20 N3 1_555 1_555
H28 C20 1_555 1_555
C21 C20 1_555 1_555
H29 C21 1_555 1_555
C22 C21 1_555 1_555
C23 C22 1_555 1_555
H30 C23 1_555 1_555
C24 N3 1_555 1_555
H31 C24 1_555 1_555
C25 C22 1_555 1_555
H32 C25 1_555 1_555
H33 C25 1_555 1_555
Mn2 O2 1_555 1_555
O4 Mn2 1_555 1_555
O5 C32 1_555 1_555
O6 Mn2 1_555 1_555
O7 Mn2 1_555 1_555
N4 Mn2 1_555 1_555
N5 N4 1_555 1_555
N6 C45 1_555 1_555
C26 O4 1_555 1_555
C27 C26 1_555 1_555
H34 C27 1_555 1_555
C28 C27 1_555 1_555
H35 C28 1_555 1_555
C29 C28 1_555 1_555
H36 C29 1_555 1_555
C30 C29 1_555 1_555
H37 C30 1_555 1_555
C31 C26 1_555 1_555
C32 N4 1_555 1_555
C33 O6 1_555 1_555
C34 C33 1_555 1_555
H38 C34 1_555 1_555
H39 C34 1_555 1_555
C35 C34 1_555 1_555
H40 C35 1_555 1_555
H41 C35 1_555 1_555
C36 C35 1_555 1_555
H42 C36 1_555 1_555
H43 C36 1_555 1_555
C37 C36 1_555 1_555
H44 C37 1_555 1_555
H45 C37 1_555 1_555
C38 C37 1_555 1_555
H46 C38 1_555 1_555
H47 C38 1_555 1_555
C39 C38 1_555 1_555
H48 C39 1_555 1_555
H49 C39 1_555 1_555
C40 C39 1_555 1_555
H50 C40 1_555 1_555
H51 C40 1_555 1_555
C41 C40 1_555 1_555
H52 C41 1_555 1_555
H53 C41 1_555 1_555
C42 C41 1_555 1_555
H54 C42 1_555 1_555
H55 C42 1_555 1_555
C43 C42 1_555 1_555
H56 C43 1_555 1_555
H57 C43 1_555 1_555
C44 C43 1_555 1_555
H58 C44 1_555 1_555
H59 C44 1_555 1_555
H60 C44 1_555 1_555
C45 O7 1_555 1_555
H61 C45 1_555 1_555
C46 N6 1_555 1_555
H62 C46 1_555 1_555
H63 C46 1_555 1_555
H64 C46 1_555 1_555
C47 N6 1_555 1_555
H65 C47 1_555 1_555
H66 C47 1_555 1_555
H67 C47 1_555 1_555
Mn3 O8 1_555 1_555
O8 C48 1_555 1_555
O9 Mn1 1_555 1_555
O10 Mn3 1_555 1_555
N7 Mn3 1_555 1_555
N8 Mn1 1_555 1_555
N9 C63 1_555 1_555
C48 C49 1_555 1_555
C49 H68 1_555 1_555
C50 C49 1_555 1_555
H69 C50 1_555 1_555
C51 C50 1_555 1_555
H70 C51 1_555 1_555
C52 C51 1_555 1_555
H71 C52 1_555 1_555
C53 C48 1_555 1_555
C54 O9 1_555 1_555
C55 O10 1_555 1_555
C56 C55 1_555 1_555
H72 C56 1_555 1_555
H73 C56 1_555 1_555
C57 C56 1_555 1_555
H74 C57 1_555 1_555
H75 C57 1_555 1_555
C58 C57 1_555 1_555
H76 C58 1_555 1_555
H77 C58 1_555 1_555
C59 C58 1_555 1_555
H78 C59 1_555 1_555
H79 C59 1_555 1_555
C60 C59 1_555 1_555
H80 C60 1_555 1_555
H81 C60 1_555 1_555
C61 C60 1_555 1_555
H82 C61 1_555 1_555
H83 C61 1_555 1_555
C62 C61 1_555 1_555
C63 H84 1_555 1_555
C64 C63 1_555 1_555
H85 C64 1_555 1_555
C65 C64 1_555 1_555
C66 C65 1_555 1_555
H86 C66 1_555 1_555
C67 N9 1_555 1_555
H87 C67 1_555 1_555
C68 C25 1_555 1_555
H88 C68 1_555 1_555
H89 C68 1_555 1_555
Mn4 O11 1_555 1_555
O11 C69 1_555 1_555
O12 C75 1_555 1_555
O13 Mn4 1_555 1_555
O14 Mn4 1_555 1_555
N10 Mn4 1_555 1_555
N11 N10 1_555 1_555
N12 C81 1_555 1_555
C69 C70 1_555 1_555
C70 H90 1_555 1_555
C71 C70 1_555 1_555
H91 C71 1_555 1_555
C72 C71 1_555 1_555
H92 C72 1_555 1_555
C73 C72 1_555 1_555
H93 C73 1_555 1_555
C74 C69 1_555 1_555
C75 N10 1_555 1_555
C76 O13 1_555 1_555
C77 C76 1_555 1_555
H94 C77 1_555 1_555
H95 C77 1_555 1_555
C78 C77 1_555 1_555
H96 C78 1_555 1_555
H97 C78 1_555 1_555
C79 C78 1_555 1_555
H98 C79 1_555 1_555
H99 C79 1_555 1_555
C80 C79 1_555 1_555
C81 O14 1_555 1_555
H100 C81 1_555 1_555
C82 N12 1_555 1_555
H101 C82 1_555 1_555
H102 C82 1_555 1_555
H103 C82 1_555 1_555
C83 N12 1_555 1_555
H104 C83 1_555 1_555
H105 C83 1_555 1_555
H106 C83 1_555 1_555
O5I Mn3 1_555 1_555
N5I Mn3 1_555 1_555
Mn3I O5 1_555 1_555
Mn3D N9 1_555 1_555
N9H Mn3 1_555 1_555
Mn4K O12 1_555 1_555
O12J Mn4 1_555 1_555
N11J Mn4 1_555 1_555
N2 C8 1_555 1_555
N2 Mn2 1_555 1_555
C5 C6 1_555 1_555
C6 C7 1_555 1_555
C23 C24 1_555 1_555
N5 C33 1_555 1_555
N5 Mn3I 1_555 1_555
C30 C31 1_555 1_555
C31 C32 1_555 1_555
N7 N8 1_555 1_555
N7 C54 1_555 1_555
N8 C55 1_555 1_555
C52 C53 1_555 1_555
C53 C54 1_555 1_555
C65 C68 1_555 1_555
C66 C67 1_555 1_555
N11 C76 1_555 1_555
N11 Mn4K 1_555 1_555
C73 C74 1_555 1_555
C74 C75 1_555 1_555

#END
