
#######################################################################
#
#                 Cambridge Crystallographic Data Centre
#                                CCDC 
#
#######################################################################
#
# If this CIF has been generated from an entry in the Cambridge 
# Structural Database, then it will include bibliographic, chemical, 
# crystal, experimental, refinement or atomic coordinate data resulting 
# from the CCDC's data processing and validation procedures.
#
#######################################################################

data_FATKAO
_symmetry_cell_setting           monoclinic
_symmetry_space_group_name_H-M   'P 21/n'
_symmetry_Int_Tables_number      14
_space_group_name_Hall           '-P 2yn'
loop_
_symmetry_equiv_pos_site_id
_symmetry_equiv_pos_as_xyz
1 x,y,z
2 1/2-x,1/2+y,1/2-z
3 -x,-y,-z
4 1/2+x,1/2-y,1/2+z
_cell_length_a                   10.190(3)
_cell_length_b                   11.232(3)
_cell_length_c                   22.140(7)
_cell_angle_alpha                90
_cell_angle_beta                 96.863(4)
_cell_angle_gamma                90
_cell_volume                     2515.86
loop_
_atom_site_label
_atom_site_type_symbol
_atom_site_fract_x
_atom_site_fract_y
_atom_site_fract_z
Gd1 Gd 0.61105(3) 0.31383(3) 0.725467(17)
Gd2 Gd 0.25888(4) 0.58827(4) 0.563913(18)
O1 O 0.1211(7) 0.6637(6) 0.6310(3)
O2 O -0.0249(5) 0.7470(5) 0.6822(3)
O3 O 0.3142(6) 0.4866(5) 0.6588(3)
O4 O 0.5971(5) 0.3234(5) 0.6162(3)
O5 O 0.4291(6) 0.4395(5) 0.7474(3)
O6 O 0.6795(6) 0.3701(6) 0.5319(3)
O7 O 0.9400(6) 0.3646(6) 0.4983(3)
O8 O 1.1278(5) 0.4148(5) 0.5532(3)
O9 O 0.6337(5) 0.5214(5) 0.6882(3)
O10 O 0.7314(6) 0.6965(5) 0.7086(3)
O11 O 0.7273(6) 0.4435(5) 0.7995(3)
O12 O 0.8407(6) 0.6144(5) 0.8160(3)
O13 O 0.2684(8) 0.8045(6) 0.5588(4)
O14 O 0.4826(7) 0.6461(7) 0.5992(4)
O15 O 0.3943(6) 0.4236(5) 0.5344(3)
C1 C 0.0789(8) 0.6887(7) 0.6794(4)
C2 C 0.1506(8) 0.6460(7) 0.7375(4)
C3 C 0.2573(8) 0.5729(7) 0.7515(4)
C4 C 0.3406(8) 0.4952(7) 0.7163(4)
C5 C 0.1879(9) 0.6367(8) 0.8356(4)
C6 C 0.1816(12) 0.6559(10) 0.9026(4)
H1 H 0.2499 0.6103 0.9257
H2 H 0.0969 0.6308 0.9128
H3 H 0.1941 0.7388 0.9121
C7 C 0.6922(7) 0.3472(7) 0.5876(3)
C8 C 0.8257(8) 0.3504(7) 0.6238(4)
C9 C 0.9494(8) 0.3713(8) 0.6057(4)
C10 C 1.0056(8) 0.3851(7) 0.5474(4)
C11 C 0.9625(8) 0.3513(8) 0.7061(4)
C12 C 1.0259(9) 0.3454(9) 0.7696(4)
H4 H 0.9598 0.3313 0.7962
H5 H 1.0699 0.4193 0.7803
H6 H 1.0891 0.2816 0.7736
C13 C 0.7041(7) 0.5924(6) 0.7215(4)
C14 C 0.7633(8) 0.5467(7) 0.7850(4)
N1 N 0.1052(7) 0.6876(6) 0.7916(3)
N2 N 0.2771(7) 0.5693(6) 0.8138(3)
H7 H 0.3380 0.5295 0.8352
N3 N 0.8354(6) 0.3401(6) 0.6860(3)
N4 N 1.0340(7) 0.3713(6) 0.6585(3)
H8 H 1.1180 0.3820 0.6614
Gd1A Gd -0.11105(3) 0.81383(3) 0.774533(17)
Gd1A_2 Gd 0.88895(3) 0.81383(3) 0.774533(17)
Gd2B Gd 0.74112(4) 0.41173(4) 0.436087(18)
Gd2_2 Gd 1.25888(4) 0.58827(4) 0.563913(18)
O2A O 0.5249(5) 0.2470(5) 0.8178(3)
O6B O 0.3205(6) 0.6299(6) 0.4681(3)
O7B O 0.0600(6) 0.6354(6) 0.5017(3)
O8_2 O 0.1278(5) 0.4148(5) 0.5532(3)
O10A O 0.7686(6) 0.1965(5) 0.7914(3)
O12A O 0.6593(6) 0.1144(5) 0.6840(3)
N1A N 0.3948(7) 0.1876(6) 0.7084(3)
O16 O 0.4540(11) 0.4359(9) 0.8971(4)
O17 O 0.6346(10) 0.8534(8) 0.5861(4)
O18 O 0.8095(9) 0.6789(10) 0.5669(5)
O19 O 0.103(4) 0.424(3) 1.0310(16)
C15 C 0.241(3) 0.427(2) 1.0595(12)
loop_
_geom_bond_atom_site_label_1
_geom_bond_atom_site_label_2
_geom_bond_site_symmetry_1
_geom_bond_site_symmetry_2
Gd1 O4 1_555 1_555
Gd2 O1 1_555 1_555
O1 C1 1_555 1_555
O2 C1 1_555 1_555
O3 Gd2 1_555 1_555
O4 C7 1_555 1_555
O5 Gd1 1_555 1_555
O6 C7 1_555 1_555
O7 C10 1_555 1_555
O8 C10 1_555 1_555
O9 Gd1 1_555 1_555
O10 C13 1_555 1_555
O11 Gd1 1_555 1_555
O12 C14 1_555 1_555
O13 Gd2 1_555 1_555
O14 Gd2 1_555 1_555
O15 Gd2 1_555 1_555
C1 C2 1_555 1_555
C2 C3 1_555 1_555
C3 C4 1_555 1_555
C4 O3 1_555 1_555
C5 C6 1_555 1_555
C6 H1 1_555 1_555
H2 C6 1_555 1_555
H3 C6 1_555 1_555
C7 C8 1_555 1_555
C8 C9 1_555 1_555
C9 C10 1_555 1_555
C11 C12 1_555 1_555
C12 H4 1_555 1_555
H5 C12 1_555 1_555
H6 C12 1_555 1_555
C13 O9 1_555 1_555
C14 O11 1_555 1_555
N1 C2 1_555 1_555
N2 C3 1_555 1_555
H7 N2 1_555 1_555
N3 Gd1 1_555 1_555
N4 C9 1_555 1_555
H8 N4 1_555 1_555
O19 C15 1_555 1_555
Gd1A O2 1_555 1_555
Gd1A_2 O10 1_555 1_555
Gd2B O6 1_555 1_555
Gd2_2 O8 1_555 1_555
O2A Gd1 1_555 1_555
O6B Gd2 1_555 1_555
O7B Gd2 1_555 1_555
O8_2 Gd2 1_555 1_555
O10A Gd1 1_555 1_555
O12A Gd1 1_555 1_555
N1A Gd1 1_555 1_555
O5 C4 1_555 1_555
O7 Gd2B 1_555 1_555
O12 Gd1A_2 1_555 1_555
C5 N1 1_555 1_555
C5 N2 1_555 1_555
C8 N3 1_555 1_555
C11 N3 1_555 1_555
C11 N4 1_555 1_555
C13 C14 1_555 1_555
N1 Gd1A 1_555 1_555

#END
