
#######################################################################
#
#                 Cambridge Crystallographic Data Centre
#                                CCDC 
#
#######################################################################
#
# If this CIF has been generated from an entry in the Cambridge 
# Structural Database, then it will include bibliographic, chemical, 
# crystal, experimental, refinement or atomic coordinate data resulting 
# from the CCDC's data processing and validation procedures.
#
#######################################################################

data_FAYPIG
_symmetry_cell_setting           triclinic
_symmetry_space_group_name_H-M   'P -1'
_symmetry_Int_Tables_number      2
_space_group_name_Hall           '-P 1'
loop_
_symmetry_equiv_pos_site_id
_symmetry_equiv_pos_as_xyz
1 x,y,z
2 -x,-y,-z
_cell_length_a                   19.562(4)
_cell_length_b                   20.850(2)
_cell_length_c                   23.5730(12)
_cell_angle_alpha                115.321(1)
_cell_angle_beta                 112.654(1)
_cell_angle_gamma                92.849(2)
_cell_volume                     7750.9
loop_
_atom_site_label
_atom_site_type_symbol
_atom_site_fract_x
_atom_site_fract_y
_atom_site_fract_z
Zn1 Zn 0.7808(3) 0.4142(3) 0.5818(2)
Zn2 Zn 0.9849(3) 0.4726(3) 0.6803(3)
Zn3 Zn 0.7187(3) 0.4905(4) 0.4668(3)
Zn4 Zn 0.6991(4) 0.4764(3) 0.7014(3)
Zn5 Zn 0.7184(3) 0.2143(3) 0.4803(3)
C1 C 0.8938(18) 0.247(2) 0.5432(19)
C2 C 0.958(2) 0.3065(17) 0.5901(18)
C3 C 1.031(2) 0.296(2) 0.604(2)
H1 H 1.0737 0.3353 0.6353
C4 C 1.0398(18) 0.226(3) 0.571(2)
H2 H 1.0886 0.2183 0.5799
C5 C 0.976(2) 0.1662(19) 0.524(2)
C6 C 0.903(2) 0.1770(18) 0.5099(18)
H3 H 0.8598 0.1373 0.4785
C7 C 0.986(5) 0.090(3) 0.501(7)
H4 H 0.9373 0.0546 0.4698
H5 H 1.0099 0.0834 0.5421
H6 H 1.0185 0.0821 0.4782
C8 C 0.872(3) 0.537(3) 0.803(2)
C9 C 0.941(4) 0.535(3) 0.799(2)
C10 C 1.010(3) 0.576(3) 0.859(3)
H7 H 1.0562 0.5744 0.8560
C11 C 1.010(3) 0.618(3) 0.923(3)
H8 H 1.0565 0.6450 0.9635
C12 C 0.941(4) 0.620(3) 0.928(2)
C13 C 0.872(3) 0.580(3) 0.867(3)
H9 H 0.8264 0.5808 0.8703
C14 C 0.624(3) 0.310(2) 0.621(3)
C15 C 0.629(3) 0.248(3) 0.568(2)
C16 C 0.584(3) 0.179(3) 0.543(2)
H10 H 0.5868 0.1379 0.5075
C17 C 0.535(3) 0.172(2) 0.570(3)
H11 H 0.5045 0.1255 0.5536
C18 C 0.530(3) 0.233(3) 0.623(3)
C19 C 0.575(3) 0.302(2) 0.649(2)
H12 H 0.5721 0.3432 0.6840
C20 C 0.475(5) 0.226(5) 0.651(5)
H13 H 0.4491 0.1755 0.6293
H14 H 0.4379 0.2533 0.6409
H15 H 0.5022 0.2456 0.7011
C21 C 0.623(2) 0.5464(18) 0.6080(18)
C22 C 0.6297(17) 0.5528(18) 0.5538(18)
C23 C 0.585(2) 0.591(2) 0.5242(16)
H16 H 0.5896 0.5950 0.4880
C24 C 0.535(2) 0.6220(18) 0.549(2)
C25 C 0.528(2) 0.616(2) 0.603(2)
H17 H 0.4942 0.6365 0.6194
C26 C 0.572(3) 0.578(2) 0.6325(17)
H18 H 0.5682 0.5734 0.6687
C27 C 0.482(3) 0.662(3) 0.519(4)
H19 H 0.4892 0.6630 0.4820
H20 H 0.4927 0.7113 0.5559
H21 H 0.4295 0.6370 0.5019
C28 C 0.651(2) 0.260(3) 0.3689(19)
C29 C 0.609(3) 0.191(2) 0.312(3)
H22 H 0.6142 0.1492 0.3174
C30 C 0.559(3) 0.183(2) 0.248(2)
H23 H 0.5313 0.1370 0.2096
C31 C 0.551(2) 0.245(3) 0.2398(15)
C32 C 0.593(2) 0.315(2) 0.2965(19)
H24 H 0.5878 0.3562 0.2913
C33 C 0.643(2) 0.322(2) 0.3611(16)
C34 C 1.659(4) 0.519(5) 0.804(5)
C35 C 1.640(3) 0.552(4) 0.860(3)
C36 C 1.649(3) 0.528(3) 0.907(4)
H25 H 1.6742 0.4908 0.9060
C37 C 1.623(3) 0.558(3) 0.956(2)
H26 H 1.6253 0.5397 0.9861
C38 C 1.593(3) 0.615(3) 0.960(2)
C39 C 1.584(3) 0.642(3) 0.917(3)
H27 H 1.5596 0.6793 0.9192
C40 C 1.612(3) 0.611(4) 0.865(3)
H28 H 1.6116 0.6317 0.8370
C41 C 1.571(3) 0.627(2) 1.055(2)
H29 H 1.6233 0.6333 1.0865
H30 H 1.5453 0.5746 1.0279
C42 C 1.659(5) 0.532(4) 1.377(4)
C43 C 1.636(4) 0.561(3) 1.326(3)
C44 C 1.565(3) 0.555(3) 1.283(3)
H31 H 1.5251 0.5338 1.2866
C45 C 1.546(3) 0.578(3) 1.235(2)
H32 H 1.4947 0.5719 1.2051
C46 C 1.606(3) 0.611(3) 1.232(2)
C47 C 1.681(3) 0.624(3) 1.275(3)
H33 H 1.7206 0.6500 1.2751
C48 C 1.695(3) 0.594(3) 1.322(3)
H34 H 1.7450 0.5969 1.3501
C49 C 1.1966(14) 0.5453(19) 0.8300(13)
C50 C 1.2319(19) 0.4904(13) 0.8347(15)
H35 H 1.2089 0.4418 0.7994
C51 C 1.3018(19) 0.5080(16) 0.8920(19)
H36 H 1.3255 0.4712 0.8951
C52 C 1.3363(14) 0.5806(19) 0.9447(14)
C53 C 1.3009(17) 0.6355(14) 0.9400(14)
H37 H 1.3240 0.6841 0.9752
C54 C 1.2310(17) 0.6179(16) 0.8826(17)
H38 H 1.2074 0.6547 0.8795
C55 C 1.447(2) 0.666(2) 1.048(2)
H39 H 1.4191 0.6876 1.0748
H40 H 1.4494 0.6941 1.0242
C56 C 1.528(2) 0.670(2) 1.097(2)
C57 C 1.521(2) 0.635(2) 1.141(2)
H41 H 1.4939 0.6600 1.1673
H42 H 1.4928 0.5836 1.1105
C58 C 1.575(2) 0.749(2) 1.143(2)
H43 H 1.6263 0.7522 1.1750
H44 H 1.5799 0.7700 1.1145
C59 C 1.664(4) 1.087(4) 1.385(3)
C60 C 1.630(2) 1.0077(16) 1.3286(16)
C61 C 1.561(2) 0.969(2) 1.3153(17)
H45 H 1.5343 0.9925 1.3404
C62 C 1.5304(18) 0.896(2) 1.264(2)
H46 H 1.4840 0.8697 1.2554
C63 C 1.570(3) 0.8605(16) 1.2267(16)
C64 C 1.639(2) 0.899(3) 1.2400(19)
H47 H 1.6652 0.8758 1.2149
C65 C 1.6690(16) 0.973(2) 1.291(2)
H48 H 1.7154 0.9986 1.2999
C66 C 0.960(3) 0.5447(17) 0.5828(18)
C67 C 0.8968(17) 0.5497(19) 0.533(2)
C68 C 0.907(2) 0.588(2) 0.4993(15)
H49 H 0.8642 0.5912 0.4659
C69 C 0.980(3) 0.6209(18) 0.516(2)
H50 H 0.9868 0.6464 0.4933
C70 C 1.044(2) 0.6159(19) 0.566(2)
C71 C 1.0337(19) 0.578(2) 0.5992(16)
H51 H 1.0762 0.5744 0.6326
C72 C 1.120(3) 0.654(3) 0.581(4)
H52 H 1.1597 0.6468 0.6159
H53 H 1.1240 0.7052 0.5977
H54 H 1.1264 0.6335 0.5386
C73 C 1.116(5) 0.517(5) 0.769(4)
N1 N 0.833(2) 0.270(2) 0.534(2)
N2 N 0.856(2) 0.343(2) 0.5794(18)
N3 N 0.929(2) 0.3635(19) 0.6130(19)
N4 N 0.925(3) 0.500(2) 0.734(2)
N5 N 0.847(2) 0.477(2) 0.6980(18)
N6 N 0.815(2) 0.502(2) 0.738(2)
N7 N 0.672(3) 0.367(2) 0.635(2)
N8 N 0.704(2) 0.343(2) 0.591(2)
N9 N 0.680(3) 0.271(3) 0.552(2)
N10 N 0.6809(18) 0.5156(19) 0.5392(17)
N11 N 0.7066(19) 0.4897(17) 0.587(2)
N12 N 0.672(2) 0.508(2) 0.629(2)
N13 N 0.838(2) 0.514(2) 0.5304(18)
N14 N 0.8563(18) 0.4835(18) 0.5711(16)
N15 N 0.933(2) 0.504(2) 0.6049(17)
N16 N 0.691(2) 0.380(2) 0.427(2)
N17 N 0.7146(17) 0.349(3) 0.4654(16)
N18 N 0.695(2) 0.278(3) 0.441(2)
O2 O 1.726(2) 0.539(2) 1.414(2)
O3 O 1.609(3) 0.500(3) 1.380(3)
O4 O 1.5977(15) 0.6417(16) 1.1877(14)
O5 O 1.0910(18) 0.572(3) 0.7637(19)
O6 O 1.087(3) 0.459(3) 0.728(2)
O7 O 1.4079(15) 0.5930(17) 0.9979(14)
O8 O 1.729(2) 1.1186(18) 1.3997(18)
O9 O 1.626(3) 1.119(2) 1.4124(18)
O10 O 1.5368(17) 0.7874(17) 1.1808(16)
O11 O 1.5691(17) 0.6539(16) 1.0094(15)
O12 O 1.688(3) 0.462(3) 0.795(2)
O13 O 1.656(3) 0.541(3) 0.761(2)
C74 C 0.501(5) 0.237(5) 0.172(3)
H55 H 0.4758 0.1863 0.1393
H56 H 0.5309 0.2556 0.1552
H57 H 0.4638 0.2646 0.1764
C75 C 0.942(7) 0.668(5) 0.996(4)
H58 H 0.8901 0.6615 0.9905
H59 H 0.9627 0.7182 1.0113
H60 H 0.9723 0.6548 1.0305
Zn3_2 Zn 1.7187(3) 0.4905(4) 1.4668(3)
Zn4_2 Zn 1.6991(4) 0.4764(3) 0.7014(3)
Zn5_2 Zn 1.7184(3) 1.2143(3) 1.4803(3)
O2_2 O 0.726(2) 0.539(2) 0.414(2)
O3_2 O 0.609(3) 0.500(3) 0.380(3)
O8_2 O 0.729(2) 0.1186(18) 0.3997(18)
O9_2 O 0.626(3) 0.119(2) 0.4124(18)
O12_2 O 0.688(3) 0.462(3) 0.795(2)
O13_2 O 0.656(3) 0.541(3) 0.761(2)
O1 O 0.759(3) 0.150(3) 0.554(3)
loop_
_geom_bond_atom_site_label_1
_geom_bond_atom_site_label_2
_geom_bond_site_symmetry_1
_geom_bond_site_symmetry_2
Zn1 N2 1_555 1_555
Zn2 N3 1_555 1_555
Zn3 N10 1_555 1_555
Zn4 N6 1_555 1_555
Zn5 N1 1_555 1_555
C1 C2 1_555 1_555
C2 C3 1_555 1_555
C3 H1 1_555 1_555
C4 C3 1_555 1_555
H2 C4 1_555 1_555
C5 C4 1_555 1_555
C6 C1 1_555 1_555
H3 C6 1_555 1_555
C7 C5 1_555 1_555
H4 C7 1_555 1_555
H5 C7 1_555 1_555
H6 C7 1_555 1_555
C8 C9 1_555 1_555
C9 C10 1_555 1_555
C10 H7 1_555 1_555
C11 C10 1_555 1_555
H8 C11 1_555 1_555
C12 C11 1_555 1_555
C13 C8 1_555 1_555
H9 C13 1_555 1_555
C14 C15 1_555 1_555
C15 C16 1_555 1_555
C16 H10 1_555 1_555
C17 C16 1_555 1_555
H11 C17 1_555 1_555
C18 C17 1_555 1_555
C19 C14 1_555 1_555
H12 C19 1_555 1_555
C20 C18 1_555 1_555
H13 C20 1_555 1_555
H14 C20 1_555 1_555
H15 C20 1_555 1_555
C21 C22 1_555 1_555
C22 C23 1_555 1_555
C23 H16 1_555 1_555
C24 C23 1_555 1_555
C25 C24 1_555 1_555
H17 C25 1_555 1_555
C26 C21 1_555 1_555
H18 C26 1_555 1_555
C27 C24 1_555 1_555
H19 C27 1_555 1_555
H20 C27 1_555 1_555
H21 C27 1_555 1_555
C28 C29 1_555 1_555
C29 H22 1_555 1_555
C30 C29 1_555 1_555
H23 C30 1_555 1_555
C31 C30 1_555 1_555
C32 C31 1_555 1_555
H24 C32 1_555 1_555
C33 C28 1_555 1_555
C34 C35 1_555 1_555
C35 C36 1_555 1_555
C36 H25 1_555 1_555
C37 C36 1_555 1_555
H26 C37 1_555 1_555
C38 C37 1_555 1_555
C39 C38 1_555 1_555
H27 C39 1_555 1_555
C40 C35 1_555 1_555
H28 C40 1_555 1_555
C41 H29 1_555 1_555
H30 C41 1_555 1_555
C42 C43 1_555 1_555
C43 C44 1_555 1_555
C44 H31 1_555 1_555
C45 C44 1_555 1_555
H32 C45 1_555 1_555
C46 C45 1_555 1_555
C47 C46 1_555 1_555
H33 C47 1_555 1_555
C48 C43 1_555 1_555
H34 C48 1_555 1_555
C49 C50 1_555 1_555
C50 H35 1_555 1_555
C51 C50 1_555 1_555
H36 C51 1_555 1_555
C52 C51 1_555 1_555
C53 C52 1_555 1_555
H37 C53 1_555 1_555
C54 C49 1_555 1_555
H38 C54 1_555 1_555
C55 H39 1_555 1_555
H40 C55 1_555 1_555
C56 C41 1_555 1_555
C57 C56 1_555 1_555
H41 C57 1_555 1_555
H42 C57 1_555 1_555
C58 C56 1_555 1_555
H43 C58 1_555 1_555
H44 C58 1_555 1_555
C59 C60 1_555 1_555
C60 C61 1_555 1_555
C61 H45 1_555 1_555
C62 C61 1_555 1_555
H46 C62 1_555 1_555
C63 C62 1_555 1_555
C64 C63 1_555 1_555
H47 C64 1_555 1_555
C65 C60 1_555 1_555
H48 C65 1_555 1_555
C66 C67 1_555 1_555
C67 C68 1_555 1_555
C68 H49 1_555 1_555
C69 C68 1_555 1_555
H50 C69 1_555 1_555
C70 C69 1_555 1_555
C71 C66 1_555 1_555
H51 C71 1_555 1_555
C72 C70 1_555 1_555
H52 C72 1_555 1_555
H53 C72 1_555 1_555
H54 C72 1_555 1_555
C73 C49 1_555 1_555
N1 C1 1_555 1_555
N2 N1 1_555 1_555
N3 C2 1_555 1_555
N4 Zn2 1_555 1_555
N5 Zn1 1_555 1_555
N6 C8 1_555 1_555
N7 Zn4 1_555 1_555
N8 Zn1 1_555 1_555
N9 Zn5 1_555 1_555
N10 C22 1_555 1_555
N11 Zn1 1_555 1_555
N12 Zn4 1_555 1_555
N13 Zn3 1_555 1_555
N14 Zn1 1_555 1_555
N15 Zn2 1_555 1_555
N16 Zn3 1_555 1_555
N17 Zn1 1_555 1_555
N18 Zn5 1_555 1_555
O2 C42 1_555 1_555
O3 C42 1_555 1_555
O4 C46 1_555 1_555
O5 Zn2 1_555 1_555
O6 Zn2 1_555 1_555
O7 C52 1_555 1_555
O8 C59 1_555 1_555
O9 C59 1_555 1_555
O10 C58 1_555 1_555
O11 C38 1_555 1_555
O12 C34 1_555 1_555
O13 C34 1_555 1_555
C74 C31 1_555 1_555
H55 C74 1_555 1_555
H56 C74 1_555 1_555
H57 C74 1_555 1_555
C75 C12 1_555 1_555
H58 C75 1_555 1_555
H59 C75 1_555 1_555
H60 C75 1_555 1_555
Zn3_2 O2 1_555 1_555
Zn4_2 O12 1_555 1_555
Zn5_2 O8 1_555 1_555
O2_2 Zn3 1_555 1_555
O3_2 Zn3 1_555 1_555
O8_2 Zn5 1_555 1_555
O9_2 Zn5 1_555 1_555
O12_2 Zn4 1_555 1_555
O13_2 Zn4 1_555 1_555
C5 C6 1_555 1_555
C9 N4 1_555 1_555
C12 C13 1_555 1_555
C14 N7 1_555 1_555
C15 N9 1_555 1_555
C18 C19 1_555 1_555
C21 N12 1_555 1_555
C25 C26 1_555 1_555
C28 N18 1_555 1_555
C32 C33 1_555 1_555
C33 N16 1_555 1_555
C39 C40 1_555 1_555
C41 O11 1_555 1_555
C47 C48 1_555 1_555
C53 C54 1_555 1_555
C55 C56 1_555 1_555
C55 O7 1_555 1_555
C57 O4 1_555 1_555
C63 O10 1_555 1_555
C64 C65 1_555 1_555
C66 N15 1_555 1_555
C67 N13 1_555 1_555
C70 C71 1_555 1_555
C73 O5 1_555 1_555
C73 O6 1_555 1_555
N2 N3 1_555 1_555
N4 N5 1_555 1_555
N5 N6 1_555 1_555
N7 N8 1_555 1_555
N8 N9 1_555 1_555
N10 N11 1_555 1_555
N11 N12 1_555 1_555
N13 N14 1_555 1_555
N14 N15 1_555 1_555
N16 N17 1_555 1_555
N17 N18 1_555 1_555
O3 Zn3_2 1_555 1_555
O9 Zn5_2 1_555 1_555
O13 Zn4_2 1_555 1_555

#END
