
#######################################################################
#
#                 Cambridge Crystallographic Data Centre
#                                CCDC 
#
#######################################################################
#
# If this CIF has been generated from an entry in the Cambridge 
# Structural Database, then it will include bibliographic, chemical, 
# crystal, experimental, refinement or atomic coordinate data resulting 
# from the CCDC's data processing and validation procedures.
#
#######################################################################

data_FAYPEC
_symmetry_cell_setting           monoclinic
_symmetry_space_group_name_H-M   'C 2/c'
_symmetry_Int_Tables_number      15
_space_group_name_Hall           '-C 2yn'
loop_
_symmetry_equiv_pos_site_id
_symmetry_equiv_pos_as_xyz
1 x,y,z
2 -x,y,1/2-z
3 1/2+x,1/2+y,z
4 1/2-x,1/2+y,1/2-z
5 -x,-y,-z
6 x,-y,1/2+z
7 1/2-x,1/2-y,-z
8 1/2+x,1/2-y,1/2+z
_cell_length_a                   42.994(5)
_cell_length_b                   20.373(2)
_cell_length_c                   42.045(5)
_cell_angle_alpha                90
_cell_angle_beta                 118.529(2)
_cell_angle_gamma                90
_cell_volume                     32356.1
loop_
_atom_site_label
_atom_site_type_symbol
_atom_site_fract_x
_atom_site_fract_y
_atom_site_fract_z
Zn1 Zn 0.647811(13) 0.16353(2) 0.139718(13)
Zn2 Zn 0.701181(11) 0.01762(2) 0.157348(12)
Zn3 Zn 0.645783(13) -0.12673(3) 0.133772(13)
Zn4 Zn 0.763771(12) 0.00626(2) 0.252221(13)
Zn5 Zn 0.746857(15) 0.02297(3) 0.103043(18)
C1 C 0.33756(13) 0.4542(3) -0.12507(16)
H1 H 0.3231 0.4195 -0.1383
C2 C 0.68416(14) -0.2233(3) 0.22137(17)
H2 H 0.6655 -0.2446 0.2021
C3 C 0.33329(15) 0.5919(3) 0.06721(15)
H3 H 0.3225 0.6298 0.0696
C4 C 0.57228(14) 0.7301(3) 0.09969(15)
C5 C 0.56662(13) 0.3390(3) 0.12738(14)
H4 H 0.5818 0.3333 0.1520
C6 C 0.33830(14) 0.4734(3) 0.07000(15)
H5 H 0.3308 0.4328 0.0738
C7 C 0.76082(13) 0.2535(2) 0.33422(12)
H6 H 0.7767 0.2207 0.3501
H7 H 0.7444 0.2660 0.3425
H8 H 0.7741 0.2913 0.3342
C8 C 0.35892(14) 0.5972(3) 0.05722(13)
H9 H 0.3658 0.6378 0.0527
C9 C 0.6790(2) -0.2388(4) 0.0472(2)
C10 C 0.55900(18) -0.0522(3) 0.10999(19)
H10 H 0.5590 -0.0978 0.1094
C11 C 0.49404(17) -0.0525(4) 0.0924(2)
H11 H 0.4753 -0.0212 0.0857
H12 H 0.4965 -0.0776 0.1128
H13 H 0.4886 -0.0814 0.0724
C12 C 0.36453(13) 0.4769(3) 0.06045(13)
H14 H 0.3755 0.4392 0.0582
C13 C 0.59082(15) 0.0542(4) 0.12036(15)
C14 C 0.6653(2) -0.3053(3) 0.02668(18)
H15 H 0.6481 -0.3238 0.0325
H16 H 0.6848 -0.3352 0.0339
H17 H 0.6546 -0.2978 0.0011
C15 C 0.56083(18) 0.0932(3) 0.11280(18)
H18 H 0.5613 0.1389 0.1128
C16 C 0.51699(13) 0.6786(3) 0.08783(16)
H19 H 0.4974 0.6757 0.0916
C17 C 0.51697(11) 0.3936(2) 0.07802(13)
C18 C 0.52031(13) 0.6360(2) 0.06286(12)
C19 C 0.68214(15) -0.1482(3) 0.08611(15)
C20 C 0.47018(10) 0.45593(19) 0.03170(10)
H20 H 0.4555 0.4187 0.0187
H21 H 0.4850 0.4674 0.0210
C21 C 0.74825(12) 0.1658(3) 0.28665(14)
H22 H 0.7665 0.1407 0.3041
C22 C 0.36015(12) 0.5615(2) -0.12271(12)
H23 H 0.3603 0.5999 -0.1345
C23 C 0.44680(9) 0.5154(2) 0.03046(9)
C24 C 0.57088(12) 0.3012(2) 0.10192(17)
C25 C 0.58961(14) -0.0124(4) 0.11871(15)
C26 C 0.52183(11) 0.3578(2) 0.05309(13)
H24 H 0.5072 0.3646 0.0285
C27 C 0.38284(11) 0.5559(2) -0.08640(13)
H25 H 0.3980 0.5905 -0.0742
C28 C 0.42094(10) 0.49240(19) 0.04340(10)
H26 H 0.4053 0.4589 0.0273
H27 H 0.4338 0.4740 0.0676
C29 C 0.37447(12) 0.5397(3) 0.05406(12)
C30 C 0.46903(10) 0.57342(19) 0.05375(10)
H28 H 0.4541 0.6116 0.0496
H29 H 0.4798 0.5621 0.0792
C31 C 0.66798(15) -0.2108(3) 0.06937(15)
H30 H 0.6512 -0.2320 0.0738
C32 C 0.74014(14) 0.2253(3) 0.29513(14)
C33 C 0.38356(11) 0.4996(2) -0.06758(12)
C34 C 0.71836(16) -0.1420(3) 0.05540(18)
H31 H 0.7338 -0.1201 0.0493
C35 C 0.70116(12) 0.1829(3) 0.22496(13)
C36 C 0.70122(13) 0.3342(2) 0.27737(13)
H32 H 0.6838 0.3544 0.2554
H33 H 0.7217 0.3621 0.2886
H34 H 0.6916 0.3281 0.2936
C37 C 0.53962(13) 0.3851(2) 0.11571(13)
H35 H 0.5364 0.4102 0.1324
C38 C 0.74154(12) -0.1570(3) 0.27974(14)
H36 H 0.7604 -0.1360 0.2990
C39 C 0.72848(12) 0.1427(2) 0.25089(14)
C40 C 0.69253(12) 0.2450(2) 0.23332(15)
H37 H 0.6745 0.2703 0.2158
C41 C 0.31228(14) 0.5140(3) -0.18281(14)
C42 C 0.36047(13) 0.4465(2) -0.08621(14)
H38 H 0.3600 0.4086 -0.0741
C43 C 0.54885(14) 0.3110(2) 0.06498(15)
H39 H 0.5522 0.2864 0.0482
C44 C 0.33683(12) 0.5116(3) -0.14257(13)
C45 C 0.69567(14) -0.1614(3) 0.21703(14)
C46 C 0.72394(13) -0.1280(3) 0.24512(15)
C47 C 0.90303(16) -0.0309(4) 0.1962(2)
H40 H 0.8981 -0.0191 0.1722
H41 H 0.9079 -0.0771 0.1998
H42 H 0.9232 -0.0067 0.2135
C48 C 0.91250(15) -0.0463(4) 0.27488(19)
H43 H 0.9089 -0.0506 0.2957
H44 H 0.9309 -0.0148 0.2799
H45 H 0.9192 -0.0880 0.2694
C49 C 0.71199(16) 0.2665(2) 0.26849(18)
C50 C 0.87509(16) -0.0210(4) 0.2396(2)
C51 C 0.8691(2) -0.0139(5) 0.2016(3)
C52 C 0.32268(14) 0.5311(4) 0.07405(15)
C53 C 0.7041(2) -0.2057(4) 0.04099(19)
C54 C 0.7211(2) -0.2337(3) 0.0171(2)
H46 H 0.7374 -0.2022 0.0166
H47 H 0.7026 -0.2418 -0.0071
H48 H 0.7333 -0.2740 0.0276
C55 C 0.5300(2) -0.0151(5) 0.1027(3)
C56 C 0.5300(2) 0.0563(5) 0.1052(3)
C57 C 0.49609(18) 0.0996(4) 0.0994(3)
H49 H 0.4767 0.0709 0.0951
H50 H 0.4893 0.1281 0.0790
H51 H 0.5021 0.1254 0.1207
C58 C 0.70143(18) -0.2515(3) 0.2553(2)
C59 C 0.72995(16) -0.2166(3) 0.28393(16)
C60 C 0.74903(13) -0.2510(2) 0.32194(13)
H52 H 0.7670 -0.2224 0.3390
H53 H 0.7597 -0.2912 0.3200
H54 H 0.7321 -0.2603 0.3300
C61 C 0.68857(14) -0.3186(2) 0.26077(15)
H55 H 0.6696 -0.3337 0.2382
H56 H 0.6803 -0.3147 0.2782
H57 H 0.7078 -0.3495 0.2694
C62 C 0.81115(14) 0.0060(3) 0.1839(2)
C63 C 0.81466(13) 0.0002(2) 0.21813(19)
C64 C 0.72371(19) 0.2926(3) 0.02613(19)
H58 H 0.7110 0.3331 0.0174
H59 H 0.7203 0.2656 0.0060
H60 H 0.7485 0.3016 0.0408
C65 C 0.67238(13) 0.2571(3) 0.07939(14)
H61 H 0.6559 0.2779 0.0843
C66 C 0.68498(17) 0.2881(3) 0.05809(17)
C67 C 0.70917(18) 0.2547(4) 0.05007(18)
C68 C 0.72110(14) 0.1904(3) 0.06385(15)
H62 H 0.7367 0.1681 0.0582
C69 C 0.54399(17) 0.7256(3) 0.10698(15)
H63 H 0.5428 0.7529 0.1241
C70 C 0.54892(15) 0.6381(3) 0.05816(14)
H64 H 0.5519 0.6083 0.0431
C71 C 0.57455(14) 0.6870(3) 0.07676(16)
H65 H 0.5941 0.6894 0.0729
C72 C 0.29339(16) 0.5251(5) 0.08406(17)
C73 C 0.67248(18) 0.3594(3) 0.04171(19)
H66 H 0.6555 0.3756 0.0485
H67 H 0.6619 0.3575 0.0158
H68 H 0.6926 0.3883 0.0509
C74 C 0.60099(19) 0.7834(4) 0.11698(17)
C75 C 0.84747(14) -0.0139(3) 0.25055(16)
H69 H 0.8505 -0.0177 0.2739
C76 C 0.83806(17) 0.0007(4) 0.17523(19)
H70 H 0.8343 0.0072 0.1517
C77 C 0.42672(10) 0.53994(18) -0.00939(10)
H71 H 0.4434 0.5527 -0.0177
H72 H 0.4121 0.5776 -0.0113
C78 C 0.70718(16) -0.1144(3) 0.07991(15)
C79 C 0.70889(14) 0.1612(3) 0.08615(13)
C80 C 0.68487(12) 0.1950(3) 0.09306(13)
C81 C 0.60146(18) 0.2503(3) 0.1144(2)
N1 N 0.73103(9) 0.08644(18) 0.23404(10)
N2 N 0.70593(9) 0.08965(16) 0.19854(9)
N3 N 0.68769(8) 0.14778(18) 0.19267(9)
N4 N 0.67851(8) 0.1544(2) 0.11510(9)
N5 N 0.69774(9) 0.09898(19) 0.12090(9)
N6 N 0.71651(9) 0.10170(19) 0.10304(10)
N7 N 0.71561(9) -0.0554(2) 0.09951(12)
N8 N 0.69619(10) -0.0562(2) 0.11752(9)
N9 N 0.67613(9) -0.1121(2) 0.10970(10)
N10 N 0.68414(8) -0.1212(2) 0.18665(9)
N11 N 0.70458(9) -0.06559(17) 0.19604(10)
N12 N 0.72916(9) -0.06845(18) 0.23205(10)
N13 N 0.62272(11) -0.03631(18) 0.12760(9)
N14 N 0.64290(8) 0.0186(2) 0.13504(8)
N15 N 0.62407(11) 0.07436(19) 0.13042(9)
N16 N 0.78207(10) 0.00711(16) 0.21691(10)
N17 N 0.75966(8) 0.01651(16) 0.18043(11)
N18 N 0.77587(11) 0.01484(19) 0.15964(11)
O1 O 0.29201(9) 0.46705(19) -0.19750(9)
O2 O 0.31242(9) 0.5664(2) -0.19889(10)
O3 O 0.62270(12) 0.7898(2) 0.10836(13)
O4 O 0.60058(9) 0.8136(2) 0.14414(13)
O5 O 0.62049(10) 0.24001(19) 0.14622(12)
O6 O 0.60397(11) 0.2173(2) 0.08987(13)
O7 O 0.28184(11) 0.5786(2) 0.09070(12)
O8 O 0.28315(11) 0.4703(2) 0.08862(14)
O9 O 0.49182(7) 0.44051(14) 0.07016(7)
O10 O 0.40516(7) 0.48691(13) -0.03070(7)
O11 O 0.40074(8) 0.54846(14) 0.04356(8)
O12 O 0.49579(8) 0.58728(15) 0.04378(7)
Zn3_2 Zn 0.645783(13) 0.87327(3) 0.133772(13)
Zn4G Zn 0.263771(12) 0.49374(2) -0.247779(13)
Zn5B Zn 0.246857(15) 0.52297(3) 0.103043(18)
O1G O 0.79201(9) 0.03295(19) 0.30250(9)
O3_2 O 0.62270(12) -0.2102(2) 0.10836(13)
O7B O 0.78184(11) 0.0786(2) 0.09070(12)
O8B O 0.78315(11) -0.0297(2) 0.08862(14)
O13 O 0.70440(14) 0.0252(2) 0.03215(14)
loop_
_geom_bond_atom_site_label_1
_geom_bond_atom_site_label_2
_geom_bond_site_symmetry_1
_geom_bond_site_symmetry_2
Zn1 N3 1_555 1_555
Zn2 N2 1_555 1_555
Zn3 N9 1_555 1_555
Zn4 N1 1_555 1_555
Zn5 N6 1_555 1_555
C1 H1 1_555 1_555
C2 H2 1_555 1_555
C3 H3 1_555 1_555
C4 C69 1_555 1_555
C5 H4 1_555 1_555
C6 H5 1_555 1_555
C7 H6 1_555 1_555
H7 C7 1_555 1_555
H8 C7 1_555 1_555
C8 C3 1_555 1_555
H9 C8 1_555 1_555
C9 C14 1_555 1_555
C10 H10 1_555 1_555
C11 H11 1_555 1_555
H12 C11 1_555 1_555
H13 C11 1_555 1_555
C12 C6 1_555 1_555
H14 C12 1_555 1_555
C13 C15 1_555 1_555
C14 H15 1_555 1_555
H16 C14 1_555 1_555
H17 C14 1_555 1_555
C15 H18 1_555 1_555
C16 H19 1_555 1_555
C17 C26 1_555 1_555
C18 C16 1_555 1_555
C19 C31 1_555 1_555
C20 H20 1_555 1_555
H21 C20 1_555 1_555
C21 H22 1_555 1_555
C22 H23 1_555 1_555
C23 C20 1_555 1_555
C24 C5 1_555 1_555
C25 C10 1_555 1_555
C26 H24 1_555 1_555
C27 C22 1_555 1_555
H25 C27 1_555 1_555
C28 C23 1_555 1_555
H26 C28 1_555 1_555
H27 C28 1_555 1_555
C29 C8 1_555 1_555
C30 C23 1_555 1_555
H28 C30 1_555 1_555
H29 C30 1_555 1_555
C31 C9 1_555 1_555
H30 C31 1_555 1_555
C32 C7 1_555 1_555
C33 C27 1_555 1_555
C34 H31 1_555 1_555
C35 C39 1_555 1_555
C36 H32 1_555 1_555
H33 C36 1_555 1_555
H34 C36 1_555 1_555
C37 C5 1_555 1_555
H35 C37 1_555 1_555
C38 H36 1_555 1_555
C39 C21 1_555 1_555
C40 C35 1_555 1_555
H37 C40 1_555 1_555
C41 C44 1_555 1_555
C42 C1 1_555 1_555
H38 C42 1_555 1_555
C43 C24 1_555 1_555
H39 C43 1_555 1_555
C44 C1 1_555 1_555
C45 C2 1_555 1_555
C46 C38 1_555 1_555
C47 H40 1_555 1_555
H41 C47 1_555 1_555
H42 C47 1_555 1_555
C48 H43 1_555 1_555
H44 C48 1_555 1_555
H45 C48 1_555 1_555
C49 C32 1_555 1_555
C50 C48 1_555 1_555
C51 C47 1_555 1_555
C52 C3 1_555 1_555
C53 C9 1_555 1_555
C54 C53 1_555 1_555
H46 C54 1_555 1_555
H47 C54 1_555 1_555
H48 C54 1_555 1_555
C55 C10 1_555 1_555
C56 C15 1_555 1_555
C57 C56 1_555 1_555
H49 C57 1_555 1_555
H50 C57 1_555 1_555
H51 C57 1_555 1_555
C58 C2 1_555 1_555
C59 C38 1_555 1_555
C60 C59 1_555 1_555
H52 C60 1_555 1_555
H53 C60 1_555 1_555
H54 C60 1_555 1_555
C61 C58 1_555 1_555
H55 C61 1_555 1_555
H56 C61 1_555 1_555
H57 C61 1_555 1_555
C62 C63 1_555 1_555
C63 C75 1_555 1_555
C64 H58 1_555 1_555
H59 C64 1_555 1_555
H60 C64 1_555 1_555
C65 H61 1_555 1_555
C66 C65 1_555 1_555
C67 C64 1_555 1_555
C68 C67 1_555 1_555
H62 C68 1_555 1_555
C69 C16 1_555 1_555
H63 C69 1_555 1_555
C70 C18 1_555 1_555
H64 C70 1_555 1_555
C71 C4 1_555 1_555
H65 C71 1_555 1_555
C72 C52 1_555 1_555
C73 C66 1_555 1_555
H66 C73 1_555 1_555
H67 C73 1_555 1_555
H68 C73 1_555 1_555
C74 C4 1_555 1_555
C75 C50 1_555 1_555
H69 C75 1_555 1_555
C76 C51 1_555 1_555
H70 C76 1_555 1_555
C77 C23 1_555 1_555
H71 C77 1_555 1_555
H72 C77 1_555 1_555
C78 C19 1_555 1_555
C79 C68 1_555 1_555
C80 C65 1_555 1_555
C81 C24 1_555 1_555
N1 C39 1_555 1_555
N2 N1 1_555 1_555
N3 C35 1_555 1_555
N4 Zn1 1_555 1_555
N5 Zn2 1_555 1_555
N6 C79 1_555 1_555
N7 Zn5 1_555 1_555
N8 Zn2 1_555 1_555
N9 C19 1_555 1_555
N10 Zn3 1_555 1_555
N11 Zn2 1_555 1_555
N12 Zn4 1_555 1_555
N13 Zn3 1_555 1_555
N14 Zn2 1_555 1_555
N15 Zn1 1_555 1_555
N16 Zn4 1_555 1_555
N17 Zn2 1_555 1_555
N18 Zn5 1_555 1_555
O1 C41 1_555 1_555
O2 C41 1_555 1_555
O3 C74 1_555 1_555
O4 C74 1_555 1_555
O5 Zn1 1_555 1_555
O6 Zn1 1_555 1_555
O7 C72 1_555 1_555
O8 C72 1_555 1_555
O9 C17 1_555 1_555
O10 C33 1_555 1_555
O11 C28 1_555 1_555
O12 C18 1_555 1_555
Zn3_2 O3 1_555 1_555
Zn4G O1 1_555 1_555
Zn5B O7 1_555 1_555
O1G Zn4 1_555 1_555
O3_2 Zn3 1_555 1_555
O7B Zn5 1_555 1_555
O8B Zn5 1_555 1_555
C6 C52 1_555 1_555
C11 C55 1_555 1_555
C12 C29 1_555 1_555
C13 C25 1_555 1_555
C13 N15 1_555 1_555
C17 C37 1_555 1_555
C20 O9 1_555 1_555
C21 C32 1_555 1_555
C22 C44 1_555 1_555
C25 N13 1_555 1_555
C26 C43 1_555 1_555
C29 O11 1_555 1_555
C30 O12 1_555 1_555
C33 C42 1_555 1_555
C34 C53 1_555 1_555
C34 C78 1_555 1_555
C36 C49 1_555 1_555
C40 C49 1_555 1_555
C45 C46 1_555 1_555
C45 N10 1_555 1_555
C46 N12 1_555 1_555
C50 C51 1_555 1_555
C55 C56 1_555 1_555
C58 C59 1_555 1_555
C62 C76 1_555 1_555
C62 N18 1_555 1_555
C63 N16 1_555 1_555
C66 C67 1_555 1_555
C70 C71 1_555 1_555
C77 O10 1_555 1_555
C78 N7 1_555 1_555
C79 C80 1_555 1_555
C80 N4 1_555 1_555
C81 O5 1_555 1_555
C81 O6 1_555 1_555
N2 N3 1_555 1_555
N4 N5 1_555 1_555
N5 N6 1_555 1_555
N7 N8 1_555 1_555
N8 N9 1_555 1_555
N10 N11 1_555 1_555
N11 N12 1_555 1_555
N13 N14 1_555 1_555
N14 N15 1_555 1_555
N16 N17 1_555 1_555
N17 N18 1_555 1_555
O8 Zn5B 1_555 1_555

#END
