
#######################################################################
#
#                 Cambridge Crystallographic Data Centre
#                                CCDC 
#
#######################################################################
#
# If this CIF has been generated from an entry in the Cambridge 
# Structural Database, then it will include bibliographic, chemical, 
# crystal, experimental, refinement or atomic coordinate data resulting 
# from the CCDC's data processing and validation procedures.
#
#######################################################################

data_FAYQUT
_symmetry_cell_setting           monoclinic
_symmetry_space_group_name_H-M   'C 2/c'
_symmetry_Int_Tables_number      15
_space_group_name_Hall           '-C 2yn'
loop_
_symmetry_equiv_pos_site_id
_symmetry_equiv_pos_as_xyz
1 x,y,z
2 -x,y,1/2-z
3 1/2+x,1/2+y,z
4 1/2-x,1/2+y,1/2-z
5 -x,-y,-z
6 x,-y,1/2+z
7 1/2-x,1/2-y,-z
8 1/2+x,1/2-y,1/2+z
_cell_length_a                   56.861(4)
_cell_length_b                   24.4238(15)
_cell_length_c                   27.1242(15)
_cell_angle_alpha                90
_cell_angle_beta                 117.7238(10)
_cell_angle_gamma                90
_cell_volume                     33344.7
loop_
_atom_site_label
_atom_site_type_symbol
_atom_site_fract_x
_atom_site_fract_y
_atom_site_fract_z
Zn1 Zn 0.2243(4) 1.0771(9) 0.0691(9)
Zn2 Zn 0.2653(4) 1.0774(10) 0.0018(10)
Zn3 Zn 0.1814(4) 1.1926(11) 0.0229(10)
Zn4 Zn 0.2642(5) 1.0873(11) 0.2165(10)
Zn5 Zn 0.1864(6) 0.9502(13) 0.0360(13)
C1 C 0.232(4) 0.984(9) 0.207(10)
C2 C 0.215(5) 0.952(10) 0.165(10)
C3 C 0.203(6) 0.899(11) 0.174(12)
H1 H 0.1919 0.8756 0.1465
C4 C 0.213(6) 0.893(12) 0.231(14)
H2 H 0.2056 0.8636 0.2417
C5 C 0.231(7) 0.926(12) 0.275(14)
H3 H 0.2366 0.9151 0.3118
C6 C 0.240(5) 0.972(11) 0.263(11)
H4 H 0.2518 0.9951 0.2915
C7 C 0.234(3) 1.185(7) -0.047(7)
C8 C 0.214(3) 1.210(7) -0.041(7)
C9 C 0.202(4) 1.261(8) -0.071(8)
H5 H 0.1890 1.2805 -0.0669
C10 C 0.212(4) 1.277(9) -0.108(9)
H6 H 0.2052 1.3072 -0.1303
C11 C 0.233(4) 1.248(9) -0.111(8)
H7 H 0.2392 1.2630 -0.1338
C12 C 0.244(4) 1.200(8) -0.084(7)
H8 H 0.2571 1.1809 -0.0885
C13 C 0.231(5) 0.973(10) -0.051(10)
C14 C 0.239(5) 0.960(11) -0.091(10)
H9 H 0.2509 0.9808 -0.0983
C15 C 0.227(7) 0.914(14) -0.117(14)
H10 H 0.2314 0.9023 -0.1447
C16 C 0.211(7) 0.884(14) -0.109(14)
H11 H 0.2044 0.8519 -0.1301
C17 C 0.202(6) 0.895(13) -0.073(13)
H12 H 0.1902 0.8730 -0.0682
C18 C 0.213(6) 0.946(12) -0.040(12)
C19 C 0.202(6) 1.276(12) 0.149(13)
H13 H 0.1882 1.2919 0.1184
C20 C 0.214(4) 1.221(9) 0.145(9)
C21 C 0.234(5) 1.195(9) 0.196(10)
C22 C 0.245(5) 1.221(11) 0.249(12)
H14 H 0.2571 1.2039 0.2815
C23 C 0.235(7) 1.277(15) 0.247(15)
H15 H 0.2425 1.2978 0.2794
C24 C 0.214(8) 1.300(16) 0.198(18)
H16 H 0.2073 1.3341 0.2011
C25 C 0.308(5) 1.082(7) 0.129(9)
C26 C 0.308(5) 1.085(8) 0.176(10)
C27 C 0.331(6) 1.085(8) 0.229(11)
H17 H 0.3316 1.0827 0.2634
C28 C 0.353(6) 1.089(9) 0.221(12)
H18 H 0.3694 1.0911 0.2528
C29 C 0.354(7) 1.089(10) 0.174(13)
H19 H 0.3705 1.0953 0.1753
C30 C 0.331(5) 1.081(8) 0.121(11)
H20 H 0.3317 1.0757 0.0878
C31 C 0.141(6) 1.101(14) -0.011(10)
C32 C 0.143(6) 1.044(15) -0.007(9)
C33 C 0.120(9) 1.012(8) -0.034(13)
H21 H 0.1207 0.9744 -0.0309
C34 C 0.095(6) 1.038(17) -0.065(12)
H22 H 0.0799 1.0165 -0.0829
C35 C 0.094(6) 1.094(18) -0.069(11)
H23 H 0.0773 1.1112 -0.0900
C36 C 0.116(9) 1.126(8) -0.042(13)
H24 H 0.1154 1.1638 -0.0451
C37 C 0.651(6) 1.393(12) 0.005(14)
C38 C 0.627(6) 1.355(12) -0.024(14)
C39 C 0.616(8) 1.333(14) -0.076(17)
H25 H 0.6213 1.3455 -0.1010
C40 C 0.595(5) 1.289(12) -0.095(13)
H26 H 0.5916 1.2688 -0.1270
C41 C 0.580(6) 1.278(11) -0.068(13)
C42 C 0.592(6) 1.303(12) -0.014(16)
H27 H 0.5837 1.2986 0.0095
C43 C 0.617(8) 1.336(16) 0.006(17)
H28 H 0.6257 1.3437 0.0439
C44 C 0.541(4) 1.226(8) -0.149(9)
H29 H 0.5456 1.2431 -0.1746
C45 C 0.520(4) 1.189(8) -0.168(7)
H30 H 0.5103 1.1819 -0.2055
C46 C 0.514(4) 1.164(8) -0.130(8)
C47 C 0.529(5) 1.175(9) -0.073(8)
H31 H 0.5243 1.1577 -0.0477
C48 C 0.550(4) 1.211(9) -0.055(7)
H32 H 0.5595 1.2188 -0.0168
C49 C 0.556(4) 1.237(8) -0.093(10)
C50 C 0.481(6) 1.128(12) -0.188(14)
H33 H 0.4839 1.1383 -0.2192
H34 H 0.4727 1.1597 -0.1799
C51 C 0.647(7) 0.756(13) -0.003(15)
C52 C 0.623(6) 0.799(11) -0.032(11)
C53 C 0.604(6) 0.798(11) -0.013(11)
H35 H 0.6058 0.7732 0.0152
C54 C 0.582(6) 0.834(12) -0.036(12)
H36 H 0.5688 0.8332 -0.0243
C55 C 0.580(6) 0.871(12) -0.080(12)
C56 C 0.599(5) 0.868(11) -0.098(10)
H37 H 0.5981 0.8919 -0.1252
C57 C 0.618(5) 0.829(10) -0.076(11)
H38 H 0.6279 0.8237 -0.0943
C58 C 0.556(4) 0.913(9) -0.099(11)
C59 C 0.547(6) 0.932(12) -0.062(8)
H39 H 0.5548 0.9191 -0.0256
C60 C 0.526(6) 0.969(14) -0.080(9)
H40 H 0.5201 0.9813 -0.0550
C61 C 0.514(5) 0.987(10) -0.135(9)
C62 C 0.523(4) 0.969(8) -0.172(7)
H41 H 0.5146 0.9813 -0.2082
C63 C 0.543(4) 0.932(8) -0.154(10)
H42 H 0.5493 0.9191 -0.1788
C64 C 0.479(7) 1.032(16) -0.183(15)
H43 H 0.4675 1.0011 -0.1865
H44 H 0.4868 1.0244 -0.2074
C65 C 0.461(4) 1.082(9) -0.206(8)
C66 C 0.447(4) 1.074(9) -0.172(9)
H45 H 0.4594 1.0593 -0.1362
H46 H 0.4422 1.1105 -0.1648
C67 C 0.290(8) 1.090(13) -0.682(13)
C68 C 0.310(6) 1.089(9) -0.620(11)
C69 C 0.333(11) 1.106(17) -0.61(2)
H47 H 0.3372 1.1265 -0.6294
C70 C 0.354(11) 1.092(17) -0.55(2)
H48 H 0.3717 1.0847 -0.5428
C71 C 0.349(6) 1.090(9) -0.509(11)
C72 C 0.322(8) 1.086(11) -0.523(15)
H49 H 0.3167 1.0845 -0.4959
C73 C 0.303(8) 1.086(11) -0.582(17)
H50 H 0.2853 1.0831 -0.5918
C74 C 0.370(4) 1.089(10) -0.452(7)
C75 C 0.381(5) 1.138(8) -0.426(10)
H51 H 0.3747 1.1710 -0.4452
C76 C 0.400(5) 1.139(10) -0.370(11)
H52 H 0.4070 1.1725 -0.3526
C77 C 0.409(4) 1.091(14) -0.341(7)
C78 C 0.399(5) 1.041(10) -0.367(11)
H53 H 0.4046 1.0083 -0.3474
C79 C 0.379(5) 1.040(8) -0.422(11)
H54 H 0.3724 1.0068 -0.4400
C80 C 0.440(5) 1.060(12) -0.264(9)
H55 H 0.4485 1.0444 -0.2846
H56 H 0.4292 1.0316 -0.2591
C81 C 0.291(7) 1.077(10) -0.047(15)
C82 C 0.310(4) 1.076(7) -0.072(9)
C83 C 0.304(5) 1.071(8) -0.121(11)
H57 H 0.2859 1.0691 -0.1453
C84 C 0.322(6) 1.068(9) -0.144(11)
H58 H 0.3159 1.0621 -0.1822
C85 C 0.349(5) 1.073(8) -0.108(10)
C86 C 0.357(7) 1.081(11) -0.052(14)
H59 H 0.3750 1.0883 -0.0277
C87 C 0.337(8) 1.078(11) -0.033(16)
H60 H 0.3416 1.0779 0.0053
C88 C 0.368(4) 1.077(12) -0.130(9)
C89 C 0.371(6) 1.030(9) -0.155(11)
H61 H 0.3589 1.0012 -0.1636
C90 C 0.392(7) 1.025(11) -0.167(12)
H62 H 0.3941 0.9939 -0.1839
C91 C 0.410(5) 1.068(15) -0.154(11)
C92 C 0.407(5) 1.115(12) -0.129(11)
H63 H 0.4191 1.1440 -0.1203
C93 C 0.386(6) 1.120(9) -0.117(9)
H64 H 0.3838 1.1512 -0.1000
N1 N 0.208(3) 1.183(6) -0.007(5)
N2 N 0.224(3) 1.140(6) 0.009(6)
N3 N 0.240(3) 1.139(5) -0.015(5)
N4 N 0.239(3) 1.015(6) -0.015(7)
N5 N 0.225(3) 1.014(6) 0.014(6)
N6 N 0.282(3) 1.083(5) 0.168(7)
N7 N 0.268(3) 1.080(5) 0.113(7)
N8 N 0.282(3) 1.079(5) 0.083(6)
N9 N 0.238(3) 1.025(6) 0.186(7)
N10 N 0.225(3) 1.018(6) 0.133(7)
N11 N 0.167(4) 1.117(8) 0.009(7)
N12 N 0.180(3) 1.073(7) 0.024(6)
N13 N 0.169(4) 1.027(8) 0.014(7)
N14 N 0.223(3) 1.143(6) 0.123(6)
N15 N 0.207(3) 1.188(6) 0.103(6)
N16 N 0.210(3) 0.972(7) 0.117(7)
N17 N 0.239(3) 1.149(6) 0.177(7)
N18 N 0.210(4) 0.970(7) -0.001(7)
O1 O 0.658(4) 0.753(7) -0.029(8)
O2 O 0.649(4) 0.737(8) 0.036(9)
O3 O 0.294(5) 1.086(9) -0.713(12)
O4 O 0.267(6) 1.094(10) -0.693(11)
O5 O 0.269(5) 1.075(7) -0.080(9)
O6 O 0.297(5) 1.079(7) -0.005(10)
O7 O 0.657(4) 1.404(8) -0.035(9)
O8 O 0.655(5) 1.408(8) 0.051(10)
O9 O 0.498(6) 1.031(11) -0.134(13)
O10 O 0.425(5) 1.045(10) -0.189(10)
O11 O 0.496(5) 1.124(9) -0.135(10)
O12 O 0.428(4) 1.094(9) -0.285(8)
Zn3B Zn 0.6814(4) 0.6926(11) 0.0229(10)
Zn4_2 Zn 0.2642(5) 1.0873(11) -0.7835(10)
Zn5B Zn 0.6864(6) 1.4502(13) 0.0360(13)
O1B O 0.158(4) 1.253(7) -0.029(8)
O3_2 O 0.294(5) 1.086(9) 0.287(12)
O7B O 0.157(4) 0.904(8) -0.035(9)
O13 O 0.212(4) 0.861(8) 0.063(8)
O14? O 0.490(11) 1.01(3) 0.828(19)
O15? O 0.427(6) 1.107(12) 0.811(12)
O16? O 0.50(4) 1.12(6) 0.84(3)
loop_
_geom_bond_atom_site_label_1
_geom_bond_atom_site_label_2
_geom_bond_site_symmetry_1
_geom_bond_site_symmetry_2
Zn1 N2 1_555 1_555
Zn2 N3 1_555 1_555
Zn3 N1 1_555 1_555
Zn4 N6 1_555 1_555
Zn5 N13 1_555 1_555
C1 C2 1_555 1_555
C2 C3 1_555 1_555
C3 H1 1_555 1_555
C4 C3 1_555 1_555
H2 C4 1_555 1_555
C5 C4 1_555 1_555
H3 C5 1_555 1_555
C6 C1 1_555 1_555
H4 C6 1_555 1_555
C7 C8 1_555 1_555
C8 C9 1_555 1_555
C9 H5 1_555 1_555
C10 C9 1_555 1_555
H6 C10 1_555 1_555
C11 C10 1_555 1_555
H7 C11 1_555 1_555
C12 C7 1_555 1_555
H8 C12 1_555 1_555
C13 C14 1_555 1_555
C14 H9 1_555 1_555
C15 C14 1_555 1_555
H10 C15 1_555 1_555
C16 C15 1_555 1_555
H11 C16 1_555 1_555
C17 C16 1_555 1_555
H12 C17 1_555 1_555
C18 C13 1_555 1_555
C19 H13 1_555 1_555
C20 C19 1_555 1_555
C21 C20 1_555 1_555
C22 C21 1_555 1_555
H14 C22 1_555 1_555
C23 C22 1_555 1_555
H15 C23 1_555 1_555
C24 C19 1_555 1_555
H16 C24 1_555 1_555
C25 C26 1_555 1_555
C26 C27 1_555 1_555
C27 H17 1_555 1_555
C28 C27 1_555 1_555
H18 C28 1_555 1_555
C29 C28 1_555 1_555
H19 C29 1_555 1_555
C30 C25 1_555 1_555
H20 C30 1_555 1_555
C31 C32 1_555 1_555
C32 C33 1_555 1_555
C33 H21 1_555 1_555
C34 C33 1_555 1_555
H22 C34 1_555 1_555
C35 C34 1_555 1_555
H23 C35 1_555 1_555
C36 C31 1_555 1_555
H24 C36 1_555 1_555
C37 C38 1_555 1_555
C38 C39 1_555 1_555
C39 H25 1_555 1_555
C40 C39 1_555 1_555
H26 C40 1_555 1_555
C41 C40 1_555 1_555
C42 C41 1_555 1_555
H27 C42 1_555 1_555
C43 C38 1_555 1_555
H28 C43 1_555 1_555
C44 H29 1_555 1_555
C45 C44 1_555 1_555
H30 C45 1_555 1_555
C46 C45 1_555 1_555
C47 C46 1_555 1_555
H31 C47 1_555 1_555
C48 C47 1_555 1_555
H32 C48 1_555 1_555
C49 C41 1_555 1_555
C50 H33 1_555 1_555
H34 C50 1_555 1_555
C51 C52 1_555 1_555
C52 C53 1_555 1_555
C53 H35 1_555 1_555
C54 C53 1_555 1_555
H36 C54 1_555 1_555
C55 C54 1_555 1_555
C56 C55 1_555 1_555
H37 C56 1_555 1_555
C57 C52 1_555 1_555
H38 C57 1_555 1_555
C58 C55 1_555 1_555
C59 C58 1_555 1_555
H39 C59 1_555 1_555
C60 C59 1_555 1_555
H40 C60 1_555 1_555
C61 C60 1_555 1_555
C62 C61 1_555 1_555
H41 C62 1_555 1_555
C63 C58 1_555 1_555
H42 C63 1_555 1_555
C64 H43 1_555 1_555
H44 C64 1_555 1_555
C65 C50 1_555 1_555
C66 C65 1_555 1_555
H45 C66 1_555 1_555
H46 C66 1_555 1_555
C67 C68 1_555 1_555
C68 C69 1_555 1_555
C69 H47 1_555 1_555
C70 C69 1_555 1_555
H48 C70 1_555 1_555
C71 C70 1_555 1_555
C72 C71 1_555 1_555
H49 C72 1_555 1_555
C73 C68 1_555 1_555
H50 C73 1_555 1_555
C74 C71 1_555 1_555
C75 C74 1_555 1_555
H51 C75 1_555 1_555
C76 C75 1_555 1_555
H52 C76 1_555 1_555
C77 C76 1_555 1_555
C78 C77 1_555 1_555
H53 C78 1_555 1_555
C79 C74 1_555 1_555
H54 C79 1_555 1_555
C80 C65 1_555 1_555
H55 C80 1_555 1_555
H56 C80 1_555 1_555
C81 C82 1_555 1_555
C82 C83 1_555 1_555
C83 H57 1_555 1_555
C84 C83 1_555 1_555
H58 C84 1_555 1_555
C85 C84 1_555 1_555
C86 C85 1_555 1_555
H59 C86 1_555 1_555
C87 C82 1_555 1_555
H60 C87 1_555 1_555
C88 C85 1_555 1_555
C89 C88 1_555 1_555
H61 C89 1_555 1_555
C90 C89 1_555 1_555
H62 C90 1_555 1_555
C91 C90 1_555 1_555
C92 C91 1_555 1_555
H63 C92 1_555 1_555
C93 C88 1_555 1_555
H64 C93 1_555 1_555
N1 C8 1_555 1_555
N2 N1 1_555 1_555
N3 C7 1_555 1_555
N4 Zn2 1_555 1_555
N5 Zn1 1_555 1_555
N6 C26 1_555 1_555
N7 Zn1 1_555 1_555
N8 Zn2 1_555 1_555
N9 Zn4 1_555 1_555
N10 Zn1 1_555 1_555
N11 Zn3 1_555 1_555
N12 Zn1 1_555 1_555
N13 C32 1_555 1_555
N14 Zn1 1_555 1_555
N15 Zn3 1_555 1_555
N16 Zn5 1_555 1_555
N17 Zn4 1_555 1_555
N18 Zn5 1_555 1_555
O1 C51 1_555 1_555
O2 C51 1_555 1_555
O3 C67 1_555 1_555
O4 C67 1_555 1_555
O5 C81 1_555 1_555
O6 Zn2 1_555 1_555
O7 C37 1_555 1_555
O8 C37 1_555 1_555
O9 C61 1_555 1_555
O10 C66 1_555 1_555
O11 C46 1_555 1_555
O12 C77 1_555 1_555
Zn3B O1 1_555 1_555
Zn4_2 O3 1_555 1_555
Zn5B O7 1_555 1_555
O1B Zn3 1_555 1_555
O3_2 Zn4 1_555 1_555
O7B Zn5 1_555 1_555
C1 N9 1_555 1_555
C2 N16 1_555 1_555
C5 C6 1_555 1_555
C11 C12 1_555 1_555
C13 N4 1_555 1_555
C17 C18 1_555 1_555
C18 N18 1_555 1_555
C20 N15 1_555 1_555
C21 N17 1_555 1_555
C23 C24 1_555 1_555
C25 N8 1_555 1_555
C29 C30 1_555 1_555
C31 N11 1_555 1_555
C35 C36 1_555 1_555
C42 C43 1_555 1_555
C44 C49 1_555 1_555
C48 C49 1_555 1_555
C50 O11 1_555 1_555
C56 C57 1_555 1_555
C62 C63 1_555 1_555
C64 C65 1_555 1_555
C64 O9 1_555 1_555
C72 C73 1_555 1_555
C78 C79 1_555 1_555
C80 O12 1_555 1_555
C81 O6 1_555 1_555
C86 C87 1_555 1_555
C91 O10 1_555 1_555
C92 C93 1_555 1_555
N2 N3 1_555 1_555
N4 N5 1_555 1_555
N5 N18 1_555 1_555
N6 N7 1_555 1_555
N7 N8 1_555 1_555
N9 N10 1_555 1_555
N10 N16 1_555 1_555
N11 N12 1_555 1_555
N12 N13 1_555 1_555
N14 N15 1_555 1_555
N14 N17 1_555 1_555

#END
