
#######################################################################
#
#                 Cambridge Crystallographic Data Centre
#                                CCDC 
#
#######################################################################
#
# If this CIF has been generated from an entry in the Cambridge 
# Structural Database, then it will include bibliographic, chemical, 
# crystal, experimental, refinement or atomic coordinate data resulting 
# from the CCDC's data processing and validation procedures.
#
#######################################################################

data_FAYQON
_symmetry_cell_setting           monoclinic
_symmetry_space_group_name_H-M   'C 2/c'
_symmetry_Int_Tables_number      15
_space_group_name_Hall           '-C 2yn'
loop_
_symmetry_equiv_pos_site_id
_symmetry_equiv_pos_as_xyz
1 x,y,z
2 -x,y,1/2-z
3 1/2+x,1/2+y,z
4 1/2-x,1/2+y,1/2-z
5 -x,-y,-z
6 x,-y,1/2+z
7 1/2-x,1/2-y,-z
8 1/2+x,1/2-y,1/2+z
_cell_length_a                   46.443(3)
_cell_length_b                   26.2322(16)
_cell_length_c                   26.2139(18)
_cell_angle_alpha                90
_cell_angle_beta                 125.965(2)
_cell_angle_gamma                90
_cell_volume                     25848.6
loop_
_atom_site_label
_atom_site_type_symbol
_atom_site_fract_x
_atom_site_fract_y
_atom_site_fract_z
Zn1 Zn 0.20394(3) 0.07668(3) 0.05647(5)
Zn2 Zn 0.25845(4) 0.08443(5) -0.00171(6)
Zn3 Zn 0.25827(3) 0.07070(5) 0.21911(5)
Zn4 Zn 0.14944(4) 0.18816(5) 0.01158(6)
Zn5 Zn 0.14967(4) -0.03308(5) -0.00334(8)
C1 C 0.2153(2) -0.0125(3) -0.0683(4)
C2 C 0.1904(2) -0.0403(4) -0.0666(4)
C3 C 0.1768(2) -0.0854(4) -0.1007(5)
H1 H 0.1601 -0.1040 -0.0996
C4 C 0.1881(3) -0.1026(3) -0.1365(5)
C5 C 0.2129(3) -0.0747(5) -0.1382(5)
H2 H 0.2205 -0.0862 -0.1621
C6 C 0.2266(2) -0.0297(4) -0.1041(5)
H3 H 0.2432 -0.0110 -0.1052
C7 C 0.1919(3) -0.0552(5) 0.1310(4)
C8 C 0.2165(3) -0.0295(3) 0.1867(6)
C9 C 0.2303(2) -0.0527(5) 0.2444(5)
H4 H 0.2467 -0.0355 0.2817
C10 C 0.2194(3) -0.1016(5) 0.2464(5)
H5 H 0.2287 -0.1171 0.2850
C11 C 0.1949(3) -0.1273(3) 0.1907(8)
C12 C 0.1811(3) -0.1041(5) 0.1330(6)
H6 H 0.1647 -0.1212 0.0957
C13 C 0.1936(2) 0.2003(4) 0.1497(3)
C14 C 0.1832(2) 0.2465(4) 0.1599(5)
H7 H 0.1651 0.2654 0.1259
C15 C 0.1996(3) 0.2645(3) 0.2210(7)
C16 C 0.2266(3) 0.2363(5) 0.2718(4)
H8 H 0.2376 0.2484 0.3127
C17 C 0.2371(2) 0.1901(4) 0.2617(4)
H9 H 0.2551 0.1712 0.2957
C18 C 0.2206(2) 0.1721(3) 0.2006(5)
C19 C 0.31587(18) 0.0742(2) 0.1898(4)
C20 C 0.31470(17) 0.0773(2) 0.1357(3)
C21 C 0.3461(2) 0.0818(2) 0.1406(3)
H10 H 0.3453 0.0839 0.1044
C22 C 0.37859(18) 0.0833(3) 0.1996(4)
C23 C 0.37976(17) 0.0802(2) 0.2537(3)
H11 H 0.4015 0.0812 0.2932
C24 C 0.3484(2) 0.0757(2) 0.2488(3)
H12 H 0.3492 0.0736 0.2850
C25 C 0.19100(19) 0.2802(2) -0.1056(3)
H13 H 0.1820 0.3116 -0.1249
C26 C 0.21672(19) 0.2562(3) -0.1084(3)
C27 C 0.23024(15) 0.2092(2) -0.0796(3)
H14 H 0.2474 0.1931 -0.0815
C28 C 0.21804(17) 0.18605(19) -0.0479(3)
C29 C 0.19232(17) 0.2100(3) -0.0450(3)
C30 C 0.17880(16) 0.2571(3) -0.0739(3)
H15 H 0.1616 0.2731 -0.0720
C31 C 0.0921(4) 0.0532(6) -0.0557(5)
C32 C 0.0920(4) 0.1061(6) -0.0521(5)
C33 C 0.0602(5) 0.1319(3) -0.0772(6)
H16 H 0.0601 0.1673 -0.0748
C34 C 0.0285(4) 0.1049(7) -0.1059(6)
H17 H 0.0072 0.1223 -0.1227
C35 C 0.0286(4) 0.0521(7) -0.1095(6)
C36 C 0.0604(5) 0.0262(3) -0.0844(6)
H18 H 0.0605 -0.0091 -0.0869
C37 C 0.2306(3) 0.2841(4) -0.1410(6)
H19 H 0.2181 0.3158 -0.1578
H20 H 0.2268 0.2634 -0.1746
H21 H 0.2555 0.2907 -0.1110
C38 C 0.1765(6) -0.1492(6) -0.1767(9)
H22 H 0.1597 -0.1678 -0.1741
H23 H 0.1969 -0.1703 -0.1623
H24 H 0.1657 -0.1394 -0.2197
C39 C 0.2927(3) 0.0862(8) -0.0444(6)
C40 C 0.3170(3) 0.0963(6) -0.0646(6)
H25 H 0.3233 0.1305 -0.0599
C41 C 0.3300(3) 0.0727(4) -0.0845(5)
H26 H 0.3235 0.0388 -0.0869
C42 C 0.3525(3) 0.0757(5) -0.1070(5)
C43 C 0.3612(4) 0.0321(4) -0.1254(8)
H27 H 0.3526 0.0005 -0.1241
C44 C 0.3829(5) 0.0357(4) -0.1457(8)
H28 H 0.3887 0.0065 -0.1580
C45 C 0.3958(3) 0.0829(6) -0.1477(6)
C46 C 0.3871(4) 0.1265(4) -0.1293(7)
H29 H 0.3957 0.1581 -0.1307
C47 C 0.3655(3) 0.1229(4) -0.1090(6)
H30 H 0.3596 0.1521 -0.0967
C48 C 0.6131(6) -0.2377(7) -0.0310(12)
C49 C 0.5941(5) -0.1882(6) -0.0387(10)
H31 H 0.5979 -0.1738 -0.0027
C50 C 0.5750(4) -0.1668(6) -0.0863(7)
H32 H 0.5698 -0.1866 -0.1202
C51 C 0.5577(4) -0.1188(4) -0.1069(6)
C52 C 0.5209(4) -0.1246(4) -0.1464(7)
H33 H 0.5110 -0.1570 -0.1570
C53 C 0.4991(3) -0.0819(6) -0.1702(7)
H34 H 0.4745 -0.0857 -0.1967
C54 C 0.5140(4) -0.0334(5) -0.1545(6)
C55 C 0.5507(4) -0.0276(4) -0.1149(9)
H35 H 0.5607 0.0049 -0.1044
C56 C 0.5726(3) -0.0703(5) -0.0912(9)
H36 H 0.5972 -0.0664 -0.0647
C57 C 0.2965(4) 0.0714(7) -0.6698(4)
C58 C 0.3123(4) 0.0642(6) -0.6008(6)
H37 H 0.3027 0.0427 -0.5860
C59 C 0.3379(4) 0.0885(5) -0.5682(7)
H38 H 0.3470 0.1103 -0.5835
C60 C 0.3550(3) 0.0813(4) -0.4978(4)
C61 C 0.3481(2) 0.0444(3) -0.4683(5)
H39 H 0.3285 0.0231 -0.4921
C62 C 0.3704(3) 0.0395(3) -0.4030(5)
H40 H 0.3658 0.0148 -0.3833
C63 C 0.3997(3) 0.0714(5) -0.3674(4)
C64 C 0.4066(3) 0.1083(5) -0.3970(7)
H41 H 0.4262 0.1297 -0.3731
C65 C 0.3843(4) 0.1133(4) -0.4622(7)
H42 H 0.3889 0.1379 -0.4819
C66 C 0.4363(4) 0.0970(6) -0.2703(5)
H43 H 0.4215 0.1264 -0.2782
H44 H 0.4526 0.1057 -0.2807
C67 C 0.4294(4) 0.0673(7) -0.1893(9)
H45 H 0.4080 0.0562 -0.2289
H46 H 0.4386 0.0381 -0.1614
C68 C 0.4564(2) 0.0803(3) -0.2025(4)
C69 C 0.4740(5) 0.0291(5) -0.1912(9)
H47 H 0.4664 0.0091 -0.1699
H48 H 0.4623 0.0141 -0.2327
C70 C 0.4794(4) 0.1266(5) -0.1642(6)
H49 H 0.4655 0.1501 -0.1582
H50 H 0.4996 0.1155 -0.1231
C71 C 0.5145(3) 0.1898(4) -0.1468(10)
C72 C 0.5179(4) 0.2188(7) -0.1874(6)
H51 H 0.5061 0.2090 -0.2293
C73 C 0.5388(4) 0.2625(6) -0.1654(6)
H52 H 0.5411 0.2820 -0.1925
C74 C 0.5564(3) 0.2772(4) -0.1028(6)
C75 C 0.5530(4) 0.2481(5) -0.0622(6)
H53 H 0.5647 0.2579 -0.0204
C76 C 0.5321(4) 0.2044(5) -0.0843(9)
H54 H 0.5298 0.1850 -0.0571
C77 C 0.5781(4) 0.3265(5) -0.0788(7)
H55 H 0.5623 0.3538 -0.0934
C78 C 0.4109(5) 0.0835(8) 0.1996(14)
H56 H 0.4037 0.0860 0.1571
H57 H 0.4241 0.0525 0.2183
H58 H 0.4257 0.1121 0.2235
C79 C -0.0055(7) 0.0240(15) -0.1363(17)
H59 H -0.0014 -0.0120 -0.1357
H60 H -0.0228 0.0348 -0.1790
H61 H -0.0141 0.0310 -0.1115
C80 C 0.1968(10) -0.1793(7) 0.2166(17)
H62 H 0.1806 -0.2018 0.1826
H63 H 0.1903 -0.1770 0.2453
H64 H 0.2205 -0.1923 0.2384
C81 C 0.1994(11) 0.3089(10) 0.2567(18)
H65 H 0.1819 0.3331 0.2276
H66 H 0.2224 0.3247 0.2807
H67 H 0.1938 0.2972 0.2847
N1 N 0.2250(2) 0.1304(3) 0.1783(4)
N2 N 0.20409(19) 0.1309(3) 0.1190(3)
N3 N 0.1849(2) 0.1741(3) 0.1021(4)
N4 N 0.1799(2) 0.1825(3) -0.0128(4)
N5 N 0.20376(19) 0.1419(2) 0.0012(3)
N6 N 0.2250(2) 0.0270(3) -0.0278(4)
N7 N 0.2036(2) 0.0223(3) -0.0071(3)
N8 N 0.2828(2) 0.0767(2) 0.0915(3)
N9 N 0.26240(19) 0.0749(2) 0.1139(3)
N10 N 0.28166(19) 0.0730(2) 0.1716(3)
N11 N 0.22631(19) 0.1411(2) -0.0164(3)
N12 N 0.1827(2) -0.0187(3) -0.0287(4)
N13 N 0.1258(3) 0.0351(3) -0.0197(4)
N14 N 0.1461(2) 0.0778(3) -0.0004(3)
N15 N 0.1263(3) 0.1200(3) -0.0158(4)
N16 N 0.2242(2) 0.0148(3) 0.1713(4)
N17 N 0.1838(2) -0.0247(3) 0.0869(4)
N18 N 0.2048(2) 0.0145(3) 0.1129(4)
O1 O 0.6089(4) -0.2691(7) -0.0513(8)
O2 O 0.2902(3) 0.0528(6) -0.0362(6)
O3 O 0.4185(3) 0.0614(4) -0.3003(5)
O4 O 0.4983(4) 0.0213(5) -0.1701(7)
O5 O 0.2735(4) 0.0507(5) -0.6941(6)
O6 O 0.3035(3) 0.1055(5) -0.6861(6)
O7 O 0.6399(4) -0.2342(5) 0.0187(7)
O8 O 0.2828(5) 0.1207(8) -0.0359(8)
O9 O 0.4888(5) 0.1461(7) -0.1896(8)
O10 O 0.4214(3) 0.0951(5) -0.1693(6)
C82 C 0.6070(4) 0.3429(6) -0.0490(16)
H68 H 0.6253 0.3191 -0.0284
C83 C 0.6185(4) 0.3984(5) -0.0397(6)
O11 O 0.6070(7) 0.4193(8) -0.0152(13)
O12 O 0.6505(5) 0.3981(10) -0.0084(19)
Zn3_2 Zn 0.25827(3) 0.07070(5) -0.78089(5)
Zn4B Zn 0.64944(4) -0.31184(5) 0.01158(6)
Zn5B Zn 0.64967(4) 0.46692(5) -0.00334(8)
O1B O 0.1089(4) 0.2309(7) -0.0513(8)
O5_2 O 0.2735(4) 0.0507(5) 0.3059(6)
O6_2 O 0.3035(3) 0.1055(5) 0.3139(6)
O7B O 0.1399(4) 0.2658(5) 0.0187(7)
O11B O 0.1070(7) -0.0807(8) -0.0152(13)
O12B O 0.1505(5) -0.1019(10) -0.0084(19)
loop_
_geom_bond_atom_site_label_1
_geom_bond_atom_site_label_2
_geom_bond_site_symmetry_1
_geom_bond_site_symmetry_2
Zn1 N2 1_555 1_555
Zn2 N6 1_555 1_555
Zn3 N1 1_555 1_555
Zn4 N3 1_555 1_555
Zn5 N12 1_555 1_555
C1 C2 1_555 1_555
C2 C3 1_555 1_555
C3 H1 1_555 1_555
C4 C3 1_555 1_555
C5 C4 1_555 1_555
H2 C5 1_555 1_555
C6 C1 1_555 1_555
H3 C6 1_555 1_555
C7 C8 1_555 1_555
C8 C9 1_555 1_555
C9 H4 1_555 1_555
C10 C9 1_555 1_555
H5 C10 1_555 1_555
C11 C10 1_555 1_555
C12 C7 1_555 1_555
H6 C12 1_555 1_555
C13 C14 1_555 1_555
C14 H7 1_555 1_555
C15 C14 1_555 1_555
C16 C15 1_555 1_555
H8 C16 1_555 1_555
C17 C16 1_555 1_555
H9 C17 1_555 1_555
C18 C13 1_555 1_555
C19 C20 1_555 1_555
C20 C21 1_555 1_555
C21 H10 1_555 1_555
C22 C21 1_555 1_555
C23 C22 1_555 1_555
H11 C23 1_555 1_555
C24 C19 1_555 1_555
H12 C24 1_555 1_555
C25 H13 1_555 1_555
C26 C25 1_555 1_555
C27 C26 1_555 1_555
H14 C27 1_555 1_555
C28 C27 1_555 1_555
C29 C28 1_555 1_555
C30 C25 1_555 1_555
H15 C30 1_555 1_555
C31 C32 1_555 1_555
C32 C33 1_555 1_555
C33 H16 1_555 1_555
C34 C33 1_555 1_555
H17 C34 1_555 1_555
C35 C34 1_555 1_555
C36 C31 1_555 1_555
H18 C36 1_555 1_555
C37 C26 1_555 1_555
H19 C37 1_555 1_555
H20 C37 1_555 1_555
H21 C37 1_555 1_555
C38 C4 1_555 1_555
H22 C38 1_555 1_555
H23 C38 1_555 1_555
H24 C38 1_555 1_555
C39 C40 1_555 1_555
C40 H25 1_555 1_555
C41 C40 1_555 1_555
H26 C41 1_555 1_555
C42 C41 1_555 1_555
C43 C42 1_555 1_555
H27 C43 1_555 1_555
C44 C43 1_555 1_555
H28 C44 1_555 1_555
C45 C44 1_555 1_555
C46 C45 1_555 1_555
H29 C46 1_555 1_555
C47 C42 1_555 1_555
H30 C47 1_555 1_555
C48 C49 1_555 1_555
C49 H31 1_555 1_555
C50 C49 1_555 1_555
H32 C50 1_555 1_555
C51 C50 1_555 1_555
C52 C51 1_555 1_555
H33 C52 1_555 1_555
C53 C52 1_555 1_555
H34 C53 1_555 1_555
C54 C53 1_555 1_555
C55 C54 1_555 1_555
H35 C55 1_555 1_555
C56 C51 1_555 1_555
H36 C56 1_555 1_555
C57 C58 1_555 1_555
C58 H37 1_555 1_555
C59 C58 1_555 1_555
H38 C59 1_555 1_555
C60 C59 1_555 1_555
C61 C60 1_555 1_555
H39 C61 1_555 1_555
C62 C61 1_555 1_555
H40 C62 1_555 1_555
C63 C62 1_555 1_555
C64 C63 1_555 1_555
H41 C64 1_555 1_555
C65 C60 1_555 1_555
H42 C65 1_555 1_555
C66 H43 1_555 1_555
H44 C66 1_555 1_555
C67 H45 1_555 1_555
H46 C67 1_555 1_555
C68 C66 1_555 1_555
C69 C68 1_555 1_555
H47 C69 1_555 1_555
H48 C69 1_555 1_555
C70 C68 1_555 1_555
H49 C70 1_555 1_555
H50 C70 1_555 1_555
C71 C72 1_555 1_555
C72 H51 1_555 1_555
C73 C72 1_555 1_555
H52 C73 1_555 1_555
C74 C73 1_555 1_555
C75 C74 1_555 1_555
H53 C75 1_555 1_555
C76 C71 1_555 1_555
H54 C76 1_555 1_555
C77 C74 1_555 1_555
H55 C77 1_555 1_555
C78 C22 1_555 1_555
H56 C78 1_555 1_555
H57 C78 1_555 1_555
H58 C78 1_555 1_555
C79 C35 1_555 1_555
H59 C79 1_555 1_555
H60 C79 1_555 1_555
H61 C79 1_555 1_555
C80 C11 1_555 1_555
H62 C80 1_555 1_555
H63 C80 1_555 1_555
H64 C80 1_555 1_555
C81 C15 1_555 1_555
H65 C81 1_555 1_555
H66 C81 1_555 1_555
H67 C81 1_555 1_555
N1 C18 1_555 1_555
N2 N1 1_555 1_555
N3 C13 1_555 1_555
N4 Zn4 1_555 1_555
N5 Zn1 1_555 1_555
N6 C1 1_555 1_555
N7 Zn1 1_555 1_555
N8 Zn2 1_555 1_555
N9 Zn1 1_555 1_555
N10 Zn3 1_555 1_555
N11 Zn2 1_555 1_555
N12 C2 1_555 1_555
N13 Zn5 1_555 1_555
N14 Zn1 1_555 1_555
N15 Zn4 1_555 1_555
N16 Zn3 1_555 1_555
N17 Zn5 1_555 1_555
N18 Zn1 1_555 1_555
O1 C48 1_555 1_555
O2 Zn2 1_555 1_555
O3 C63 1_555 1_555
O4 C54 1_555 1_555
O5 C57 1_555 1_555
O6 C57 1_555 1_555
O7 C48 1_555 1_555
O8 Zn2 1_555 1_555
O9 C70 1_555 1_555
O10 C45 1_555 1_555
C82 C77 1_555 1_555
H68 C82 1_555 1_555
C83 C82 1_555 1_555
O11 C83 1_555 1_555
O12 C83 1_555 1_555
Zn3_2 O5 1_555 1_555
Zn4B O1 1_555 1_555
Zn5B O11 1_555 1_555
O1B Zn4 1_555 1_555
O5_2 Zn3 1_555 1_555
O6_2 Zn3 1_555 1_555
O7B Zn4 1_555 1_555
O11B Zn5 1_555 1_555
O12B Zn5 1_555 1_555
C5 C6 1_555 1_555
C7 N17 1_555 1_555
C8 N16 1_555 1_555
C11 C12 1_555 1_555
C17 C18 1_555 1_555
C19 N10 1_555 1_555
C20 N8 1_555 1_555
C23 C24 1_555 1_555
C28 N11 1_555 1_555
C29 C30 1_555 1_555
C29 N4 1_555 1_555
C31 N13 1_555 1_555
C32 N15 1_555 1_555
C35 C36 1_555 1_555
C39 O2 1_555 1_555
C39 O8 1_555 1_555
C46 C47 1_555 1_555
C55 C56 1_555 1_555
C64 C65 1_555 1_555
C66 O3 1_555 1_555
C67 C68 1_555 1_555
C67 O10 1_555 1_555
C69 O4 1_555 1_555
C71 O9 1_555 1_555
C75 C76 1_555 1_555
N2 N3 1_555 1_555
N4 N5 1_555 1_555
N5 N11 1_555 1_555
N6 N7 1_555 1_555
N7 N12 1_555 1_555
N8 N9 1_555 1_555
N9 N10 1_555 1_555
N13 N14 1_555 1_555
N14 N15 1_555 1_555
N16 N18 1_555 1_555
N17 N18 1_555 1_555
O6 Zn3_2 1_555 1_555
O7 Zn4B 1_555 1_555
O12 Zn5B 1_555 1_555

#END
