
#######################################################################
#
#                 Cambridge Crystallographic Data Centre
#                                CCDC 
#
#######################################################################
#
# If this CIF has been generated from an entry in the Cambridge 
# Structural Database, then it will include bibliographic, chemical, 
# crystal, experimental, refinement or atomic coordinate data resulting 
# from the CCDC's data processing and validation procedures.
#
#######################################################################

data_FAYRAA
_symmetry_cell_setting           monoclinic
_symmetry_space_group_name_H-M   'C 2/c'
_symmetry_Int_Tables_number      15
_space_group_name_Hall           '-C 2yn'
loop_
_symmetry_equiv_pos_site_id
_symmetry_equiv_pos_as_xyz
1 x,y,z
2 -x,y,1/2-z
3 1/2+x,1/2+y,z
4 1/2-x,1/2+y,1/2-z
5 -x,-y,-z
6 x,-y,1/2+z
7 1/2-x,1/2-y,-z
8 1/2+x,1/2-y,1/2+z
_cell_length_a                   31.4210(11)
_cell_length_b                   24.4610(12)
_cell_length_c                   37.503(2)
_cell_angle_alpha                90
_cell_angle_beta                 98.935(1)
_cell_angle_gamma                90
_cell_volume                     28474.6
loop_
_atom_site_label
_atom_site_type_symbol
_atom_site_fract_x
_atom_site_fract_y
_atom_site_fract_z
Zn1 Zn 0.697095(15) 0.35479(2) 0.104542(11)
Zn2 Zn 0.754690(16) 0.22677(2) 0.117020(12)
Zn3 Zn 0.647312(15) 0.36467(2) 0.011373(11)
Zn4 Zn 0.772733(17) 0.46478(2) 0.126514(13)
C1 C 0.39346(15) 0.34427(19) 0.16175(11)
C2 C 0.8732(3) 0.3910(3) 0.14899(18)
H1 H 0.8755 0.4284 0.1535
N1 N 0.70059(11) 0.29228(16) 0.06173(9)
C3 C 0.3338(2) 0.0370(3) 0.1465(2)
C4 C 0.3422(2) 0.5759(3) 0.16652(18)
H2 H 0.3523 0.6073 0.1790
C5 C 0.7489(3) 0.5609(3) 0.00401(19)
H3 H 0.7612 0.5940 -0.0012
C6 C 0.8653(2) 0.2737(3) 0.13790(17)
H4 H 0.8625 0.2362 0.1342
N2 N 0.68135(10) 0.29728(14) 0.02721(9)
C7 C 0.7204(3) 0.5346(3) -0.02288(17)
H5 H 0.7169 0.5490 -0.0461
C8 C 0.9035(3) 0.2988(4) 0.1480(2)
H6 H 0.9281 0.2772 0.1528
C9 C 0.34311(17) 0.29427(19) 0.23689(14)
N3 N 0.72096(10) 0.24478(16) 0.06821(9)
O1 O 0.37210(17) 0.5984(3) 0.03376(12)
C10 C 0.9083(2) 0.3574(4) 0.1518(2)
H7 H 0.9358 0.3725 0.1563
C11 C 0.69046(14) 0.2498(2) 0.01048(13)
C12 C 0.45491(15) 0.5654(2) 0.15528(13)
N4 N 0.76803(12) 0.3458(2) 0.12262(8)
C13 C 0.71535(14) 0.2162(2) 0.03621(13)
N5 N 0.71047(12) 0.41901(15) 0.06690(10)
C14 C 0.60285(17) 0.5127(2) 0.21828(11)
C15 C 0.70776(17) 0.4681(2) 0.01864(15)
N6 N 0.69029(11) 0.42243(15) 0.03284(10)
N7 N 0.78878(16) 0.29849(17) 0.12445(8)
C16 C 0.45102(14) 0.6209(2) 0.15086(12)
H8 H 0.4616 0.6446 0.1696
C17 C 0.29074(15) 0.25713(19) 0.27071(13)
H9 H 0.2649 0.2388 0.2709
C18 C 0.63371(17) 0.5488(2) 0.21062(12)
H10 H 0.6334 0.5851 0.2179
C19 C 0.69798(19) 0.4902(2) -0.01711(14)
H11 H 0.6776 0.4748 -0.0349
C20 C 0.75964(19) 0.5383(2) 0.03893(16)
H12 H 0.7804 0.5537 0.0564
C21 C 0.41476(18) 0.6054(4) 0.09083(14)
C22 C 0.69270(16) 0.1811(2) -0.03307(14)
H13 H 0.6855 0.1676 -0.0564
C23 C 0.8297(2) 0.3099(3) 0.13348(13)
C24 C 0.40250(18) 0.1594(3) 0.17970(16)
H14 H 0.4220 0.1690 0.2000
C25 C 0.36127(16) 0.5274(3) 0.17738(13)
H15 H 0.3824 0.5252 0.1976
C26 C 0.30439(17) 0.2697(2) 0.23780(12)
H16 H 0.2867 0.2611 0.2163
C27 C 0.3895(3) 0.6235(4) 0.0550(2)
C28 C 0.3548(2) 0.0881(3) 0.14869(17)
C29 C 0.71742(15) 0.1480(2) -0.00736(15)
H17 H 0.7255 0.1134 -0.0141
C30 C 0.41930(18) 0.5518(3) 0.09638(16)
H18 H 0.4082 0.5280 0.0779
C31 C 0.34414(19) 0.1255(3) 0.12240(18)
H19 H 0.3250 0.1150 0.1021
C32 C 0.8343(2) 0.3657(3) 0.13900(13)
C33 C 0.3091(2) 0.5811(3) 0.1384(2)
C34 C 0.3602(2) 0.1799(3) 0.12350(15)
H20 H 0.3500 0.2043 0.1051
C35 C 0.43071(16) 0.6415(2) 0.11738(16)
H21 H 0.4282 0.6789 0.1134
C36 C 0.3842(2) 0.1066(3) 0.17668(19)
H22 H 0.3930 0.0823 0.1954
C37 C 0.29657(18) 0.5358(3) 0.11921(14)
H23 H 0.2744 0.5386 0.0997
N8 N 0.73882(12) 0.45928(17) 0.07579(9)
C38 C 0.31553(17) 0.27183(18) 0.30234(12)
C39 C 0.36074(13) 0.38818(19) 0.14699(10)
H24 H 0.3628 0.3959 0.1219
H25 H 0.3317 0.3758 0.1484
O2 O 0.27056(12) 0.22734(14) 0.33899(8)
C40 C 0.36907(14) 0.30623(17) 0.26888(13)
H26 H 0.3960 0.3218 0.2686
C41 C 0.66497(15) 0.5298(2) 0.19193(11)
H27 H 0.6858 0.5539 0.1862
C42 C 0.51864(19) 0.3721(2) 0.06156(12)
H28 H 0.5178 0.3712 0.0367
N9 N 0.79501(16) 0.38799(16) 0.13152(9)
C43 C 0.29948(18) 0.2619(2) 0.33771(12)
C44 C 0.55763(15) 0.37076(17) 0.11983(13)
H29 H 0.5838 0.3690 0.1352
C45 C 0.48081(16) 0.3750(2) 0.07504(13)
H30 H 0.4549 0.3777 0.0594
C46 C 0.34815(17) 0.4826(2) 0.15739(14)
C47 C 0.31557(17) 0.4849(2) 0.12748(14)
H31 H 0.3070 0.4540 0.1138
C48 C 0.48079(18) 0.37393(18) 0.11223(13)
C49 C 0.43968(14) 0.5303(2) 0.12816(14)
H32 H 0.4430 0.4928 0.1312
C50 C 0.39108(18) 0.1968(3) 0.15206(18)
C51 C 0.59767(17) 0.36816(19) 0.06794(15)
C52 C 0.73713(18) 0.4917(2) 0.04523(14)
C53 C 0.5000 0.5379(3) 0.2500
O3 O 0.47293(9) 0.54185(11) 0.18681(8)
O4 O 0.37047(9) 0.43568(14) 0.16833(7)
O5 O 0.57189(11) 0.53553(12) 0.23544(7)
O6 O 0.35183(10) 0.30703(12) 0.20362(7)
O7 O 0.44189(9) 0.37511(11) 0.12278(7)
C54 C 0.66634(17) 0.4760(2) 0.18139(11)
C55 C 0.48456(13) 0.57590(17) 0.21796(10)
H33 H 0.5074 0.6009 0.2141
H34 H 0.4599 0.5971 0.2226
O8 O 0.40870(9) 0.24842(16) 0.15515(8)
O9 O 0.59540(9) 0.36575(13) 0.03396(8)
C56 C 0.55762(17) 0.37039(17) 0.08337(13)
C57 C 0.35527(16) 0.29510(18) 0.30181(12)
H35 H 0.3730 0.3034 0.3234
C58 C 0.39239(13) 0.33246(17) 0.20197(9)
H36 H 0.4159 0.3083 0.2117
H37 H 0.3950 0.3662 0.2158
C59 C 0.67850(14) 0.2322(2) -0.02590(11)
H38 H 0.6623 0.2537 -0.0434
O10 O 0.73088(11) 0.48882(14) 0.15638(7)
C60 C 0.70007(18) 0.4566(2) 0.15986(13)
C61 C 0.73012(14) 0.1653(2) 0.02754(12)
H39 H 0.7476 0.1440 0.0444
C62 C 0.43961(12) 0.36259(17) 0.15955(10)
H40 H 0.4469 0.3946 0.1745
H41 H 0.4598 0.3336 0.1680
O11 O 0.69648(10) 0.40962(14) 0.14649(7)
C63 C 0.38210(14) 0.2935(2) 0.13880(11)
H42 H 0.3518 0.2847 0.1378
H43 H 0.3876 0.2998 0.1144
C64 C 0.63552(18) 0.44223(19) 0.19029(12)
H44 H 0.6358 0.4058 0.1832
C65 C 0.53718(14) 0.50245(18) 0.24253(9)
H45 H 0.5466 0.4793 0.2632
H46 H 0.5277 0.4791 0.2219
O12 O 0.63245(10) 0.36610(13) 0.08949(8)
C66 C 0.60432(15) 0.4587(2) 0.20907(11)
H47 H 0.5844 0.4340 0.2155
O13 O 0.30975(13) 0.02437(17) 0.12030(10)
C67 C 0.51995(18) 0.37363(17) 0.13474(12)
H48 H 0.5211 0.3753 0.1596
O14 O 0.31589(9) 0.29089(12) 0.36406(7)
O15 O 0.34046(14) 0.00664(17) 0.17403(11)
O16 O 0.39626(15) 0.6770(2) 0.04852(10)
O17 O 0.3055(2) 0.6768(2) 0.1369(2)
O18 O 0.25272(18) 0.63513(19) 0.10945(11)
C68 C 0.2911(3) 0.6359(4) 0.1279(2)
Zn1A Zn 0.302905(15) 0.35479(2) 0.395458(11)
Zn2A Zn 0.245310(16) 0.22677(2) 0.382980(12)
Zn2B Zn 0.254690(16) 0.72677(2) 0.117020(12)
Zn2C Zn 0.745310(16) 0.72677(2) 0.382980(12)
Zn3D Zn 0.352688(15) 0.63533(2) -0.011373(11)
Zn3E Zn 0.647312(15) 0.63533(2) 0.511373(11)
Zn3A Zn 0.352688(15) 0.36467(2) 0.488627(11)
Zn4A Zn 0.227267(17) 0.46478(2) 0.373486(13)
Zn4B Zn 0.272733(17) -0.03522(2) 0.126514(13)
Zn4C Zn 0.727267(17) -0.03522(2) 0.373486(13)
C1A C 0.60654(15) 0.34427(19) 0.33825(11)
C2A C 0.1268(3) 0.3910(3) 0.35101(18)
H1A H 0.1245 0.4284 0.3465
N1A N 0.29941(11) 0.29228(16) 0.43827(9)
C3A C 0.6662(2) 0.0370(3) 0.3535(2)
C4A C 0.6578(2) 0.5759(3) 0.33348(18)
H2A H 0.6477 0.6073 0.3210
C5A C 0.2511(3) 0.5609(3) 0.49599(19)
H3A H 0.2388 0.5940 0.5012
C6A C 0.1347(2) 0.2737(3) 0.36210(17)
H4A H 0.1375 0.2362 0.3658
N2A N 0.31865(10) 0.29728(14) 0.47279(9)
N2D N 0.31865(10) 0.70272(14) -0.02721(9)
C7A C 0.2796(3) 0.5346(3) 0.52288(17)
H5A H 0.2831 0.5490 0.5461
C8A C 0.0965(3) 0.2988(4) 0.3520(2)
H6A H 0.0719 0.2772 0.3472
C9A C 0.65689(17) 0.29427(19) 0.26311(14)
N3A N 0.27904(10) 0.24478(16) 0.43179(9)
O1A O 0.62790(17) 0.5984(3) 0.46624(12)
O1D O 0.62790(17) 0.4016(3) -0.03376(12)
C10A C 0.0917(2) 0.3574(4) 0.3482(2)
H7A H 0.0642 0.3725 0.3437
C11A C 0.30954(14) 0.2498(2) 0.48952(13)
C12A C 0.54509(15) 0.5654(2) 0.34472(13)
N4A N 0.23197(12) 0.3458(2) 0.37738(8)
C13A C 0.28465(14) 0.2162(2) 0.46379(13)
N5A N 0.28953(12) 0.41901(15) 0.43310(10)
C14A C 0.39715(17) 0.5127(2) 0.28172(11)
C15A C 0.29224(17) 0.4681(2) 0.48136(15)
N6A N 0.30971(11) 0.42243(15) 0.46716(10)
N6D N 0.30971(11) 0.57757(15) -0.03284(10)
N7A N 0.21122(16) 0.29849(17) 0.37555(8)
C16A C 0.54898(14) 0.6209(2) 0.34914(12)
H8A H 0.5384 0.6446 0.3304
C17A C 0.70926(15) 0.25713(19) 0.22929(13)
H9A H 0.7351 0.2388 0.2291
C18A C 0.36629(17) 0.5488(2) 0.28938(12)
H10A H 0.3666 0.5851 0.2821
C19A C 0.30202(19) 0.4902(2) 0.51711(14)
H11A H 0.3224 0.4748 0.5349
C20A C 0.24036(19) 0.5383(2) 0.46107(16)
H12A H 0.2196 0.5537 0.4436
C21A C 0.58524(18) 0.6054(4) 0.40917(14)
C22A C 0.30730(16) 0.1811(2) 0.53307(14)
H13A H 0.3145 0.1676 0.5564
C23A C 0.1703(2) 0.3099(3) 0.36652(13)
C24A C 0.59750(18) 0.1594(3) 0.32030(16)
H14A H 0.5780 0.1690 0.3000
C25A C 0.63873(16) 0.5274(3) 0.32262(13)
H15A H 0.6176 0.5252 0.3024
C26A C 0.69561(17) 0.2697(2) 0.26220(12)
H16A H 0.7133 0.2611 0.2837
C27A C 0.6105(3) 0.6235(4) 0.4450(2)
C28A C 0.6452(2) 0.0881(3) 0.35131(17)
C29A C 0.28258(15) 0.1480(2) 0.50736(15)
H17A H 0.2745 0.1134 0.5141
C30A C 0.58070(18) 0.5518(3) 0.40362(16)
H18A H 0.5918 0.5280 0.4221
C31A C 0.65586(19) 0.1255(3) 0.37760(18)
H19A H 0.6750 0.1150 0.3979
C32A C 0.1657(2) 0.3657(3) 0.36100(13)
C33A C 0.6909(2) 0.5811(3) 0.3616(2)
C34A C 0.6398(2) 0.1799(3) 0.37650(15)
H20A H 0.6500 0.2043 0.3949
C35A C 0.56929(16) 0.6415(2) 0.38262(16)
H21A H 0.5718 0.6789 0.3866
C36A C 0.6158(2) 0.1066(3) 0.32332(19)
H22A H 0.6070 0.0823 0.3046
C37A C 0.70343(18) 0.5358(3) 0.38079(14)
H23A H 0.7256 0.5386 0.4003
N8A N 0.26118(12) 0.45928(17) 0.42421(9)
C38A C 0.68447(17) 0.27183(18) 0.19766(12)
C39A C 0.63926(13) 0.38818(19) 0.35301(10)
H24A H 0.6372 0.3959 0.3781
H25A H 0.6683 0.3758 0.3516
O2A O 0.72944(12) 0.22734(14) 0.16101(8)
C40A C 0.63093(14) 0.30623(17) 0.23112(13)
H26A H 0.6040 0.3218 0.2314
C41A C 0.33503(15) 0.5298(2) 0.30807(11)
H27A H 0.3142 0.5539 0.3138
C42A C 0.48136(19) 0.3721(2) 0.43844(12)
H28A H 0.4822 0.3712 0.4633
N9A N 0.20499(16) 0.38799(16) 0.36848(9)
C43A C 0.70052(18) 0.2619(2) 0.16229(12)
C44A C 0.44237(15) 0.37076(17) 0.38017(13)
H29A H 0.4162 0.3690 0.3648
C45A C 0.51919(16) 0.3750(2) 0.42496(13)
H30A H 0.5451 0.3777 0.4406
C46A C 0.65185(17) 0.4826(2) 0.34261(14)
C47A C 0.68443(17) 0.4849(2) 0.37252(14)
H31A H 0.6930 0.4540 0.3862
C48A C 0.51921(18) 0.37393(18) 0.38777(13)
C49A C 0.56032(14) 0.5303(2) 0.37184(14)
H32A H 0.5570 0.4928 0.3688
C50A C 0.60892(18) 0.1968(3) 0.34794(18)
C51A C 0.40233(17) 0.36816(19) 0.43206(15)
C52A C 0.26287(18) 0.4917(2) 0.45477(14)
O3A O 0.52707(9) 0.54185(11) 0.31319(8)
O4A O 0.62953(9) 0.43568(14) 0.33167(7)
O5A O 0.42811(11) 0.53553(12) 0.26456(7)
O6A O 0.64817(10) 0.30703(12) 0.29638(7)
O7A O 0.55811(9) 0.37511(11) 0.37722(7)
C54A C 0.33366(17) 0.4760(2) 0.31861(11)
C55A C 0.51544(13) 0.57590(17) 0.28204(10)
H33A H 0.4926 0.6009 0.2859
H34A H 0.5401 0.5971 0.2774
O8A O 0.59130(9) 0.24842(16) 0.34485(8)
O9A O 0.40460(9) 0.36575(13) 0.46604(8)
O9D O 0.40460(9) 0.63425(13) -0.03396(8)
C56A C 0.44238(17) 0.37039(17) 0.41663(13)
C57A C 0.64473(16) 0.29510(18) 0.19819(12)
H35A H 0.6270 0.3034 0.1766
C58A C 0.60761(13) 0.33246(17) 0.29803(9)
H36A H 0.5841 0.3083 0.2883
H37A H 0.6050 0.3662 0.2842
C59A C 0.32150(14) 0.2322(2) 0.52590(11)
H38A H 0.3377 0.2537 0.5434
O10A O 0.26912(11) 0.48882(14) 0.34362(7)
C60A C 0.29993(18) 0.4566(2) 0.34014(13)
C61A C 0.26988(14) 0.1653(2) 0.47246(12)
H39A H 0.2524 0.1440 0.4556
C62A C 0.56039(12) 0.36259(17) 0.34045(10)
H40A H 0.5531 0.3946 0.3255
H41A H 0.5402 0.3336 0.3320
O11A O 0.30352(10) 0.40962(14) 0.35351(7)
C63A C 0.61790(14) 0.2935(2) 0.36120(11)
H42A H 0.6482 0.2847 0.3622
H43A H 0.6124 0.2998 0.3856
C64A C 0.36448(18) 0.44223(19) 0.30971(12)
H44A H 0.3642 0.4058 0.3168
C65A C 0.46282(14) 0.50245(18) 0.25747(9)
H45A H 0.4534 0.4793 0.2368
H46A H 0.4723 0.4791 0.2781
O12A O 0.36755(10) 0.36610(13) 0.41051(8)
C66A C 0.39568(15) 0.4587(2) 0.29093(11)
H47A H 0.4156 0.4340 0.2845
O13A O 0.69025(13) 0.02437(17) 0.37970(10)
O13B O 0.80975(13) 0.52437(17) 0.12030(10)
O13C O 0.19025(13) 0.52437(17) 0.37970(10)
C67A C 0.48005(18) 0.37363(17) 0.36526(12)
H48A H 0.4789 0.3753 0.3404
O14A O 0.68411(9) 0.29089(12) 0.13594(7)
O15A O 0.65954(14) 0.00664(17) 0.32597(11)
O16A O 0.60374(15) 0.6770(2) 0.45148(10)
O17A O 0.6945(2) 0.6768(2) 0.3631(2)
O17B O 0.8055(2) 0.1768(2) 0.1369(2)
O17C O 0.1945(2) 0.1768(2) 0.3631(2)
O18A O 0.74728(18) 0.63513(19) 0.39055(11)
O18B O 0.75272(18) 0.13513(19) 0.10945(11)
O18C O 0.24728(18) 0.13513(19) 0.39055(11)
C68A C 0.7089(3) 0.6359(4) 0.3721(2)
loop_
_geom_bond_atom_site_label_1
_geom_bond_atom_site_label_2
_geom_bond_site_symmetry_1
_geom_bond_site_symmetry_2
Zn1 N1 1_555 1_555
Zn2 N3 1_555 1_555
Zn3 N2 1_555 1_555
Zn4 N8 1_555 1_555
C1 C39 1_555 1_555
C2 H1 1_555 1_555
N1 N2 1_555 1_555
C3 C28 1_555 1_555
C4 H2 1_555 1_555
C5 H3 1_555 1_555
C6 H4 1_555 1_555
N2 C11 1_555 1_555
C7 C5 1_555 1_555
H5 C7 1_555 1_555
C8 C6 1_555 1_555
H6 C8 1_555 1_555
C9 C26 1_555 1_555
N3 N1 1_555 1_555
O1 C27 1_555 1_555
C10 C2 1_555 1_555
H7 C10 1_555 1_555
C11 C13 1_555 1_555
C12 C16 1_555 1_555
N4 Zn1 1_555 1_555
C13 N3 1_555 1_555
N5 Zn1 1_555 1_555
C14 C18 1_555 1_555
C15 N6 1_555 1_555
N6 Zn3 1_555 1_555
N7 Zn2 1_555 1_555
C16 H8 1_555 1_555
C17 H9 1_555 1_555
C18 H10 1_555 1_555
C19 C7 1_555 1_555
H11 C19 1_555 1_555
C20 C5 1_555 1_555
H12 C20 1_555 1_555
C21 C27 1_555 1_555
C22 H13 1_555 1_555
C23 C6 1_555 1_555
C24 H14 1_555 1_555
C25 C4 1_555 1_555
H15 C25 1_555 1_555
C26 C17 1_555 1_555
H16 C26 1_555 1_555
C27 O16 1_555 1_555
C28 C31 1_555 1_555
C29 C22 1_555 1_555
H17 C29 1_555 1_555
C30 C21 1_555 1_555
H18 C30 1_555 1_555
C31 H19 1_555 1_555
C32 C2 1_555 1_555
C33 C4 1_555 1_555
C34 C31 1_555 1_555
H20 C34 1_555 1_555
C35 C16 1_555 1_555
H21 C35 1_555 1_555
C36 C24 1_555 1_555
H22 C36 1_555 1_555
C37 C33 1_555 1_555
H23 C37 1_555 1_555
N8 N5 1_555 1_555
C38 C17 1_555 1_555
C39 H24 1_555 1_555
H25 C39 1_555 1_555
O2 C43 1_555 1_555
C40 C9 1_555 1_555
H26 C40 1_555 1_555
C41 C18 1_555 1_555
H27 C41 1_555 1_555
C42 H28 1_555 1_555
N9 Zn4 1_555 1_555
C43 C38 1_555 1_555
C44 H29 1_555 1_555
C45 C42 1_555 1_555
H30 C45 1_555 1_555
C46 C25 1_555 1_555
C47 C37 1_555 1_555
H31 C47 1_555 1_555
C48 C45 1_555 1_555
C49 C12 1_555 1_555
H32 C49 1_555 1_555
C50 C24 1_555 1_555
C51 O9 1_555 1_555
C52 C15 1_555 1_555
C53 C55 1_555 1_555
O3 C12 1_555 1_555
O4 C39 1_555 1_555
O5 C14 1_555 1_555
O6 C9 1_555 1_555
O7 C48 1_555 1_555
C54 C41 1_555 1_555
C55 O3 1_555 1_555
H33 C55 1_555 1_555
H34 C55 1_555 1_555
O8 C50 1_555 1_555
O9 Zn3 1_555 1_555
C56 C42 1_555 1_555
C57 C38 1_555 1_555
H35 C57 1_555 1_555
C58 C1 1_555 1_555
H36 C58 1_555 1_555
H37 C58 1_555 1_555
C59 C11 1_555 1_555
H38 C59 1_555 1_555
O10 Zn4 1_555 1_555
C60 C54 1_555 1_555
C61 C13 1_555 1_555
H39 C61 1_555 1_555
C62 C1 1_555 1_555
H40 C62 1_555 1_555
H41 C62 1_555 1_555
O11 Zn1 1_555 1_555
C63 C1 1_555 1_555
H42 C63 1_555 1_555
H43 C63 1_555 1_555
C64 C54 1_555 1_555
H44 C64 1_555 1_555
C65 C53 1_555 1_555
H45 C65 1_555 1_555
H46 C65 1_555 1_555
O12 Zn1 1_555 1_555
C66 C14 1_555 1_555
H47 C66 1_555 1_555
O13 C3 1_555 1_555
C67 C44 1_555 1_555
H48 C67 1_555 1_555
O14 C43 1_555 1_555
O15 C3 1_555 1_555
O17 C68 1_555 1_555
O18 C68 1_555 1_555
C68 C33 1_555 1_555
Zn1A O14 1_555 1_555
Zn2A O2 1_555 1_555
Zn2B O17 1_555 1_555
Zn2C O17A 1_555 1_555
Zn3D O1 1_555 1_555
Zn3E O1A 1_555 1_555
Zn3A N2A 1_555 1_555
Zn4A N8A 1_555 1_555
Zn4B O13 1_555 1_555
Zn4C O13A 1_555 1_555
C1A C39A 1_555 1_555
C2A H1A 1_555 1_555
N1A Zn1A 1_555 1_555
C3A C28A 1_555 1_555
C4A H2A 1_555 1_555
C5A H3A 1_555 1_555
C6A H4A 1_555 1_555
N2A N1A 1_555 1_555
N2D Zn3D 1_555 1_555
C7A C5A 1_555 1_555
H5A C7A 1_555 1_555
C8A C6A 1_555 1_555
H6A C8A 1_555 1_555
C9A C26A 1_555 1_555
N3A Zn2A 1_555 1_555
O1A C27A 1_555 1_555
O1D Zn3 1_555 1_555
C10A C2A 1_555 1_555
H7A C10A 1_555 1_555
C11A N2A 1_555 1_555
C12A C16A 1_555 1_555
N4A Zn1A 1_555 1_555
C13A N3A 1_555 1_555
N5A Zn1A 1_555 1_555
C14A C18A 1_555 1_555
C15A N6A 1_555 1_555
N6A Zn3A 1_555 1_555
N6D Zn3D 1_555 1_555
N7A Zn2A 1_555 1_555
C16A H8A 1_555 1_555
C17A H9A 1_555 1_555
C18A H10A 1_555 1_555
C19A C7A 1_555 1_555
H11A C19A 1_555 1_555
C20A C5A 1_555 1_555
H12A C20A 1_555 1_555
C21A C27A 1_555 1_555
C22A H13A 1_555 1_555
C23A C6A 1_555 1_555
C24A H14A 1_555 1_555
C25A C4A 1_555 1_555
H15A C25A 1_555 1_555
C26A C17A 1_555 1_555
H16A C26A 1_555 1_555
C27A O16A 1_555 1_555
C28A C31A 1_555 1_555
C29A C22A 1_555 1_555
H17A C29A 1_555 1_555
C30A C21A 1_555 1_555
H18A C30A 1_555 1_555
C31A H19A 1_555 1_555
C32A C2A 1_555 1_555
C33A C4A 1_555 1_555
C34A C31A 1_555 1_555
H20A C34A 1_555 1_555
C35A C16A 1_555 1_555
H21A C35A 1_555 1_555
C36A C24A 1_555 1_555
H22A C36A 1_555 1_555
C37A C33A 1_555 1_555
H23A C37A 1_555 1_555
N8A N5A 1_555 1_555
C38A C17A 1_555 1_555
C39A H24A 1_555 1_555
H25A C39A 1_555 1_555
O2A Zn2 1_555 1_555
C40A C9A 1_555 1_555
H26A C40A 1_555 1_555
C41A C18A 1_555 1_555
H27A C41A 1_555 1_555
C42A H28A 1_555 1_555
N9A Zn4A 1_555 1_555
C43A C38A 1_555 1_555
C44A H29A 1_555 1_555
C45A C42A 1_555 1_555
H30A C45A 1_555 1_555
C46A C25A 1_555 1_555
C47A C37A 1_555 1_555
H31A C47A 1_555 1_555
C48A C45A 1_555 1_555
C49A C12A 1_555 1_555
H32A C49A 1_555 1_555
C50A C24A 1_555 1_555
C51A O9A 1_555 1_555
C52A C15A 1_555 1_555
O3A C12A 1_555 1_555
O4A C39A 1_555 1_555
O5A C14A 1_555 1_555
O6A C9A 1_555 1_555
O7A C48A 1_555 1_555
C54A C41A 1_555 1_555
C55A C53 1_555 1_555
H33A C55A 1_555 1_555
H34A C55A 1_555 1_555
O8A C50A 1_555 1_555
O9A Zn3A 1_555 1_555
O9D Zn3D 1_555 1_555
C56A C42A 1_555 1_555
C57A C38A 1_555 1_555
H35A C57A 1_555 1_555
C58A C1A 1_555 1_555
H36A C58A 1_555 1_555
H37A C58A 1_555 1_555
C59A C11A 1_555 1_555
H38A C59A 1_555 1_555
O10A Zn4A 1_555 1_555
C60A C54A 1_555 1_555
C61A C13A 1_555 1_555
H39A C61A 1_555 1_555
C62A C1A 1_555 1_555
H40A C62A 1_555 1_555
H41A C62A 1_555 1_555
O11A Zn1A 1_555 1_555
C63A C1A 1_555 1_555
H42A C63A 1_555 1_555
H43A C63A 1_555 1_555
C64A C54A 1_555 1_555
H44A C64A 1_555 1_555
C65A C53 1_555 1_555
H45A C65A 1_555 1_555
H46A C65A 1_555 1_555
O12A Zn1A 1_555 1_555
C66A C14A 1_555 1_555
H47A C66A 1_555 1_555
O13A C3A 1_555 1_555
O13B Zn4 1_555 1_555
O13C Zn4A 1_555 1_555
C67A C44A 1_555 1_555
H48A C67A 1_555 1_555
O14A Zn1 1_555 1_555
O15A C3A 1_555 1_555
O17A C68A 1_555 1_555
O17B Zn2 1_555 1_555
O17C Zn2A 1_555 1_555
O18A Zn2C 1_555 1_555
O18B Zn2 1_555 1_555
O18C Zn2A 1_555 1_555
C68A C33A 1_555 1_555
C8 C10 1_555 1_555
N4 N7 1_555 1_555
N4 N9 1_555 1_555
N5 N6 1_555 1_555
C15 C19 1_555 1_555
N7 C23 1_555 1_555
C20 C52 1_555 1_555
C21 C35 1_555 1_555
C22 C59 1_555 1_555
C23 C32 1_555 1_555
C28 C36 1_555 1_555
C29 C61 1_555 1_555
C30 C49 1_555 1_555
C32 N9 1_555 1_555
C34 C50 1_555 1_555
N8 C52 1_555 1_555
C40 C57 1_555 1_555
C44 C56 1_555 1_555
C46 C47 1_555 1_555
C46 O4 1_555 1_555
C48 C67 1_555 1_555
C51 C56 1_555 1_555
C51 O12 1_555 1_555
O5 C65 1_555 1_555
O6 C58 1_555 1_555
O7 C62 1_555 1_555
O8 C63 1_555 1_555
O10 C60 1_555 1_555
C60 O11 1_555 1_555
C64 C66 1_555 1_555
O18 Zn2B 1_555 1_555
N1A N3A 1_555 1_555
C8A C10A 1_555 1_555
C11A C13A 1_555 1_555
N4A N7A 1_555 1_555
N4A N9A 1_555 1_555
N5A N6A 1_555 1_555
C15A C19A 1_555 1_555
N7A C23A 1_555 1_555
C20A C52A 1_555 1_555
C21A C35A 1_555 1_555
C22A C59A 1_555 1_555
C23A C32A 1_555 1_555
C28A C36A 1_555 1_555
C29A C61A 1_555 1_555
C30A C49A 1_555 1_555
C32A N9A 1_555 1_555
C34A C50A 1_555 1_555
N8A C52A 1_555 1_555
O2A C43A 1_555 1_555
C40A C57A 1_555 1_555
C43A O14A 1_555 1_555
C44A C56A 1_555 1_555
C46A C47A 1_555 1_555
C46A O4A 1_555 1_555
C48A C67A 1_555 1_555
C51A C56A 1_555 1_555
C51A O12A 1_555 1_555
O3A C55A 1_555 1_555
O5A C65A 1_555 1_555
O6A C58A 1_555 1_555
O7A C62A 1_555 1_555
O8A C63A 1_555 1_555
O10A C60A 1_555 1_555
C60A O11A 1_555 1_555
C64A C66A 1_555 1_555
O18A C68A 1_555 1_555

#END
