
#######################################################################
#
#                 Cambridge Crystallographic Data Centre
#                                CCDC 
#
#######################################################################
#
# If this CIF has been generated from an entry in the Cambridge 
# Structural Database, then it will include bibliographic, chemical, 
# crystal, experimental, refinement or atomic coordinate data resulting 
# from the CCDC's data processing and validation procedures.
#
#######################################################################

data_FAZPUT
_symmetry_cell_setting           hexagonal
_symmetry_space_group_name_H-M   'P 63/m'
_symmetry_Int_Tables_number      176
_space_group_name_Hall           '-P 6c'
loop_
_symmetry_equiv_pos_site_id
_symmetry_equiv_pos_as_xyz
1 x,y,z
2 -y,x-y,z
3 -x+y,-x,z
4 -x,-y,1/2+z
5 y,-x+y,1/2+z
6 x-y,x,1/2+z
7 -x,-y,-z
8 y,-x+y,-z
9 x-y,x,-z
10 x,y,1/2-z
11 -y,x-y,1/2-z
12 -x+y,-x,1/2-z
_cell_length_a                   41.247(7)
_cell_length_b                   41.247(7)
_cell_length_c                   17.447(3)
_cell_angle_alpha                90
_cell_angle_beta                 90
_cell_angle_gamma                120
_cell_volume                     25706.1
loop_
_atom_site_label
_atom_site_type_symbol
_atom_site_fract_x
_atom_site_fract_y
_atom_site_fract_z
O1 O 0.40049(18) 0.10998(18) 0.6597(4)
O2 O 0.3862(2) 0.0573(2) 0.5926(4)
O3 O 0.4285(2) 0.0604(2) 0.7500
C1 C 0.3684(4) 0.1854(4) 0.3232(7)
C2 C 0.3712(3) 0.1531(3) 0.3177(6)
C3 C 0.3731(3) 0.1365(3) 0.3935(6)
C4 C 0.3913(3) 0.0883(3) 0.6030(6)
C5 C 0.3611(4) 0.0983(4) 0.3934(8)
H1 H 0.3486 0.0833 0.3514
C6 C 0.3705(4) 0.1334(5) 0.2500
C7 C 0.3883(4) 0.1607(4) 0.4590(7)
H2 H 0.3952 0.1859 0.4586
O4 O 0.37285(19) 0.35872(19) 0.1862(4)
O5 O 0.4308(3) 0.0151(2) 0.5971(5)
O6 O 0.4862(3) 0.0457(3) 0.6652(6)
C8 C 0.3697(4) 0.3419(4) 0.2500
C9 C 0.3721(5) 0.3106(5) 0.2500
C10 C 0.3826(3) 0.1058(3) 0.5289(5)
C11 C 0.3916(3) 0.1413(4) 0.5265(7)
H3 H 0.4008 0.1552 0.5713
C12 C 0.3690(4) 0.0819(4) 0.4642(8)
H4 H 0.3652 0.0577 0.4649
C13 C 0.4828(4) 0.0130(4) 0.5558(8)
C14 C 0.3663(5) 0.2377(5) 0.2500
C15 C 0.5156(5) 0.0124(5) 0.5691(10)
C16 C 0.4640(4) 0.0258(4) 0.6127(8)
C17 C 0.4659(5) -0.0004(5) 0.4835(10)
H5 H 0.4436 -0.0013 0.4706
C18 C 0.3721(5) 0.2022(5) 0.2500
C19 C 0.3657(5) 0.2877(5) 0.1857(11)
H6 H 0.3617 0.2965 0.1396
C20 C 0.3646(7) 0.2519(7) 0.1826(14)
H7 H 0.3627 0.2397 0.1365
Cl1 Cl 0.5384(3) 0.0207(3) 0.6640(5)
O7 O 0.4676(5) 0.1507(4) 0.7500
O8 O 0.5048(6) 0.1266(4) 0.7500
C21 C 0.4996(7) 0.1548(7) 0.7500
C22 C 0.5387(11) 0.1917(12) 0.7500
C23 C 0.6308(10) 0.3306(12) 0.7500
H8 H 0.6075 0.3290 0.7500
C24 C 0.6342(9) 0.2984(9) 0.7500
C25 C 0.5322(9) 0.2187(9) 0.7500
H9 H 0.5080 0.2150 0.7500
C26 C 0.5659(10) 0.2567(10) 0.7500
H10 H 0.5650 0.2788 0.7500
C27 C 0.5998(11) 0.2554(10) 0.7500
Zn1 Zn 0.40271(3) 0.03058(3) 0.66034(6)
Zn2 Zn 0.42438(5) 0.10458(5) 0.7500
Zn3 Zn 0.48152(6) 0.07455(6) 0.7500
O1I O 0.40049(18) 0.10998(18) -0.1597(4)
O1I_2 O 0.40049(18) 0.10998(18) 0.8403(4)
O1_2 O 0.40049(18) 0.10998(18) 1.6597(4)
O1D O 0.10998(18) -0.29051(25) 1.1597(4)
O1G O 0.10998(18) -0.29051(25) 0.3403(4)
O1_3 O 0.40049(18) 0.10998(18) -0.3403(4)
O1I_3 O 0.40049(18) 0.10998(18) 1.8403(4)
O2I O 0.3862(2) 0.0573(2) -0.0926(4)
O2I_2 O 0.3862(2) 0.0573(2) 0.9074(4)
O2_2 O 0.3862(2) 0.0573(2) 1.5926(4)
O2D O 0.0573(2) -0.3289(3) 1.0926(4)
O2G O 0.0573(2) -0.3289(3) 0.4074(4)
O2E O 0.3289(3) 0.3862(2) 0.0926(4)
O2H O 0.3289(3) 0.3862(2) 0.4074(4)
O3_2 O 0.4285(2) 0.0604(2) -0.2500
O3_3 O 0.4285(2) 0.0604(2) 1.7500
O3A O 0.9396(2) 0.3681(3) 0.7500
O3B O 0.6319(3) 0.5715(2) 0.7500
O3E O 0.3681(3) 0.4285(2) 0.2500
C1I C 0.3684(4) 0.1854(4) 0.1768(7)
C1I_2 C 0.3684(4) 0.1854(4) 1.1768(7)
C1_2 C 0.3684(4) 0.1854(4) 1.3232(7)
C1D C 0.1854(4) -0.1830(6) 0.8232(7)
C1G C 0.1854(4) -0.1830(6) 0.6768(7)
C2I C 0.3712(3) 0.1531(3) 0.1823(6)
C2I_2 C 0.3712(3) 0.1531(3) 1.1823(6)
C2_2 C 0.3712(3) 0.1531(3) 1.3177(6)
C2D C 0.1531(3) -0.2181(4) 0.8177(6)
C2G C 0.1531(3) -0.2181(4) 0.6823(6)
C3I C 0.3731(3) 0.1365(3) 0.1065(6)
C3I_2 C 0.3731(3) 0.1365(3) 1.1065(6)
C3_2 C 0.3731(3) 0.1365(3) 1.3935(6)
C3D C 0.1365(3) -0.2366(4) 0.8935(6)
C3G C 0.1365(3) -0.2366(4) 0.6065(6)
C4I C 0.3913(3) 0.0883(3) -0.1030(6)
C4I_2 C 0.3913(3) 0.0883(3) 0.8970(6)
C4_2 C 0.3913(3) 0.0883(3) 1.6030(6)
C4D C 0.0883(3) -0.3030(4) 1.1030(6)
C4G C 0.0883(3) -0.3030(4) 0.3970(6)
C5I C 0.3611(4) 0.0983(4) 0.1066(8)
C5I_2 C 0.3611(4) 0.0983(4) 1.1066(8)
C5_2 C 0.3611(4) 0.0983(4) 1.3934(8)
C5D C 0.0983(4) -0.2628(6) 0.8934(8)
C5G C 0.0983(4) -0.2628(6) 0.6066(8)
H1I H 0.3486 0.0833 0.1486
H1I_2 H 0.3486 0.0833 1.1486
H1_2 H 0.3486 0.0833 1.3514
H1D H 0.0833 -0.2653 0.8514
H1G H 0.0833 -0.2653 0.6486
C6_2 C 0.3705(4) 0.1334(5) 1.2500
C6D C 0.1334(5) -0.2371(6) 0.7500
C7I C 0.3883(4) 0.1607(4) 0.0410(7)
C7I_2 C 0.3883(4) 0.1607(4) 1.0410(7)
C7_2 C 0.3883(4) 0.1607(4) 1.4590(7)
C7D C 0.1607(4) -0.2276(6) 0.9590(7)
C7G C 0.1607(4) -0.2276(6) 0.5410(7)
H2I H 0.3952 0.1859 0.0414
H2I_2 H 0.3952 0.1859 1.0414
H2_2 H 0.3952 0.1859 1.4586
H2D H 0.1859 -0.2093 0.9586
H2G H 0.1859 -0.2093 0.5414
O4I O 0.37285(19) 0.35872(19) 0.3138(4)
O4I_2 O 0.37285(19) 0.35872(19) 1.3138(4)
O4_2 O 0.37285(19) 0.35872(19) 1.1862(4)
O4D O 0.35872(19) -0.01413(27) 0.6862(4)
O4G O 0.35872(19) -0.01413(27) 0.8138(4)
O4G_2 O 0.35872(19) -0.01413(27) -0.1862(4)
O4D_2 O 0.35872(19) -0.01413(27) 1.6862(4)
O5F O 0.5692(3) -0.0151(2) 0.4029(5)
O5I O 0.4308(3) 0.0151(2) 0.9029(5)
O5C O 0.5692(3) -0.0151(2) 1.0971(5)
O5A O 0.9849(2) 0.4157(4) 0.5971(5)
O5G O 1.0151(2) 0.5843(4) 0.4029(5)
O5I_2 O 0.4308(3) 0.0151(2) -0.0971(5)
O5_2 O 0.4308(3) 0.0151(2) 1.5971(5)
O5E O 0.4157(4) 0.4308(3) 0.0971(5)
O5H O 0.4157(4) 0.4308(3) 0.4029(5)
O6F O 0.5138(3) -0.0457(3) 0.3348(6)
O6I O 0.4862(3) 0.0457(3) 0.8348(6)
O6C O 0.5138(3) -0.0457(3) 1.1652(6)
O6A O 0.9543(3) 0.4405(4) 0.6652(6)
O6G O 1.0457(3) 0.5595(4) 0.3348(6)
O6J O 0.9543(3) 0.4405(4) 0.8348(6)
O6B O 0.5595(4) 0.5138(3) 0.6652(6)
O6K O 0.5595(4) 0.5138(3) 0.8348(6)
C8_2 C 0.3697(4) 0.3419(4) 1.2500
C8D C 0.3419(4) -0.0278(6) 0.7500
C9_2 C 0.3721(5) 0.3106(5) 1.2500
C9D C 0.3106(5) -0.0615(7) 0.7500
C10I C 0.3826(3) 0.1058(3) -0.0289(5)
C10I_2 C 0.3826(3) 0.1058(3) 0.9711(5)
C10_2 C 0.3826(3) 0.1058(3) 1.5289(5)
C10D C 0.1058(3) -0.2768(4) 1.0289(5)
C10G C 0.1058(3) -0.2768(4) 0.4711(5)
C11I C 0.3916(3) 0.1413(4) -0.0265(7)
C11I_2 C 0.3916(3) 0.1413(4) 0.9735(7)
C11_2 C 0.3916(3) 0.1413(4) 1.5265(7)
C11D C 0.1413(4) -0.2503(5) 1.0265(7)
C11G C 0.1413(4) -0.2503(5) 0.4735(7)
H3I H 0.4008 0.1552 -0.0713
H3I_2 H 0.4008 0.1552 0.9287
H3_2 H 0.4008 0.1552 1.5713
H3D H 0.1552 -0.2456 1.0713
H3G H 0.1552 -0.2456 0.4287
C12I C 0.3690(4) 0.0819(4) 0.0358(8)
C12I_2 C 0.3690(4) 0.0819(4) 1.0358(8)
C12_2 C 0.3690(4) 0.0819(4) 1.4642(8)
C12D C 0.0819(4) -0.2871(6) 0.9642(8)
C12G C 0.0819(4) -0.2871(6) 0.5358(8)
H4I H 0.3652 0.0577 0.0351
H4I_2 H 0.3652 0.0577 1.0351
H4_2 H 0.3652 0.0577 1.4649
H4D H 0.0577 -0.3075 0.9649
H4G H 0.0577 -0.3075 0.5351
C13F C 0.5172(4) -0.0130(4) 0.4442(8)
C13I C 0.4828(4) 0.0130(4) 0.9442(8)
C13C C 0.5172(4) -0.0130(4) 1.0558(8)
C13A C 0.9870(4) 0.4698(6) 0.5558(8)
C13G C 1.0130(4) 0.5302(6) 0.4442(8)
C14_2 C 0.3663(5) 0.2377(5) 1.2500
C14D C 0.2377(5) -0.1286(7) 0.7500
C15F C 0.4844(5) -0.0124(5) 0.4309(10)
C15I C 0.5156(5) 0.0124(5) 0.9309(10)
C15C C 0.4844(5) -0.0124(5) 1.0691(10)
C15A C 0.9876(5) 0.5032(7) 0.5691(10)
C15G C 1.0124(5) 0.4968(7) 0.4309(10)
C16F C 0.5360(4) -0.0258(4) 0.3873(8)
C16I C 0.4640(4) 0.0258(4) 0.8873(8)
C16C C 0.5360(4) -0.0258(4) 1.1127(8)
C16A C 0.9742(4) 0.4382(6) 0.6127(8)
C16G C 1.0258(4) 0.5618(6) 0.3873(8)
C17F C 0.5341(5) 0.0004(5) 0.5165(10)
C17I C 0.4659(5) -0.0004(5) 1.0165(10)
C17C C 0.5341(5) 0.0004(5) 0.9835(10)
C17A C 1.0004(5) 0.4663(7) 0.4835(10)
C17G C 0.9996(5) 0.5337(7) 0.5165(10)
H5F H 0.5564 0.0013 0.5294
H5I H 0.4436 -0.0013 1.0294
H5C H 0.5564 0.0013 0.9706
H5A H 1.0013 0.4449 0.4706
H5G H 0.9987 0.5551 0.5294
C18_2 C 0.3721(5) 0.2022(5) 1.2500
C18D C 0.2022(5) -0.1699(7) 0.7500
C19I C 0.3657(5) 0.2877(5) 0.3143(11)
C19I_2 C 0.3657(5) 0.2877(5) 1.3143(11)
C19_2 C 0.3657(5) 0.2877(5) 1.1857(11)
C19D C 0.2877(5) -0.0780(7) 0.6857(11)
C19G C 0.2877(5) -0.0780(7) 0.8143(11)
H6I H 0.3617 0.2965 0.3604
H6I_2 H 0.3617 0.2965 1.3604
H6_2 H 0.3617 0.2965 1.1396
H6D H 0.2965 -0.0652 0.6396
H6G H 0.2965 -0.0652 0.8604
C20I C 0.3646(7) 0.2519(7) 0.3174(14)
C20I_2 C 0.3646(7) 0.2519(7) 1.3174(14)
C20_2 C 0.3646(7) 0.2519(7) 1.1826(14)
C20D C 0.2519(7) -0.1127(10) 0.6826(14)
C20G C 0.2519(7) -0.1127(10) 0.8174(14)
H7I H 0.3627 0.2397 0.3635
H7I_2 H 0.3627 0.2397 1.3635
H7_2 H 0.3627 0.2397 1.1365
H7D H 0.2397 -0.1230 0.6365
H7G H 0.2397 -0.1230 0.8635
Cl1F Cl 0.4616(3) -0.0207(3) 0.3360(5)
Cl1I Cl 0.5384(3) 0.0207(3) 0.8360(5)
Cl1C Cl 0.4616(3) -0.0207(3) 1.1640(5)
Cl1A Cl 0.9793(3) 0.5177(4) 0.6640(5)
Cl1G Cl 1.0207(3) 0.4823(4) 0.3360(5)
O7A O 0.8493(4) 0.3169(6) 0.7500
O7B O 0.6831(6) 0.5324(5) 0.7500
O7_2 O 0.4676(5) 0.1507(4) -0.2500
O7_3 O 0.4676(5) 0.1507(4) 1.7500
O8A O 0.8734(4) 0.3782(7) 0.7500
O8B O 0.6218(7) 0.4952(6) 0.7500
C21A C 0.8452(7) 0.3448(10) 0.7500
C21B C 0.6552(10) 0.5004(7) 0.7500
C22A C 0.8083(12) 0.3470(16) 0.7500
C22B C 0.6530(16) 0.4613(11) 0.7500
C23B C 0.6998(16) 0.3692(10) 0.7500
C23A C 0.6694(12) 0.3002(16) 0.7500
H8B H 0.7215 0.3925 0.7500
H8A H 0.6710 0.2785 0.7500
C24B C 0.6642(13) 0.3658(9) 0.7500
C24A C 0.7016(9) 0.3358(13) 0.7500
C25A C 0.7813(9) 0.3135(13) 0.7500
C25B C 0.6865(13) 0.4678(9) 0.7500
H9A H 0.7850 0.2930 0.7500
H9B H 0.7070 0.4920 0.7500
C26A C 0.7433(10) 0.3092(14) 0.7500
C26B C 0.6908(14) 0.4341(10) 0.7500
H10A H 0.7212 0.2862 0.7500
H10B H 0.7138 0.4350 0.7500
C27A C 0.7446(10) 0.3444(15) 0.7500
C27B C 0.6556(15) 0.4002(11) 0.7500
Zn1I Zn 0.40271(3) 0.03058(3) -0.16034(6)
Zn1I_2 Zn 0.40271(3) 0.03058(3) 0.83966(6)
Zn1_2 Zn 0.40271(3) 0.03058(3) 1.66034(6)
Zn1E Zn 0.37213(4) 0.40271(3) 0.16034(6)
Zn1H Zn 0.37213(4) 0.40271(3) 0.33966(6)
Zn1F Zn 0.59729(3) -0.03058(3) 0.33966(6)
Zn1H_2 Zn 0.37213(4) 0.40271(3) 1.33966(6)
Zn1E_2 Zn 0.37213(4) 0.40271(3) 1.16034(6)
Zn1D Zn 0.03058(3) -0.37213(4) 1.16034(6)
Zn1G Zn 0.03058(3) -0.37213(4) 0.33966(6)
Zn1C Zn 0.59729(3) -0.03058(3) 1.16034(6)
Zn1_3 Zn 0.40271(3) 0.03058(3) -0.33966(6)
Zn1I_3 Zn 0.40271(3) 0.03058(3) 1.83966(6)
Zn1A Zn 0.96942(3) 0.37213(4) 0.66034(6)
Zn1G_2 Zn 1.03058(3) 0.62787(4) 0.33966(6)
Zn2_2 Zn 0.42438(5) 0.10458(5) -0.2500
Zn2_3 Zn 0.42438(5) 0.10458(5) 1.7500
Zn2A Zn 0.89542(5) 0.31980(7) 0.7500
Zn2B Zn 0.68020(7) 0.57562(5) 0.7500
Zn2D Zn 0.10458(5) -0.31980(7) 1.2500
Zn2D_2 Zn 0.10458(5) -0.31980(7) 0.2500
Zn3A Zn 0.92545(6) 0.40697(8) 0.7500
Zn3B Zn 0.59303(8) 0.51848(6) 0.7500
Zn3C Zn 0.51848(6) -0.07455(6) 0.2500
Zn3C_2 Zn 0.51848(6) -0.07455(6) 1.2500
Zn3_2 Zn 0.48152(6) 0.07455(6) -0.2500
Zn3_3 Zn 0.48152(6) 0.07455(6) 1.7500
Zn3D Zn 1.07455(6) 0.59303(8) 0.2500
loop_
_geom_bond_atom_site_label_1
_geom_bond_atom_site_label_2
_geom_bond_site_symmetry_1
_geom_bond_site_symmetry_2
O1 C4 1_555 1_555
O2 C4 1_555 1_555
O3 Zn1 1_555 1_555
C1 C2 1_555 1_555
C2 C3 1_555 1_555
C3 C5 1_555 1_555
C4 C10 1_555 1_555
C5 H1 1_555 1_555
C6 C2 1_555 1_555
C7 C3 1_555 1_555
H2 C7 1_555 1_555
O4 C8 1_555 1_555
O5 C16 1_555 1_555
O6 C16 1_555 1_555
C8 C9 1_555 1_555
C9 C19 1_555 1_555
C10 C11 1_555 1_555
C11 C7 1_555 1_555
H3 C11 1_555 1_555
C12 C5 1_555 1_555
H4 C12 1_555 1_555
C13 C15 1_555 1_555
C14 C18 1_555 1_555
C15 Cl1 1_555 1_555
C16 C13 1_555 1_555
C17 C13 1_555 1_555
H5 C17 1_555 1_555
C18 C1 1_555 1_555
C19 H6 1_555 1_555
C20 C14 1_555 1_555
H7 C20 1_555 1_555
O7 C21 1_555 1_555
O8 C21 1_555 1_555
C21 C22 1_555 1_555
C22 C25 1_555 1_555
C23 H8 1_555 1_555
C24 C23 1_555 1_555
C25 H9 1_555 1_555
C26 C25 1_555 1_555
H10 C26 1_555 1_555
C27 C24 1_555 1_555
Zn1 O2 1_555 1_555
Zn2 O1 1_555 1_555
Zn3 O3 1_555 1_555
O1I C4I 1_555 1_555
O1I_2 Zn2 1_555 1_555
O1_2 C4_2 1_555 1_555
O1D C4D 1_555 1_555
O1G C4G 1_555 1_555
O1_3 Zn2_2 1_555 1_555
O1I_3 Zn2_3 1_555 1_555
O2I C4I 1_555 1_555
O2I_2 C4I_2 1_555 1_555
O2_2 C4_2 1_555 1_555
O2D C4D 1_555 1_555
O2G C4G 1_555 1_555
O2E Zn1E 1_555 1_555
O2H Zn1H 1_555 1_555
O3_2 Zn1I 1_555 1_555
O3_3 Zn1_2 1_555 1_555
O3A Zn1A 1_555 1_555
O3B Zn2B 1_555 1_555
O3E Zn1E 1_555 1_555
C1I C18 1_555 1_555
C1I_2 C2I_2 1_555 1_555
C1_2 C2_2 1_555 1_555
C1D C2D 1_555 1_555
C1G C2G 1_555 1_555
C2I C6 1_555 1_555
C2I_2 C3I_2 1_555 1_555
C2_2 C3_2 1_555 1_555
C2D C3D 1_555 1_555
C2G C3G 1_555 1_555
C3I C2I 1_555 1_555
C3I_2 C5I_2 1_555 1_555
C3_2 C5_2 1_555 1_555
C3D C5D 1_555 1_555
C3G C5G 1_555 1_555
C4I C10I 1_555 1_555
C4I_2 O1I_2 1_555 1_555
C4_2 C10_2 1_555 1_555
C4D C10D 1_555 1_555
C4G C10G 1_555 1_555
C5I C3I 1_555 1_555
C5I_2 H1I_2 1_555 1_555
C5_2 H1_2 1_555 1_555
C5D H1D 1_555 1_555
C5G H1G 1_555 1_555
H1I C5I 1_555 1_555
C6_2 C2I_2 1_555 1_555
C6D C2D 1_555 1_555
C7I C3I 1_555 1_555
C7I_2 C3I_2 1_555 1_555
C7_2 C3_2 1_555 1_555
C7D C3D 1_555 1_555
C7G C3G 1_555 1_555
H2I C7I 1_555 1_555
H2I_2 C7I_2 1_555 1_555
H2_2 C7_2 1_555 1_555
H2D C7D 1_555 1_555
H2G C7G 1_555 1_555
O4I C8 1_555 1_555
O4I_2 C8_2 1_555 1_555
O4_2 C8_2 1_555 1_555
O4D Zn1 1_555 1_555
O4G C8D 1_555 1_555
O4G_2 Zn1I 1_555 1_555
O4D_2 Zn1_2 1_555 1_555
O5F C16F 1_555 1_555
O5I C16I 1_555 1_555
O5C C16C 1_555 1_555
O5A C16A 1_555 1_555
O5G C16G 1_555 1_555
O5I_2 Zn1I 1_555 1_555
O5_2 Zn1_2 1_555 1_555
O5E Zn1E 1_555 1_555
O5H Zn1H 1_555 1_555
O6F C16F 1_555 1_555
O6I Zn3 1_555 1_555
O6C C16C 1_555 1_555
O6A C16A 1_555 1_555
O6G C16G 1_555 1_555
O6J Zn3A 1_555 1_555
O6B Zn3B 1_555 1_555
O6K Zn3B 1_555 1_555
C8_2 C9_2 1_555 1_555
C8D O4D 1_555 1_555
C9_2 C19I_2 1_555 1_555
C9D C8D 1_555 1_555
C10I C11I 1_555 1_555
C10I_2 C4I_2 1_555 1_555
C10_2 C11_2 1_555 1_555
C10D C11D 1_555 1_555
C10G C11G 1_555 1_555
C11I C7I 1_555 1_555
C11I_2 C7I_2 1_555 1_555
C11_2 C7_2 1_555 1_555
C11D C7D 1_555 1_555
C11G C7G 1_555 1_555
H3I C11I 1_555 1_555
H3I_2 C11I_2 1_555 1_555
H3_2 C11_2 1_555 1_555
H3D C11D 1_555 1_555
H3G C11G 1_555 1_555
C12I C5I 1_555 1_555
C12I_2 C5I_2 1_555 1_555
C12_2 C5_2 1_555 1_555
C12D C5D 1_555 1_555
C12G C5G 1_555 1_555
H4I C12I 1_555 1_555
H4I_2 C12I_2 1_555 1_555
H4_2 C12_2 1_555 1_555
H4D C12D 1_555 1_555
H4G C12G 1_555 1_555
C13F C15F 1_555 1_555
C13I C15I 1_555 1_555
C13C C15C 1_555 1_555
C13A C15A 1_555 1_555
C13G C15G 1_555 1_555
C14_2 C18_2 1_555 1_555
C14D C18D 1_555 1_555
C15F C17 1_555 1_555
C15I C17C 1_555 1_555
C15C C17I 1_555 1_555
C15A C17G 1_555 1_555
C15G C17A 1_555 1_555
C16F C13F 1_555 1_555
C16I O6I 1_555 1_555
C16C C13C 1_555 1_555
C16A C13A 1_555 1_555
C16G C13G 1_555 1_555
C17F C15 1_555 1_555
C17I C13I 1_555 1_555
C17C C13C 1_555 1_555
C17A C13A 1_555 1_555
C17G C13G 1_555 1_555
H5F C17F 1_555 1_555
H5I C17I 1_555 1_555
H5C C17C 1_555 1_555
H5A C17A 1_555 1_555
H5G C17G 1_555 1_555
C18_2 C1I_2 1_555 1_555
C18D C1D 1_555 1_555
C19I C9 1_555 1_555
C19I_2 H6I_2 1_555 1_555
C19_2 C9_2 1_555 1_555
C19D C9D 1_555 1_555
C19G C9D 1_555 1_555
H6I C19I 1_555 1_555
H6_2 C19_2 1_555 1_555
H6D C19D 1_555 1_555
H6G C19G 1_555 1_555
C20I C14 1_555 1_555
C20I_2 C14_2 1_555 1_555
C20_2 C14_2 1_555 1_555
C20D C14D 1_555 1_555
C20G C14D 1_555 1_555
H7I C20I 1_555 1_555
H7I_2 C20I_2 1_555 1_555
H7_2 C20_2 1_555 1_555
H7D C20D 1_555 1_555
H7G C20G 1_555 1_555
Cl1F C15F 1_555 1_555
Cl1I C15I 1_555 1_555
Cl1C C15C 1_555 1_555
Cl1A C15A 1_555 1_555
Cl1G C15G 1_555 1_555
O7A C21A 1_555 1_555
O7B C21B 1_555 1_555
O7_2 Zn2_2 1_555 1_555
O7_3 Zn2_3 1_555 1_555
O8A C21A 1_555 1_555
O8B C21B 1_555 1_555
C21A C22A 1_555 1_555
C21B C22B 1_555 1_555
C22A C25A 1_555 1_555
C22B C25B 1_555 1_555
C23B H8B 1_555 1_555
C23A C24 1_555 1_555
H8A C23A 1_555 1_555
C24B C23 1_555 1_555
C24A C23B 1_555 1_555
C25A H9A 1_555 1_555
C25B H9B 1_555 1_555
C26A C25A 1_555 1_555
C26B C25B 1_555 1_555
H10A C26A 1_555 1_555
H10B C26B 1_555 1_555
C27A C24A 1_555 1_555
C27B C24B 1_555 1_555
Zn1I O2I 1_555 1_555
Zn1I_2 O3 1_555 1_555
Zn1_2 O2_2 1_555 1_555
Zn1E O4 1_555 1_555
Zn1H O3E 1_555 1_555
Zn1F O5F 1_555 1_555
Zn1H_2 O4I_2 1_555 1_555
Zn1E_2 O4_2 1_555 1_555
Zn1D O2D 1_555 1_555
Zn1G O2G 1_555 1_555
Zn1C O5C 1_555 1_555
Zn1_3 O3_2 1_555 1_555
Zn1I_3 O3_3 1_555 1_555
Zn1A O5A 1_555 1_555
Zn1G_2 O5G 1_555 1_555
Zn2_2 O1I 1_555 1_555
Zn2_3 O1_2 1_555 1_555
Zn2A O3A 1_555 1_555
Zn2B O7B 1_555 1_555
Zn2D O1D 1_555 1_555
Zn2D_2 O1G 1_555 1_555
Zn3A O3A 1_555 1_555
Zn3B O3B 1_555 1_555
Zn3C O6F 1_555 1_555
Zn3C_2 O6C 1_555 1_555
Zn3_2 O3_2 1_555 1_555
Zn3_3 O3_3 1_555 1_555
Zn3D O6G 1_555 1_555
O3 Zn2 1_555 1_555
O5 Zn1 1_555 1_555
O6 Zn3 1_555 1_555
C10 C12 1_555 1_555
C19 C20 1_555 1_555
O7 Zn2 1_555 1_555
O8 Zn3 1_555 1_555
C26 C27 1_555 1_555
O2I_2 Zn1I_2 1_555 1_555
O3_2 Zn2_2 1_555 1_555
O3_3 Zn2_3 1_555 1_555
C1I C2I 1_555 1_555
C1_2 C18_2 1_555 1_555
C1G C18D 1_555 1_555
C2_2 C6_2 1_555 1_555
C2G C6D 1_555 1_555
O4I Zn1H 1_555 1_555
O4G Zn1I_2 1_555 1_555
O5I Zn1I_2 1_555 1_555
O6A Zn3A 1_555 1_555
C10I C12I 1_555 1_555
C10I_2 C11I_2 1_555 1_555
C10I_2 C12I_2 1_555 1_555
C10_2 C12_2 1_555 1_555
C10D C12D 1_555 1_555
C10G C12G 1_555 1_555
C13F C17F 1_555 1_555
C13I C16I 1_555 1_555
C19I C20I 1_555 1_555
C19I_2 C20I_2 1_555 1_555
C19_2 C20_2 1_555 1_555
C19D C20D 1_555 1_555
C19G C20G 1_555 1_555
O7A Zn2A 1_555 1_555
O8A Zn3A 1_555 1_555
O8B Zn3B 1_555 1_555
C23B C24B 1_555 1_555
C23A C24A 1_555 1_555
C26A C27A 1_555 1_555
C26B C27B 1_555 1_555

#END
