
#######################################################################
#
#                 Cambridge Crystallographic Data Centre
#                                CCDC 
#
#######################################################################
#
# If this CIF has been generated from an entry in the Cambridge 
# Structural Database, then it will include bibliographic, chemical, 
# crystal, experimental, refinement or atomic coordinate data resulting 
# from the CCDC's data processing and validation procedures.
#
#######################################################################

data_FAZQII
_symmetry_cell_setting           hexagonal
_symmetry_space_group_name_H-M   'P 63/m'
_symmetry_Int_Tables_number      176
_space_group_name_Hall           '-P 6c'
loop_
_symmetry_equiv_pos_site_id
_symmetry_equiv_pos_as_xyz
1 x,y,z
2 -y,x-y,z
3 -x+y,-x,z
4 -x,-y,1/2+z
5 y,-x+y,1/2+z
6 x-y,x,1/2+z
7 -x,-y,-z
8 y,-x+y,-z
9 x-y,x,-z
10 x,y,1/2-z
11 -y,x-y,1/2-z
12 -x+y,-x,1/2-z
_cell_length_a                   41.367(4)
_cell_length_b                   41.367(4)
_cell_length_c                   17.5389(17)
_cell_angle_alpha                90
_cell_angle_beta                 90
_cell_angle_gamma                120
_cell_volume                     25992.1
loop_
_atom_site_label
_atom_site_type_symbol
_atom_site_fract_x
_atom_site_fract_y
_atom_site_fract_z
O1 O 0.36811(8) 0.42618(9) 0.2500
O2 O 0.29306(8) 0.40329(8) 0.34316(17)
O3 O 0.32986(8) 0.38715(8) 0.40714(17)
O4 O 0.32915(13) 0.47571(13) 0.2500
O5 O 0.38980(14) 0.51216(13) 0.2500
O6 O 0.01662(8) 0.37307(8) 0.68693(17)
O7 O 0.44058(10) 0.48789(9) 0.33765(19)
O8 O 0.41669(9) 0.43314(9) 0.39781(18)
C1 C 0.03108(15) 0.37324(15) 0.7500
C2 C 0.06533(18) 0.37218(18) 0.7500
C3 C 0.30209(11) 0.39265(11) 0.4022(2)
C4 C 0.35767(17) 0.50707(16) 0.2500
C5 C 0.28087(13) 0.38668(13) 0.4721(3)
C6 C 0.43997(14) 0.46734(15) 0.3880(3)
C7 C 0.22146(15) 0.37416(15) 0.6789(3)
C8 C 0.26572(16) 0.36568(16) 0.6013(4)
H1 H 0.2697 0.3541 0.6428
C9 C 0.2397(2) 0.3750(2) 0.7500
C10 C 0.24141(14) 0.37833(14) 0.6079(3)
C11 C 0.3531(2) 0.5396(2) 0.2500
C12 C 0.23487(17) 0.39352(16) 0.5442(4)
H2 H 0.2173 0.4013 0.5465
C13 C 0.25395(15) 0.39759(15) 0.4762(3)
H3 H 0.2488 0.4076 0.4335
C14 C 0.28511(16) 0.36964(15) 0.5328(3)
H4 H 0.3013 0.3602 0.5298
C15 C 0.18687(14) 0.37236(14) 0.6787(3)
C16 C 0.1689(2) 0.3710(2) 0.7500
C17 C 0.3423(2) 0.6024(2) 0.2500
C18 C 0.3675(2) 0.6713(2) 0.2500
H5 H 0.3914 0.6745 0.2500
C19 C 0.3381(2) 0.6358(2) 0.2500
C20 C 0.4722(2) 0.4853(2) 0.4470(5)
C21 C 0.3813(3) 0.5743(3) 0.2500
H6 H 0.4056 0.5785 0.2500
C22 C 0.3757(4) 0.6038(4) 0.2500
H7 H 0.3969 0.6274 0.2500
C23 C 0.3190(4) 0.5355(4) 0.2500
H8 H 0.2976 0.5121 0.2500
C24 C 0.0823(2) 0.3723(2) 0.6857(5)
H9 H 0.0720 0.3729 0.6390
C25 C 0.1169(3) 0.3715(3) 0.6882(6)
H10 H 0.1281 0.3717 0.6422
C26 C 0.3166(4) 0.5698(4) 0.2500
H11 H 0.2926 0.5664 0.2500
C27 C 0.13313(19) 0.3706(2) 0.7500
C28 C 0.4686(4) 0.4715(4) 0.5137(7)
H12 H 0.4481 0.4477 0.5201
C29 C 0.5068(4) 0.5119(4) 0.4150(9)
O9 O 0.5176(6) 0.5231(6) 0.3372(11)
Zn1 Zn 0.371745(12) 0.400891(12) 0.33981(2)
Zn2 Zn 0.320469(16) 0.425235(16) 0.2500
Zn3 Zn 0.408216(17) 0.477692(17) 0.2500
O1_2 O 0.36811(8) 0.42618(9) 1.2500
O1_3 O 0.36811(8) 0.42618(9) -0.7500
O1A O 0.57382(9) 0.94193(12) 0.2500
O1B O 0.05807(12) 0.63189(8) 0.2500
O1E O -0.05807(12) 0.36811(8) 0.7500
O2I O 0.29306(8) 0.40329(8) 1.15684(17)
O2I_2 O 0.29306(8) 0.40329(8) 0.15684(17)
O2_2 O 0.29306(8) 0.40329(8) -0.65684(17)
O2G O 0.40329(8) 0.11023(11) 0.65684(17)
O2D O 0.40329(8) 0.11023(11) -0.15684(17)
O2_3 O 0.29306(8) 0.40329(8) 1.34316(17)
O2I_3 O 0.29306(8) 0.40329(8) -0.84316(17)
O3I O 0.32986(8) 0.38715(8) 1.09286(17)
O3I_2 O 0.32986(8) 0.38715(8) 0.09286(17)
O3_2 O 0.32986(8) 0.38715(8) -0.59286(17)
O3G O 0.38715(8) 0.05729(11) 0.59286(17)
O3D O 0.38715(8) 0.05729(11) -0.09286(17)
O3H O -0.05729(11) 0.32986(8) 0.59286(17)
O3E O -0.05729(11) 0.32986(8) 0.90714(17)
O4A O 0.52429(13) 0.85344(18) 0.2500
O4B O 0.14656(18) 0.67085(13) 0.2500
O4_2 O 0.32915(13) 0.47571(13) 1.2500
O4_3 O 0.32915(13) 0.47571(13) -0.7500
O5A O 0.48784(13) 0.87764(19) 0.2500
O5B O 0.12236(19) 0.61020(14) 0.2500
O6I O 0.01662(8) 0.37307(8) 0.81307(17)
O6I_2 O 0.01662(8) 0.37307(8) -0.18693(17)
O6_2 O 0.01662(8) 0.37307(8) -0.31307(17)
O6G O 0.37307(8) 0.35645(11) 0.31307(17)
O6D O 0.37307(8) 0.35645(11) 0.18693(17)
O6D_2 O 0.37307(8) 0.35645(11) 1.18693(17)
O6G_2 O 0.37307(8) 0.35645(11) -0.68693(17)
O7F O 0.55942(10) 0.51211(9) 0.66235(19)
O7I O 0.44058(10) 0.48789(9) 0.16235(19)
O7C O 0.55942(10) 0.51211(9) -0.16235(19)
O7A O 0.51211(9) 0.95269(13) 0.33765(19)
O7G O 0.48789(9) 1.04731(13) 0.66235(19)
O7J O 0.51211(9) 0.95269(13) 0.16235(19)
O7B O 0.04731(13) 0.55942(10) 0.33765(19)
O7K O 0.04731(13) 0.55942(10) 0.16235(19)
O8F O 0.58331(9) 0.56686(9) 0.60219(18)
O8I O 0.41669(9) 0.43314(9) 0.10219(18)
O8C O 0.58331(9) 0.56686(9) -0.10219(18)
O8A O 0.56686(9) 0.98355(13) 0.39781(18)
O8G O 0.43314(9) 1.01645(13) 0.60219(18)
O8I_2 O 0.41669(9) 0.43314(9) 1.10219(18)
O8_2 O 0.41669(9) 0.43314(9) -0.60219(18)
O8H O -0.01645(13) 0.41669(9) 0.60219(18)
O8E O -0.01645(13) 0.41669(9) 0.89781(18)
C1_2 C 0.03108(15) 0.37324(15) -0.2500
C1D C 0.37324(15) 0.34216(21) 0.2500
C2_2 C 0.06533(18) 0.37218(18) -0.2500
C2D C 0.37218(18) 0.30685(25) 0.2500
C3I C 0.30209(11) 0.39265(11) 1.0978(2)
C3I_2 C 0.30209(11) 0.39265(11) 0.0978(2)
C3_2 C 0.30209(11) 0.39265(11) -0.5978(2)
C3G C 0.39265(11) 0.09056(16) 0.5978(2)
C3D C 0.39265(11) 0.09056(16) -0.0978(2)
C4A C 0.49293(16) 0.85060(23) 0.2500
C4B C 0.14940(23) 0.64233(17) 0.2500
C5I C 0.28087(13) 0.38668(13) 1.0279(3)
C5I_2 C 0.28087(13) 0.38668(13) 0.0279(3)
C5_2 C 0.28087(13) 0.38668(13) -0.5279(3)
C5G C 0.38668(13) 0.10581(18) 0.5279(3)
C5D C 0.38668(13) 0.10581(18) -0.0279(3)
C6F C 0.56003(14) 0.53266(15) 0.6120(3)
C6I C 0.43997(14) 0.46734(15) 0.1120(3)
C6C C 0.56003(14) 0.53266(15) -0.1120(3)
C6A C 0.53266(15) 0.97263(21) 0.3880(3)
C6G C 0.46734(15) 1.02737(21) 0.6120(3)
C7I C 0.22146(15) 0.37416(15) 0.8211(3)
C7I_2 C 0.22146(15) 0.37416(15) -0.1789(3)
C7_2 C 0.22146(15) 0.37416(15) -0.3211(3)
C7G C 0.37416(15) 0.15270(21) 0.3211(3)
C7D C 0.37416(15) 0.15270(21) 0.1789(3)
C8I C 0.26572(16) 0.36568(16) 0.8987(4)
C8I_2 C 0.26572(16) 0.36568(16) -0.1013(4)
C8_2 C 0.26572(16) 0.36568(16) -0.3987(4)
C8G C 0.36568(16) 0.09996(23) 0.3987(4)
C8D C 0.36568(16) 0.09996(23) 0.1013(4)
H1I H 0.2697 0.3541 0.8572
H1I_2 H 0.2697 0.3541 -0.1428
H1_2 H 0.2697 0.3541 -0.3572
H1G H 0.3541 0.0844 0.3572
H1D H 0.3541 0.0844 0.1428
C9_2 C 0.2397(2) 0.3750(2) -0.2500
C9D C 0.3750(2) 0.1353(3) 0.2500
C10I C 0.24141(14) 0.37833(14) 0.8921(3)
C10I_2 C 0.24141(14) 0.37833(14) -0.1079(3)
C10_2 C 0.24141(14) 0.37833(14) -0.3921(3)
C10G C 0.37833(14) 0.13692(20) 0.3921(3)
C10D C 0.37833(14) 0.13692(20) 0.1079(3)
C11A C 0.4604(2) 0.8135(3) 0.2500
C11B C 0.1865(3) 0.6469(2) 0.2500
C12I C 0.23487(17) 0.39352(16) 0.9558(4)
C12I_2 C 0.23487(17) 0.39352(16) -0.0442(4)
C12_2 C 0.23487(17) 0.39352(16) -0.4558(4)
C12G C 0.39352(16) 0.15865(23) 0.4558(4)
C12D C 0.39352(16) 0.15865(23) 0.0442(4)
H2I H 0.2173 0.4013 0.9535
H2I_2 H 0.2173 0.4013 -0.0465
H2_2 H 0.2173 0.4013 -0.4535
H2G H 0.4013 0.1840 0.4535
H2D H 0.4013 0.1840 0.0465
C13I C 0.25395(15) 0.39759(15) 1.0238(3)
C13I_2 C 0.25395(15) 0.39759(15) 0.0238(3)
C13_2 C 0.25395(15) 0.39759(15) -0.5238(3)
C13G C 0.39759(15) 0.14364(21) 0.5238(3)
C13D C 0.39759(15) 0.14364(21) -0.0238(3)
H3I H 0.2488 0.4076 1.0665
H3I_2 H 0.2488 0.4076 0.0665
H3_2 H 0.2488 0.4076 -0.5665
H3G H 0.4076 0.1588 0.5665
H3D H 0.4076 0.1588 -0.0665
C14I C 0.28511(16) 0.36964(15) 0.9672(3)
C14I_2 C 0.28511(16) 0.36964(15) -0.0328(3)
C14_2 C 0.28511(16) 0.36964(15) -0.4672(3)
C14G C 0.36964(15) 0.08453(22) 0.4672(3)
C14D C 0.36964(15) 0.08453(22) 0.0328(3)
H4I H 0.3013 0.3602 0.9702
H4I_2 H 0.3013 0.3602 -0.0298
H4_2 H 0.3013 0.3602 -0.4702
H4G H 0.3602 0.0589 0.4702
H4D H 0.3602 0.0589 0.0298
C15I C 0.18687(14) 0.37236(14) 0.8213(3)
C15I_2 C 0.18687(14) 0.37236(14) -0.1787(3)
C15_2 C 0.18687(14) 0.37236(14) -0.3213(3)
C15G C 0.37236(14) 0.18549(20) 0.3213(3)
C15D C 0.37236(14) 0.18549(20) 0.1787(3)
C16_2 C 0.1689(2) 0.3710(2) -0.2500
C16D C 0.3710(2) 0.2021(3) 0.2500
C17A C 0.3976(2) 0.7399(3) 0.2500
C17B C 0.2601(3) 0.6577(2) 0.2500
C18A C 0.3287(2) 0.6962(3) 0.2500
C18B C 0.3038(3) 0.6325(2) 0.2500
H5A H 0.3255 0.7169 0.2500
H5B H 0.2831 0.6086 0.2500
C19A C 0.3642(2) 0.7023(3) 0.2500
C19B C 0.2977(3) 0.6619(2) 0.2500
C20F C 0.5278(2) 0.5147(2) 0.5530(5)
C20I C 0.4722(2) 0.4853(2) 0.0530(5)
C20C C 0.5278(2) 0.5147(2) -0.0530(5)
C20A C 0.5147(2) 0.9869(3) 0.4470(5)
C20G C 0.4853(2) 1.0131(3) 0.5530(5)
C21A C 0.4257(3) 0.8070(4) 0.2500
C21B C 0.1930(4) 0.6187(3) 0.2500
H6A H 0.4215 0.8271 0.2500
H6B H 0.1729 0.5944 0.2500
C22A C 0.3962(4) 0.7719(6) 0.2500
C22B C 0.2281(6) 0.6243(4) 0.2500
H7A H 0.3726 0.7695 0.2500
H7B H 0.2305 0.6031 0.2500
C23A C 0.4645(4) 0.7835(6) 0.2500
C23B C 0.2165(6) 0.6810(4) 0.2500
H8A H 0.4879 0.7855 0.2500
H8B H 0.2145 0.7024 0.2500
C24I C 0.0823(2) 0.3723(2) 0.8143(5)
C24I_2 C 0.0823(2) 0.3723(2) -0.1857(5)
C24_2 C 0.0823(2) 0.3723(2) -0.3143(5)
C24G C 0.3723(2) 0.2900(3) 0.3143(5)
C24D C 0.3723(2) 0.2900(3) 0.1857(5)
H9I H 0.0720 0.3729 0.8610
H9I_2 H 0.0720 0.3729 -0.1390
H9_2 H 0.0720 0.3729 -0.3610
H9G H 0.3729 0.3009 0.3610
H9D H 0.3729 0.3009 0.1390
C25I C 0.1169(3) 0.3715(3) 0.8118(6)
C25I_2 C 0.1169(3) 0.3715(3) -0.1882(6)
C25_2 C 0.1169(3) 0.3715(3) -0.3118(6)
C25G C 0.3715(3) 0.2546(4) 0.3118(6)
C25D C 0.3715(3) 0.2546(4) 0.1882(6)
H10I H 0.1281 0.3717 0.8578
H10I_2 H 0.1281 0.3717 -0.1422
H10_2 H 0.1281 0.3717 -0.3578
H10G H 0.3717 0.2436 0.3578
H10D H 0.3717 0.2436 0.1422
C26A C 0.4302(4) 0.7468(6) 0.2500
C26B C 0.2532(6) 0.6834(4) 0.2500
H11A H 0.4336 0.7262 0.2500
H11B H 0.2738 0.7074 0.2500
C27_2 C 0.13313(19) 0.3706(2) -0.2500
C27D C 0.3706(2) 0.23747(28) 0.2500
C28F C 0.5314(4) 0.5285(4) 0.4863(7)
C28I C 0.4686(4) 0.4715(4) -0.0137(7)
C28C C 0.5314(4) 0.5285(4) 0.0137(7)
C28A C 0.5285(4) 0.9971(6) 0.5137(7)
C28G C 0.4715(4) 1.0029(6) 0.4863(7)
H12F H 0.5519 0.5523 0.4799
H12I H 0.4481 0.4477 -0.0201
H12C H 0.5519 0.5523 0.0201
H12A H 0.5523 1.0004 0.5201
H12G H 0.4477 0.9996 0.4799
C29F C 0.4932(4) 0.4881(4) 0.5850(9)
C29I C 0.5068(4) 0.5119(4) 0.0850(9)
C29C C 0.4932(4) 0.4881(4) -0.0850(9)
C29A C 0.4881(4) 0.9949(6) 0.4150(9)
C29G C 0.5119(4) 1.0051(6) 0.5850(9)
O9F O 0.4824(6) 0.4769(6) 0.6628(11)
O9I O 0.5176(6) 0.5231(6) 0.1628(11)
O9C O 0.4824(6) 0.4769(6) -0.1628(11)
O9A O 0.4769(6) 0.9945(8) 0.3372(11)
O9G O 0.5231(6) 1.0055(8) 0.6628(11)
Zn1I Zn 0.371745(12) 0.400891(12) 0.16019(2)
Zn1I_2 Zn 0.371745(12) 0.400891(12) 1.16019(2)
Zn1_2 Zn 0.371745(12) 0.400891(12) -0.66019(2)
Zn1H Zn -0.029146(17) 0.371745(12) 0.66019(2)
Zn1E Zn -0.029146(17) 0.371745(12) 0.83981(2)
Zn1F Zn 0.628255(12) 0.599109(12) 0.66019(2)
Zn1E_2 Zn -0.029146(17) 0.371745(12) -0.16019(2)
Zn1H_2 Zn -0.029146(17) 0.371745(12) -0.33981(2)
Zn1G Zn 0.400891(12) 0.029146(17) 0.66019(2)
Zn1D Zn 0.400891(12) 0.029146(17) -0.16019(2)
Zn1C Zn 0.628255(12) 0.599109(12) -0.16019(2)
Zn1_3 Zn 0.371745(12) 0.400891(12) 1.33981(2)
Zn1I_3 Zn 0.371745(12) 0.400891(12) -0.83981(2)
Zn1A Zn 0.599109(12) 0.970854(17) 0.33981(2)
Zn1G_2 Zn 0.400891(12) 1.029146(17) 0.66019(2)
Zn2_2 Zn 0.320469(16) 0.425235(16) 1.2500
Zn2_3 Zn 0.320469(16) 0.425235(16) -0.7500
Zn2A Zn 0.574765(16) 0.895234(23) 0.2500
Zn2B Zn 0.104766(23) 0.679531(16) 0.2500
Zn2D Zn 0.425235(16) 0.104766(23) 0.7500
Zn2D_2 Zn 0.425235(16) 0.104766(23) -0.2500
Zn3A Zn 0.522308(17) 0.930524(24) 0.2500
Zn3B Zn 0.069476(24) 0.591784(17) 0.2500
Zn3C Zn 0.591784(17) 0.522308(17) 0.7500
Zn3C_2 Zn 0.591784(17) 0.522308(17) -0.2500
Zn3_2 Zn 0.408216(17) 0.477692(17) 1.2500
Zn3_3 Zn 0.408216(17) 0.477692(17) -0.7500
Zn3D Zn 0.477692(17) 1.069476(24) 0.7500
loop_
_geom_bond_atom_site_label_1
_geom_bond_atom_site_label_2
_geom_bond_site_symmetry_1
_geom_bond_site_symmetry_2
O1 Zn1 1_555 1_555
O2 C3 1_555 1_555
O3 C3 1_555 1_555
O4 C4 1_555 1_555
O5 C4 1_555 1_555
O6 C1 1_555 1_555
O7 C6 1_555 1_555
O8 C6 1_555 1_555
C1 C2 1_555 1_555
C2 C24 1_555 1_555
C3 C5 1_555 1_555
C4 C11 1_555 1_555
C5 C13 1_555 1_555
C6 C20 1_555 1_555
C7 C9 1_555 1_555
C8 H1 1_555 1_555
C9 C7I 1_555 1_555
C10 C7 1_555 1_555
C11 C21 1_555 1_555
C12 C10 1_555 1_555
H2 C12 1_555 1_555
C13 C12 1_555 1_555
H3 C13 1_555 1_555
C14 C5 1_555 1_555
H4 C14 1_555 1_555
C15 C7 1_555 1_555
C16 C15 1_555 1_555
C17 C19 1_555 1_555
C18 H5 1_555 1_555
C19 C18 1_555 1_555
C20 C28 1_555 1_555
C21 H6 1_555 1_555
C22 C17 1_555 1_555
H7 C22 1_555 1_555
C23 C11 1_555 1_555
H8 C23 1_555 1_555
C24 H9 1_555 1_555
C25 C24 1_555 1_555
H10 C25 1_555 1_555
C26 C17 1_555 1_555
H11 C26 1_555 1_555
C27 C16 1_555 1_555
C28 H12 1_555 1_555
C29 C20 1_555 1_555
O9 C29 1_555 1_555
Zn1 O3 1_555 1_555
Zn2 O1 1_555 1_555
Zn3 O1 1_555 1_555
O1_2 Zn1I_2 1_555 1_555
O1_3 Zn1_2 1_555 1_555
O1A Zn1A 1_555 1_555
O1B Zn2B 1_555 1_555
O1E Zn1H 1_555 1_555
O2I C3I 1_555 1_555
O2I_2 Zn2 1_555 1_555
O2_2 C3_2 1_555 1_555
O2G C3G 1_555 1_555
O2D C3D 1_555 1_555
O2_3 Zn2_2 1_555 1_555
O2I_3 Zn2_3 1_555 1_555
O3I C3I 1_555 1_555
O3I_2 C3I_2 1_555 1_555
O3_2 C3_2 1_555 1_555
O3G C3G 1_555 1_555
O3D C3D 1_555 1_555
O3H Zn1H 1_555 1_555
O3E Zn1E 1_555 1_555
O4A C4A 1_555 1_555
O4B C4B 1_555 1_555
O4_2 Zn2_2 1_555 1_555
O4_3 Zn2_3 1_555 1_555
O5A C4A 1_555 1_555
O5B C4B 1_555 1_555
O6I C1 1_555 1_555
O6I_2 C1_2 1_555 1_555
O6_2 C1_2 1_555 1_555
O6G Zn1 1_555 1_555
O6D C1D 1_555 1_555
O6D_2 Zn1I_2 1_555 1_555
O6G_2 Zn1_2 1_555 1_555
O7F C6F 1_555 1_555
O7I Zn3 1_555 1_555
O7C C6C 1_555 1_555
O7A C6A 1_555 1_555
O7G C6G 1_555 1_555
O7J Zn3A 1_555 1_555
O7B Zn3B 1_555 1_555
O7K Zn3B 1_555 1_555
O8F C6F 1_555 1_555
O8I C6I 1_555 1_555
O8C C6C 1_555 1_555
O8A C6A 1_555 1_555
O8G C6G 1_555 1_555
O8I_2 Zn1I_2 1_555 1_555
O8_2 Zn1_2 1_555 1_555
O8H Zn1H 1_555 1_555
O8E Zn1E 1_555 1_555
C1_2 C2_2 1_555 1_555
C1D O6G 1_555 1_555
C2_2 C24I_2 1_555 1_555
C2D C1D 1_555 1_555
C3I C5I 1_555 1_555
C3I_2 O2I_2 1_555 1_555
C3_2 C5_2 1_555 1_555
C3G C5G 1_555 1_555
C3D C5D 1_555 1_555
C4A C11A 1_555 1_555
C4B C11B 1_555 1_555
C5I C13I 1_555 1_555
C5I_2 C3I_2 1_555 1_555
C5_2 C13_2 1_555 1_555
C5G C13G 1_555 1_555
C5D C13D 1_555 1_555
C6F C20F 1_555 1_555
C6I O7I 1_555 1_555
C6C C20C 1_555 1_555
C6A C20A 1_555 1_555
C6G C20G 1_555 1_555
C7I C10I 1_555 1_555
C7I_2 C9_2 1_555 1_555
C7_2 C9_2 1_555 1_555
C7G C9D 1_555 1_555
C7D C9D 1_555 1_555
C8I H1I 1_555 1_555
C8I_2 H1I_2 1_555 1_555
C8_2 H1_2 1_555 1_555
C8G H1G 1_555 1_555
C8D H1D 1_555 1_555
C10I C8I 1_555 1_555
C10I_2 C7I_2 1_555 1_555
C10_2 C7_2 1_555 1_555
C10G C7G 1_555 1_555
C10D C7D 1_555 1_555
C11A C21A 1_555 1_555
C11B C21B 1_555 1_555
C12I C10I 1_555 1_555
C12I_2 C10I_2 1_555 1_555
C12_2 C10_2 1_555 1_555
C12G C10G 1_555 1_555
C12D C10D 1_555 1_555
H2I C12I 1_555 1_555
H2I_2 C12I_2 1_555 1_555
H2_2 C12_2 1_555 1_555
H2G C12G 1_555 1_555
H2D C12D 1_555 1_555
C13I C12I 1_555 1_555
C13I_2 C5I_2 1_555 1_555
C13_2 C12_2 1_555 1_555
C13G C12G 1_555 1_555
C13D C12D 1_555 1_555
H3I C13I 1_555 1_555
H3I_2 C13I_2 1_555 1_555
H3_2 C13_2 1_555 1_555
H3G C13G 1_555 1_555
H3D C13D 1_555 1_555
C14I C5I 1_555 1_555
C14I_2 C5I_2 1_555 1_555
C14_2 C5_2 1_555 1_555
C14G C5G 1_555 1_555
C14D C5D 1_555 1_555
H4I C14I 1_555 1_555
H4I_2 C14I_2 1_555 1_555
H4_2 C14_2 1_555 1_555
H4G C14G 1_555 1_555
H4D C14D 1_555 1_555
C15I C16 1_555 1_555
C15I_2 C7I_2 1_555 1_555
C15_2 C7_2 1_555 1_555
C15G C7G 1_555 1_555
C15D C7D 1_555 1_555
C16_2 C15I_2 1_555 1_555
C16D C15G 1_555 1_555
C17A C19A 1_555 1_555
C17B C19B 1_555 1_555
C18A H5A 1_555 1_555
C18B C19 1_555 1_555
H5B C18B 1_555 1_555
C19A C18 1_555 1_555
C19B C18A 1_555 1_555
C20F C28F 1_555 1_555
C20I C6I 1_555 1_555
C20C C28C 1_555 1_555
C20A C28A 1_555 1_555
C20G C28G 1_555 1_555
C21A H6A 1_555 1_555
C21B H6B 1_555 1_555
C22A C17A 1_555 1_555
C22B C17B 1_555 1_555
H7A C22A 1_555 1_555
H7B C22B 1_555 1_555
C23A C11A 1_555 1_555
C23B C11B 1_555 1_555
H8A C23A 1_555 1_555
H8B C23B 1_555 1_555
C24I C2 1_555 1_555
C24I_2 H9I_2 1_555 1_555
C24_2 C2_2 1_555 1_555
C24G C2D 1_555 1_555
C24D C2D 1_555 1_555
H9I C24I 1_555 1_555
H9_2 C24_2 1_555 1_555
H9G C24G 1_555 1_555
H9D C24D 1_555 1_555
C25I C27 1_555 1_555
C25I_2 C24I_2 1_555 1_555
C25_2 C24_2 1_555 1_555
C25G C24G 1_555 1_555
C25D C24D 1_555 1_555
H10I C25I 1_555 1_555
H10I_2 C25I_2 1_555 1_555
H10_2 C25_2 1_555 1_555
H10G C25G 1_555 1_555
H10D C25D 1_555 1_555
C26A C17A 1_555 1_555
C26B C17B 1_555 1_555
H11A C26A 1_555 1_555
H11B C26B 1_555 1_555
C27_2 C16_2 1_555 1_555
C27D C16D 1_555 1_555
C28F C29 1_555 1_555
C28I C20I 1_555 1_555
C28C H12C 1_555 1_555
C28A H12A 1_555 1_555
C28G H12G 1_555 1_555
H12F C28F 1_555 1_555
H12I C28I 1_555 1_555
C29F C28 1_555 1_555
C29I C20I 1_555 1_555
C29C C20C 1_555 1_555
C29A C20A 1_555 1_555
C29G C20G 1_555 1_555
O9F C29F 1_555 1_555
O9I C29I 1_555 1_555
O9C C29C 1_555 1_555
O9A C29A 1_555 1_555
O9G C29G 1_555 1_555
Zn1I O1 1_555 1_555
Zn1I_2 O3I 1_555 1_555
Zn1_2 O3_2 1_555 1_555
Zn1H O6 1_555 1_555
Zn1E O1E 1_555 1_555
Zn1F O8F 1_555 1_555
Zn1E_2 O6I_2 1_555 1_555
Zn1H_2 O6_2 1_555 1_555
Zn1G O3G 1_555 1_555
Zn1D O3D 1_555 1_555
Zn1C O8C 1_555 1_555
Zn1_3 O1_2 1_555 1_555
Zn1I_3 O1_3 1_555 1_555
Zn1A O8A 1_555 1_555
Zn1G_2 O8G 1_555 1_555
Zn2_2 O1_2 1_555 1_555
Zn2_3 O1_3 1_555 1_555
Zn2A O1A 1_555 1_555
Zn2B O4B 1_555 1_555
Zn2D O2G 1_555 1_555
Zn2D_2 O2D 1_555 1_555
Zn3A O1A 1_555 1_555
Zn3B O1B 1_555 1_555
Zn3C O7F 1_555 1_555
Zn3C_2 O7C 1_555 1_555
Zn3_2 O1_2 1_555 1_555
Zn3_3 O1_3 1_555 1_555
Zn3D O7G 1_555 1_555
O2 Zn2 1_555 1_555
O4 Zn2 1_555 1_555
O5 Zn3 1_555 1_555
O7 Zn3 1_555 1_555
O8 Zn1 1_555 1_555
C8 C10 1_555 1_555
C8 C14 1_555 1_555
C21 C22 1_555 1_555
C23 C26 1_555 1_555
C25 C27 1_555 1_555
O2I Zn2_2 1_555 1_555
O2_2 Zn2_3 1_555 1_555
O3I_2 Zn1I 1_555 1_555
O4A Zn2A 1_555 1_555
O5A Zn3A 1_555 1_555
O5B Zn3B 1_555 1_555
O6I Zn1E 1_555 1_555
O6D Zn1I 1_555 1_555
O7A Zn3A 1_555 1_555
O8I Zn1I 1_555 1_555
C7I C15I 1_555 1_555
C8I C14I 1_555 1_555
C8I_2 C10I_2 1_555 1_555
C8I_2 C14I_2 1_555 1_555
C8_2 C10_2 1_555 1_555
C8_2 C14_2 1_555 1_555
C8G C10G 1_555 1_555
C8G C14G 1_555 1_555
C8D C10D 1_555 1_555
C8D C14D 1_555 1_555
C12I_2 C13I_2 1_555 1_555
C15_2 C16_2 1_555 1_555
C15D C16D 1_555 1_555
C18A C19A 1_555 1_555
C18B C19B 1_555 1_555
C20F C29F 1_555 1_555
C21A C22A 1_555 1_555
C21B C22B 1_555 1_555
C23A C26A 1_555 1_555
C23B C26B 1_555 1_555
C24I C25I 1_555 1_555
C25I_2 C27_2 1_555 1_555
C25_2 C27_2 1_555 1_555
C25G C27D 1_555 1_555
C25D C27D 1_555 1_555
C28I C29C 1_555 1_555
C28C C29I 1_555 1_555
C28A C29G 1_555 1_555
C28G C29A 1_555 1_555

#END
