
#######################################################################
#
#                 Cambridge Crystallographic Data Centre
#                                CCDC 
#
#######################################################################
#
# If this CIF has been generated from an entry in the Cambridge 
# Structural Database, then it will include bibliographic, chemical, 
# crystal, experimental, refinement or atomic coordinate data resulting 
# from the CCDC's data processing and validation procedures.
#
#######################################################################

data_FAZQAA
_symmetry_cell_setting           hexagonal
_symmetry_space_group_name_H-M   'P 63/m'
_symmetry_Int_Tables_number      176
_space_group_name_Hall           '-P 6c'
loop_
_symmetry_equiv_pos_site_id
_symmetry_equiv_pos_as_xyz
1 x,y,z
2 -y,x-y,z
3 -x+y,-x,z
4 -x,-y,1/2+z
5 y,-x+y,1/2+z
6 x-y,x,1/2+z
7 -x,-y,-z
8 y,-x+y,-z
9 x-y,x,-z
10 x,y,1/2-z
11 -y,x-y,1/2-z
12 -x+y,-x,1/2-z
_cell_length_a                   41.345(2)
_cell_length_b                   41.345(2)
_cell_length_c                   17.5177(9)
_cell_angle_alpha                90
_cell_angle_beta                 90
_cell_angle_gamma                120
_cell_volume                     25933.1
loop_
_atom_site_label
_atom_site_type_symbol
_atom_site_fract_x
_atom_site_fract_y
_atom_site_fract_z
O1 O 0.36835(10) 0.42662(10) 0.2500
O2 O 0.29263(10) 0.40217(10) 0.3428(2)
O3 O 0.32976(10) 0.38640(9) 0.4059(2)
O4 O 0.32808(16) 0.47507(16) 0.2500
O5 O 0.43963(11) 0.48742(11) 0.3390(2)
O6 O 0.38937(15) 0.51194(15) 0.2500
O7 O 0.01726(10) 0.37328(10) 0.8134(2)
O8 O 0.41604(10) 0.43346(11) 0.3999(2)
C1 C 0.0656(2) 0.3719(2) 0.7500
C2 C 0.30222(14) 0.39200(14) 0.4008(3)
C3 C 0.03089(19) 0.37259(19) 0.7500
C4 C 0.3565(2) 0.5069(2) 0.2500
C5 C 0.47108(14) 0.48441(15) 0.4458(3)
C6 C 0.3517(2) 0.5379(2) 0.2500
C7 C 0.43919(15) 0.46664(16) 0.3896(3)
C8 C 0.22062(17) 0.37289(17) 0.6802(4)
C9 C 0.28006(15) 0.38554(15) 0.4728(3)
C10 C 0.28432(17) 0.36700(17) 0.5310(4)
H1 H 0.3001 0.3566 0.5252
C11 C 0.26477(19) 0.36253(19) 0.6045(4)
H2 H 0.2685 0.3503 0.6466
C12 C 0.2378(3) 0.3728(2) 0.7500
H3 H 0.2608 0.3728 0.7500
C13 C 0.4706(2) 0.4635(2) 0.5029(5)
C14 C 0.24058(18) 0.37687(17) 0.6097(4)
C15 C 0.5001(2) 0.5210(2) 0.4364(5)
C16 C 0.18650(18) 0.36940(17) 0.6810(4)
H4 H 0.1740 0.3665 0.6338
C17 C 0.1328(3) 0.3704(3) 0.7500
C18 C 0.1680(3) 0.3699(2) 0.7500
C19 C 0.25382(17) 0.39541(17) 0.4777(4)
H5 H 0.2485 0.4055 0.4339
C20 C 0.2344(2) 0.39147(18) 0.5433(4)
H6 H 0.2161 0.3989 0.5437
C21 C 0.1136(3) 0.3669(3) 0.8163(6)
C22 C 0.3791(4) 0.5712(4) 0.2500
H7 H 0.4036 0.5745 0.2500
I1 I 0.50858(11) 0.56011(12) 0.3536(2)
I2 I 0.4245(3) 0.4183(3) 0.5627(6)
C23 C 0.3423(3) 0.6024(3) 0.2500
C24 C 0.3378(3) 0.6364(3) 0.2500
C25 C 0.3692(3) 0.6714(3) 0.2500
H8 H 0.3936 0.6745 0.2500
C26 C 0.3158(6) 0.5664(6) 0.2500
H9 H 0.2909 0.5620 0.2500
C27 C 0.3186(6) 0.5362(6) 0.2500
H10 H 0.2964 0.5124 0.2500
C28 C 0.3756(5) 0.6058(5) 0.2500
H11 H 0.3973 0.6299 0.2500
C29 C 0.0833(3) 0.3725(3) 0.8177(7)
Zn1 Zn 0.371820(14) 0.400836(14) 0.34007(3)
Zn2 Zn 0.40753(2) 0.47751(2) 0.2500
Zn3 Zn 0.320104(19) 0.424654(19) 0.2500
O1C O 0.63165(10) 0.57338(10) 0.7500
O1C_2 O 0.63165(10) 0.57338(10) -0.2500
O1A O 0.57338(10) 0.94173(14) 0.2500
O1B O 0.05827(14) 0.63165(10) 0.2500
O2I O 0.29263(10) 0.40217(10) 1.1572(2)
O2D O 0.40217(10) 0.10954(14) -0.1572(2)
O2G O 0.40217(10) 0.10954(14) 0.6572(2)
O2I_2 O 0.29263(10) 0.40217(10) 0.1572(2)
O2_2 O 0.29263(10) 0.40217(10) -0.6572(2)
O2A O 0.59783(10) 0.89046(14) 0.3428(2)
O2J O 0.59783(10) 0.89046(14) 0.1572(2)
O2B O 0.10954(14) 0.70737(10) 0.3428(2)
O2K O 0.10954(14) 0.70737(10) 0.1572(2)
O3I O 0.32976(10) 0.38640(9) 1.0941(2)
O3D O 0.38640(9) 0.05664(13) -0.0941(2)
O3G O 0.38640(9) 0.05664(13) 0.5941(2)
O3I_2 O 0.32976(10) 0.38640(9) 0.0941(2)
O3_2 O 0.32976(10) 0.38640(9) -0.5941(2)
O3F O 0.67024(10) 0.61360(9) 0.5941(2)
O3C O 0.67024(10) 0.61360(9) -0.0941(2)
O3C_2 O 0.67024(10) 0.61360(9) 0.9059(2)
O3F_2 O 0.67024(10) 0.61360(9) -0.4059(2)
O4A O 0.52493(16) 0.85301(23) 0.2500
O4B O 0.14699(23) 0.67192(16) 0.2500
O5F O 0.56037(11) 0.51258(11) 0.6610(2)
O5I O 0.43963(11) 0.48742(11) 0.1610(2)
O5C O 0.56037(11) 0.51258(11) -0.1610(2)
O5C_2 O 0.56037(11) 0.51258(11) 0.8390(2)
O5I_2 O 0.43963(11) 0.48742(11) 1.1610(2)
O5F_2 O 0.56037(11) 0.51258(11) -0.3390(2)
O6A O 0.48806(15) 0.87743(21) 0.2500
O6B O 0.12257(21) 0.61063(15) 0.2500
O6C O 0.61063(15) 0.48806(15) 0.7500
O6C_2 O 0.61063(15) 0.48806(15) -0.2500
O7I O 0.01726(10) 0.37328(10) 0.6866(2)
O7D O 0.37328(10) 0.35602(14) 0.3134(2)
O7G O 0.37328(10) 0.35602(14) 0.1866(2)
O7I_2 O 0.01726(10) 0.37328(10) -0.3134(2)
O7_2 O 0.01726(10) 0.37328(10) -0.1866(2)
O7J O 0.62672(10) 0.64398(14) 0.6866(2)
O7A O 0.62672(10) 0.64398(14) -0.1866(2)
O7A_2 O 0.62672(10) 0.64398(14) 0.8134(2)
O7J_2 O 0.62672(10) 0.64398(14) -0.3134(2)
O8F O 0.58396(10) 0.56654(11) 0.6001(2)
O8I O 0.41604(10) 0.43346(11) 0.1001(2)
O8C O 0.58396(10) 0.56654(11) -0.1001(2)
O8C_2 O 0.58396(10) 0.56654(11) 0.8999(2)
O8I_2 O 0.41604(10) 0.43346(11) 1.1001(2)
O8F_2 O 0.58396(10) 0.56654(11) -0.3999(2)
C1D C 0.3719(2) 0.3063(3) 0.2500
C1_2 C 0.0656(2) 0.3719(2) -0.2500
C2I C 0.30222(14) 0.39200(14) 1.0992(3)
C2D C 0.39200(14) 0.08978(20) -0.0992(3)
C2G C 0.39200(14) 0.08978(20) 0.5992(3)
C2I_2 C 0.30222(14) 0.39200(14) 0.0992(3)
C2_2 C 0.30222(14) 0.39200(14) -0.5992(3)
C3D C 0.37259(19) 0.34170(27) 0.2500
C3_2 C 0.03089(19) 0.37259(19) -0.2500
C4A C 0.4931(2) 0.8496(3) 0.2500
C4B C 0.1504(3) 0.6435(2) 0.2500
C5F C 0.52892(14) 0.51559(15) 0.5542(3)
C5I C 0.47108(14) 0.48441(15) 0.0542(3)
C5C C 0.52892(14) 0.51559(15) -0.0542(3)
C5C_2 C 0.52892(14) 0.51559(15) 0.9458(3)
C5I_2 C 0.47108(14) 0.48441(15) 1.0542(3)
C6A C 0.4621(2) 0.8138(3) 0.2500
C6B C 0.1862(3) 0.6483(2) 0.2500
C7F C 0.56081(15) 0.53336(16) 0.6104(3)
C7I C 0.43919(15) 0.46664(16) 0.1104(3)
C7C C 0.56081(15) 0.53336(16) -0.1104(3)
C7C_2 C 0.56081(15) 0.53336(16) 0.8896(3)
C7I_2 C 0.43919(15) 0.46664(16) 1.1104(3)
C8I C 0.22062(17) 0.37289(17) 0.8198(4)
C8D C 0.37289(17) 0.15227(24) 0.1802(4)
C8G C 0.37289(17) 0.15227(24) 0.3198(4)
C8I_2 C 0.22062(17) 0.37289(17) -0.1802(4)
C8_2 C 0.22062(17) 0.37289(17) -0.3198(4)
C9I C 0.28006(15) 0.38554(15) 1.0272(3)
C9D C 0.38554(15) 0.10548(21) -0.0272(3)
C9G C 0.38554(15) 0.10548(21) 0.5272(3)
C9I_2 C 0.28006(15) 0.38554(15) 0.0272(3)
C9_2 C 0.28006(15) 0.38554(15) -0.5272(3)
C10I C 0.28432(17) 0.36700(17) 0.9690(4)
C10D C 0.36700(17) 0.08268(24) 0.0310(4)
C10G C 0.36700(17) 0.08268(24) 0.4690(4)
C10I_2 C 0.28432(17) 0.36700(17) -0.0310(4)
C10_2 C 0.28432(17) 0.36700(17) -0.4690(4)
H1I H 0.3001 0.3566 0.9748
H1D H 0.3566 0.0565 0.0252
H1G H 0.3566 0.0565 0.4748
H1I_2 H 0.3001 0.3566 -0.0252
H1_2 H 0.3001 0.3566 -0.4748
C11I C 0.26477(19) 0.36253(19) 0.8955(4)
C11D C 0.36253(19) 0.09776(27) 0.1045(4)
C11G C 0.36253(19) 0.09776(27) 0.3955(4)
C11I_2 C 0.26477(19) 0.36253(19) -0.1045(4)
C11_2 C 0.26477(19) 0.36253(19) -0.3955(4)
H2I H 0.2685 0.3503 0.8534
H2D H 0.3503 0.0818 0.1466
H2G H 0.3503 0.0818 0.3534
H2I_2 H 0.2685 0.3503 -0.1466
H2_2 H 0.2685 0.3503 -0.3534
C12D C 0.3728(2) 0.1350(4) 0.2500
C12_2 C 0.2378(3) 0.3728(2) -0.2500
H3D H 0.3728 0.1120 0.2500
H3_2 H 0.2608 0.3728 -0.2500
C13F C 0.5294(2) 0.5365(2) 0.4971(5)
C13I C 0.4706(2) 0.4635(2) -0.0029(5)
C13C C 0.5294(2) 0.5365(2) 0.0029(5)
C13C_2 C 0.5294(2) 0.5365(2) 1.0029(5)
C13I_2 C 0.4706(2) 0.4635(2) 0.9971(5)
C14I C 0.24058(18) 0.37687(17) 0.8903(4)
C14D C 0.37687(17) 0.13629(25) 0.1097(4)
C14G C 0.37687(17) 0.13629(25) 0.3903(4)
C14I_2 C 0.24058(18) 0.37687(17) -0.1097(4)
C14_2 C 0.24058(18) 0.37687(17) -0.3903(4)
C15F C 0.4999(2) 0.4790(2) 0.5636(5)
C15I C 0.5001(2) 0.5210(2) 0.0636(5)
C15C C 0.4999(2) 0.4790(2) -0.0636(5)
C15C_2 C 0.4999(2) 0.4790(2) 0.9364(5)
C15I_2 C 0.5001(2) 0.5210(2) 1.0636(5)
C16I C 0.18650(18) 0.36940(17) 0.8190(4)
C16D C 0.36940(17) 0.18290(25) 0.1810(4)
C16G C 0.36940(17) 0.18290(25) 0.3190(4)
C16I_2 C 0.18650(18) 0.36940(17) -0.1810(4)
C16_2 C 0.18650(18) 0.36940(17) -0.3190(4)
H4I H 0.1740 0.3665 0.8662
H4D H 0.3665 0.1925 0.1338
H4G H 0.3665 0.1925 0.3662
H4I_2 H 0.1740 0.3665 -0.1338
H4_2 H 0.1740 0.3665 -0.3662
C17D C 0.3704(3) 0.2376(4) 0.2500
C17_2 C 0.1328(3) 0.3704(3) -0.2500
C18D C 0.3699(2) 0.2019(4) 0.2500
C18_2 C 0.1680(3) 0.3699(2) -0.2500
C19I C 0.25382(17) 0.39541(17) 1.0223(4)
C19D C 0.39541(17) 0.14159(24) -0.0223(4)
C19G C 0.39541(17) 0.14159(24) 0.5223(4)
C19I_2 C 0.25382(17) 0.39541(17) 0.0223(4)
C19_2 C 0.25382(17) 0.39541(17) -0.5223(4)
H5I H 0.2485 0.4055 1.0661
H5D H 0.4055 0.1570 -0.0661
H5G H 0.4055 0.1570 0.5661
H5I_2 H 0.2485 0.4055 0.0661
H5_2 H 0.2485 0.4055 -0.5661
C20I C 0.2344(2) 0.39147(18) 0.9567(4)
C20D C 0.39147(18) 0.15707(27) 0.0433(4)
C20G C 0.39147(18) 0.15707(27) 0.4567(4)
C20I_2 C 0.2344(2) 0.39147(18) -0.0433(4)
C20_2 C 0.2344(2) 0.39147(18) -0.4567(4)
H6I H 0.2161 0.3989 0.9563
H6D H 0.3989 0.1828 0.0437
H6G H 0.3989 0.1828 0.4563
H6I_2 H 0.2161 0.3989 -0.0437
H6_2 H 0.2161 0.3989 -0.4563
C21I C 0.1136(3) 0.3669(3) 0.6837(6)
C21D C 0.3669(3) 0.2533(4) 0.3163(6)
C21G C 0.3669(3) 0.2533(4) 0.1837(6)
C21I_2 C 0.1136(3) 0.3669(3) -0.3163(6)
C21_2 C 0.1136(3) 0.3669(3) -0.1837(6)
C22A C 0.4288(4) 0.8079(6) 0.2500
C22B C 0.1921(6) 0.6209(4) 0.2500
H7A H 0.4255 0.8291 0.2500
H7B H 0.1709 0.5964 0.2500
I1F I 0.49142(11) 0.43989(12) 0.6464(2)
I1I I 0.50858(11) 0.56011(12) 0.1464(2)
I1C I 0.49142(11) 0.43989(12) -0.1464(2)
I1C_2 I 0.49142(11) 0.43989(12) 0.8536(2)
I1I_2 I 0.50858(11) 0.56011(12) 1.1464(2)
I2F I 0.5755(3) 0.5817(3) 0.4373(6)
I2I I 0.4245(3) 0.4183(3) -0.0627(6)
I2C I 0.5755(3) 0.5817(3) 0.0627(6)
I2C_2 I 0.5755(3) 0.5817(3) 1.0627(6)
I2I_2 I 0.4245(3) 0.4183(3) 0.9373(6)
C23A C 0.3976(3) 0.7399(4) 0.2500
C23B C 0.2601(4) 0.6577(3) 0.2500
C24A C 0.3636(3) 0.7014(4) 0.2500
C24B C 0.2986(4) 0.6622(3) 0.2500
C25A C 0.3286(3) 0.6978(4) 0.2500
C25B C 0.3022(4) 0.6308(3) 0.2500
H8B H 0.2809 0.6064 0.2500
H8A H 0.3255 0.7191 0.2500
C26A C 0.4336(6) 0.7494(8) 0.2500
C26B C 0.2506(8) 0.6842(6) 0.2500
H9A H 0.4380 0.7289 0.2500
H9B H 0.2711 0.7091 0.2500
C27A C 0.4638(6) 0.7824(8) 0.2500
C27B C 0.2176(8) 0.6814(6) 0.2500
H10A H 0.4876 0.7840 0.2500
H10B H 0.2160 0.7036 0.2500
C28A C 0.3942(5) 0.7698(7) 0.2500
C28B C 0.2302(7) 0.6244(5) 0.2500
H11A H 0.3701 0.7674 0.2500
H11B H 0.2326 0.6027 0.2500
C29I C 0.0833(3) 0.3725(3) 0.6823(7)
C29D C 0.3725(3) 0.2892(4) 0.3177(7)
C29G C 0.3725(3) 0.2892(4) 0.1823(7)
C29I_2 C 0.0833(3) 0.3725(3) -0.3177(7)
C29_2 C 0.0833(3) 0.3725(3) -0.1823(7)
Zn1I Zn 0.371820(14) 0.400836(14) 0.15993(3)
Zn1F Zn 0.628180(14) 0.599164(14) 0.65993(3)
Zn1C Zn 0.628180(14) 0.599164(14) -0.15993(3)
Zn1C_2 Zn 0.628180(14) 0.599164(14) 0.84007(3)
Zn1F_2 Zn 0.628180(14) 0.599164(14) -0.34007(3)
Zn1E Zn -0.029016(20) 0.371820(14) 0.84007(3)
Zn1I_2 Zn 0.371820(14) 0.400836(14) 1.15993(3)
Zn1H Zn -0.029016(20) 0.371820(14) 0.65993(3)
Zn1D Zn 0.400836(14) 0.029016(20) -0.15993(3)
Zn1G Zn 0.400836(14) 0.029016(20) 0.65993(3)
Zn1H_2 Zn -0.029016(20) 0.371820(14) -0.34007(3)
Zn1_2 Zn 0.371820(14) 0.400836(14) -0.65993(3)
Zn1E_2 Zn -0.029016(20) 0.371820(14) -0.15993(3)
Zn2C Zn 0.59247(2) 0.52249(2) 0.7500
Zn2C_2 Zn 0.59247(2) 0.52249(2) -0.2500
Zn2A Zn 0.52249(2) 0.93002(3) 0.2500
Zn2B Zn 0.06998(3) 0.59247(2) 0.2500
Zn2_2 Zn 0.40753(2) 0.47751(2) 1.2500
Zn3A Zn 0.575346(19) 0.895450(27) 0.2500
Zn3B Zn 0.104550(27) 0.679896(19) 0.2500
Zn3_2 Zn 0.320104(19) 0.424654(19) 1.2500
Zn3D Zn 0.424654(19) 0.104550(27) -0.2500
Zn3D_2 Zn 0.424654(19) 0.104550(27) 0.7500
Zn3_3 Zn 0.320104(19) 0.424654(19) -0.7500
Zn3C Zn 0.679896(19) 0.575346(19) 0.7500
Zn3C_2 Zn 0.679896(19) 0.575346(19) -0.2500
loop_
_geom_bond_atom_site_label_1
_geom_bond_atom_site_label_2
_geom_bond_site_symmetry_1
_geom_bond_site_symmetry_2
O1 Zn1 1_555 1_555
O2 C2 1_555 1_555
O3 C2 1_555 1_555
O4 C4 1_555 1_555
O5 C7 1_555 1_555
O6 C4 1_555 1_555
O7 C3 1_555 1_555
O8 C7 1_555 1_555
C1 C3 1_555 1_555
C2 C9 1_555 1_555
C3 O7I 1_555 1_555
C4 C6 1_555 1_555
C5 C7 1_555 1_555
C6 C22 1_555 1_555
C8 C12 1_555 1_555
C9 C10 1_555 1_555
C10 H1 1_555 1_555
C11 C10 1_555 1_555
H2 C11 1_555 1_555
C12 H3 1_555 1_555
C13 C5 1_555 1_555
C14 C8 1_555 1_555
C15 C5 1_555 1_555
C16 C8 1_555 1_555
H4 C16 1_555 1_555
C17 C18 1_555 1_555
C18 C16 1_555 1_555
C19 C9 1_555 1_555
H5 C19 1_555 1_555
C20 C14 1_555 1_555
H6 C20 1_555 1_555
C21 C17 1_555 1_555
C22 H7 1_555 1_555
I1 C15 1_555 1_555
I2 C13 1_555 1_555
C23 C24 1_555 1_555
C24 C25 1_555 1_555
C25 H8 1_555 1_555
C26 C23 1_555 1_555
H9 C26 1_555 1_555
C27 C6 1_555 1_555
H10 C27 1_555 1_555
C28 C22 1_555 1_555
H11 C28 1_555 1_555
C29 C1 1_555 1_555
Zn1 O3 1_555 1_555
Zn2 O1 1_555 1_555
Zn3 O1 1_555 1_555
O1C Zn1F 1_555 1_555
O1C_2 Zn1C 1_555 1_555
O1A Zn2A 1_555 1_555
O1B Zn2B 1_555 1_555
O2I C2I 1_555 1_555
O2D C2D 1_555 1_555
O2G C2G 1_555 1_555
O2I_2 Zn3 1_555 1_555
O2_2 C2_2 1_555 1_555
O2A Zn3A 1_555 1_555
O2J Zn3A 1_555 1_555
O2B Zn3B 1_555 1_555
O2K Zn3B 1_555 1_555
O3I C2I 1_555 1_555
O3D C2D 1_555 1_555
O3G C2G 1_555 1_555
O3I_2 C2I_2 1_555 1_555
O3_2 C2_2 1_555 1_555
O3F Zn1F 1_555 1_555
O3C Zn1C 1_555 1_555
O3C_2 Zn1C_2 1_555 1_555
O3F_2 Zn1F_2 1_555 1_555
O4A C4A 1_555 1_555
O4B C4B 1_555 1_555
O5F C7F 1_555 1_555
O5I Zn2 1_555 1_555
O5C C7C 1_555 1_555
O5C_2 C7C_2 1_555 1_555
O5I_2 C7I_2 1_555 1_555
O5F_2 Zn2C_2 1_555 1_555
O6A C4A 1_555 1_555
O6B C4B 1_555 1_555
O6C Zn2C 1_555 1_555
O6C_2 Zn2C_2 1_555 1_555
O7I Zn1H 1_555 1_555
O7D Zn1 1_555 1_555
O7G C3D 1_555 1_555
O7I_2 C3_2 1_555 1_555
O7_2 C3_2 1_555 1_555
O7J Zn1F 1_555 1_555
O7A Zn1C 1_555 1_555
O7A_2 Zn1C_2 1_555 1_555
O7J_2 Zn1F_2 1_555 1_555
O8F C7F 1_555 1_555
O8I C7I 1_555 1_555
O8C C7C 1_555 1_555
O8C_2 C7C_2 1_555 1_555
O8I_2 C7I_2 1_555 1_555
O8F_2 Zn1F_2 1_555 1_555
C1D C3D 1_555 1_555
C1_2 C3_2 1_555 1_555
C2I C9I 1_555 1_555
C2D C9D 1_555 1_555
C2G C9G 1_555 1_555
C2I_2 O2I_2 1_555 1_555
C2_2 C9_2 1_555 1_555
C3D O7D 1_555 1_555
C4A C6A 1_555 1_555
C4B C6B 1_555 1_555
C5F C7F 1_555 1_555
C5I C7I 1_555 1_555
C5C C7C 1_555 1_555
C5C_2 C7C_2 1_555 1_555
C5I_2 C7I_2 1_555 1_555
C6A C22A 1_555 1_555
C6B C22B 1_555 1_555
C7I O5I 1_555 1_555
C8I C12 1_555 1_555
C8D C12D 1_555 1_555
C8G C12D 1_555 1_555
C8I_2 C12_2 1_555 1_555
C8_2 C12_2 1_555 1_555
C9I C10I 1_555 1_555
C9D C10D 1_555 1_555
C9G C10G 1_555 1_555
C9I_2 C2I_2 1_555 1_555
C9_2 C10_2 1_555 1_555
C10I H1I 1_555 1_555
C10D H1D 1_555 1_555
C10G H1G 1_555 1_555
C10I_2 C9I_2 1_555 1_555
C10_2 H1_2 1_555 1_555
H1I_2 C10I_2 1_555 1_555
C11I C10I 1_555 1_555
C11D C10D 1_555 1_555
C11G C10G 1_555 1_555
C11I_2 C10I_2 1_555 1_555
C11_2 C10_2 1_555 1_555
H2I C11I 1_555 1_555
H2D C11D 1_555 1_555
H2G C11G 1_555 1_555
H2I_2 C11I_2 1_555 1_555
H2_2 C11_2 1_555 1_555
C12D H3D 1_555 1_555
C12_2 H3_2 1_555 1_555
C13F C15 1_555 1_555
C13I C5I 1_555 1_555
C13C C5C 1_555 1_555
C13C_2 C5C_2 1_555 1_555
C13I_2 C5I_2 1_555 1_555
C14I C8I 1_555 1_555
C14D C8D 1_555 1_555
C14G C8G 1_555 1_555
C14I_2 C8I_2 1_555 1_555
C14_2 C8_2 1_555 1_555
C15F C13 1_555 1_555
C15I C5I 1_555 1_555
C15C C5C 1_555 1_555
C15C_2 C5C_2 1_555 1_555
C15I_2 C5I_2 1_555 1_555
C16I C18 1_555 1_555
C16D C8D 1_555 1_555
C16G C8G 1_555 1_555
C16I_2 C8I_2 1_555 1_555
C16_2 C8_2 1_555 1_555
H4I C16I 1_555 1_555
H4D C16D 1_555 1_555
H4G C16G 1_555 1_555
H4I_2 C16I_2 1_555 1_555
H4_2 C16_2 1_555 1_555
C17D C18D 1_555 1_555
C17_2 C18_2 1_555 1_555
C18D C16D 1_555 1_555
C18_2 C16I_2 1_555 1_555
C19I C9I 1_555 1_555
C19D C9D 1_555 1_555
C19G C9G 1_555 1_555
C19I_2 C9I_2 1_555 1_555
C19_2 C9_2 1_555 1_555
H5I C19I 1_555 1_555
H5D C19D 1_555 1_555
H5G C19G 1_555 1_555
H5I_2 C19I_2 1_555 1_555
H5_2 C19_2 1_555 1_555
C20I C14I 1_555 1_555
C20D C14D 1_555 1_555
C20G C14G 1_555 1_555
C20I_2 C14I_2 1_555 1_555
C20_2 C14_2 1_555 1_555
H6I C20I 1_555 1_555
H6D C20D 1_555 1_555
H6G C20G 1_555 1_555
H6I_2 C20I_2 1_555 1_555
H6_2 C20_2 1_555 1_555
C21I C17 1_555 1_555
C21D C17D 1_555 1_555
C21G C17D 1_555 1_555
C21I_2 C17_2 1_555 1_555
C21_2 C17_2 1_555 1_555
C22A H7A 1_555 1_555
C22B H7B 1_555 1_555
I1F C15F 1_555 1_555
I1I C15I 1_555 1_555
I1C C15C 1_555 1_555
I1C_2 C15C_2 1_555 1_555
I1I_2 C15I_2 1_555 1_555
I2F C13F 1_555 1_555
I2I C13I 1_555 1_555
I2C C13C 1_555 1_555
I2C_2 C13C_2 1_555 1_555
I2I_2 C13I_2 1_555 1_555
C23A C24A 1_555 1_555
C23B C24B 1_555 1_555
C24A C25 1_555 1_555
C24B C25A 1_555 1_555
C25A C24A 1_555 1_555
C25B C24 1_555 1_555
H8B C25B 1_555 1_555
H8A C25A 1_555 1_555
C26A C23A 1_555 1_555
C26B C23B 1_555 1_555
H9A C26A 1_555 1_555
H9B C26B 1_555 1_555
C27A C6A 1_555 1_555
C27B C6B 1_555 1_555
H10A C27A 1_555 1_555
H10B C27B 1_555 1_555
C28A C22A 1_555 1_555
C28B C22B 1_555 1_555
H11A C28A 1_555 1_555
H11B C28B 1_555 1_555
C29I C1 1_555 1_555
C29D C1D 1_555 1_555
C29G C1D 1_555 1_555
C29I_2 C1_2 1_555 1_555
C29_2 C1_2 1_555 1_555
Zn1I O1 1_555 1_555
Zn1F O8F 1_555 1_555
Zn1C O8C 1_555 1_555
Zn1C_2 O1C 1_555 1_555
Zn1F_2 O1C_2 1_555 1_555
Zn1E O7 1_555 1_555
Zn1I_2 O3I 1_555 1_555
Zn1D O3D 1_555 1_555
Zn1G O3G 1_555 1_555
Zn1H_2 O7I_2 1_555 1_555
Zn1_2 O3_2 1_555 1_555
Zn1E_2 O7_2 1_555 1_555
Zn2C O1C 1_555 1_555
Zn2C_2 O1C_2 1_555 1_555
Zn2A O6A 1_555 1_555
Zn2B O6B 1_555 1_555
Zn2_2 O5I_2 1_555 1_555
Zn3A O1A 1_555 1_555
Zn3B O1B 1_555 1_555
Zn3_2 O2I 1_555 1_555
Zn3D O2D 1_555 1_555
Zn3D_2 O2G 1_555 1_555
Zn3_3 O2_2 1_555 1_555
Zn3C O1C 1_555 1_555
Zn3C_2 O1C_2 1_555 1_555
O2 Zn3 1_555 1_555
O4 Zn3 1_555 1_555
O5 Zn2 1_555 1_555
O6 Zn2 1_555 1_555
O8 Zn1 1_555 1_555
C11 C14 1_555 1_555
C19 C20 1_555 1_555
C21 C29 1_555 1_555
C23 C28 1_555 1_555
C26 C27 1_555 1_555
O3I_2 Zn1I 1_555 1_555
O4A Zn3A 1_555 1_555
O4B Zn3B 1_555 1_555
O5F Zn2C 1_555 1_555
O5C Zn2C_2 1_555 1_555
O5C_2 Zn2C 1_555 1_555
O7G Zn1I 1_555 1_555
O8I Zn1I 1_555 1_555
O8C_2 Zn1C_2 1_555 1_555
O8I_2 Zn1I_2 1_555 1_555
C5F C13F 1_555 1_555
C5F C15F 1_555 1_555
C8I C16I 1_555 1_555
C11I C14I 1_555 1_555
C11D C14D 1_555 1_555
C11G C14G 1_555 1_555
C11I_2 C14I_2 1_555 1_555
C11_2 C14_2 1_555 1_555
C13I C15C 1_555 1_555
C13C C15I 1_555 1_555
C13C_2 C15I_2 1_555 1_555
C13I_2 C15C_2 1_555 1_555
C16G C18D 1_555 1_555
C16_2 C18_2 1_555 1_555
C19I C20I 1_555 1_555
C19D C20D 1_555 1_555
C19G C20G 1_555 1_555
C19I_2 C20I_2 1_555 1_555
C19_2 C20_2 1_555 1_555
C21I C29I 1_555 1_555
C21D C29D 1_555 1_555
C21G C29G 1_555 1_555
C21I_2 C29I_2 1_555 1_555
C21_2 C29_2 1_555 1_555
C23A C28A 1_555 1_555
C23B C28B 1_555 1_555
C24B C25B 1_555 1_555
C26A C27A 1_555 1_555
C26B C27B 1_555 1_555

#END
