
#######################################################################
#
#                 Cambridge Crystallographic Data Centre
#                                CCDC 
#
#######################################################################
#
# If this CIF has been generated from an entry in the Cambridge 
# Structural Database, then it will include bibliographic, chemical, 
# crystal, experimental, refinement or atomic coordinate data resulting 
# from the CCDC's data processing and validation procedures.
#
#######################################################################

data_FECKAA
_symmetry_cell_setting           rhombohedral
_symmetry_space_group_name_H-M   'R 3'
_symmetry_Int_Tables_number      146
_space_group_name_Hall           'R 3'
loop_
_symmetry_equiv_pos_site_id
_symmetry_equiv_pos_as_xyz
1 x,y,z
2 -y,x-y,z
3 -x+y,-x,z
4 2/3+x,1/3+y,1/3+z
5 2/3-y,1/3+x-y,1/3+z
6 2/3-x+y,1/3-x,1/3+z
7 1/3+x,2/3+y,2/3+z
8 1/3-y,2/3+x-y,2/3+z
9 1/3-x+y,2/3-x,2/3+z
_cell_length_a                   36.6488(10)
_cell_length_b                   36.6488(10)
_cell_length_c                   10.9175(5)
_cell_angle_alpha                90
_cell_angle_beta                 90
_cell_angle_gamma                120.00
_cell_volume                     12699.1
loop_
_atom_site_label
_atom_site_type_symbol
_atom_site_fract_x
_atom_site_fract_y
_atom_site_fract_z
O8 O 0.294(3) 0.589(3) -0.151(10)
O9 O 0.289(5) 0.644(4) -0.240(14)
O10 O -0.064(2) 0.571(2) -0.544(7)
O11 O 0.150(7) 0.633(7) -0.63(2)
O12 O 0.145(6) 0.575(6) -0.50(2)
Zn1 Zn 0.27580(12) 0.63782(12) -0.6383(9)
Zn2 Zn 0.3333 0.6667 -0.8726(10)
O1 O 0.3333 0.6667 -0.698(3)
O2 O 0.2381(8) 0.6189(8) -0.779(3)
O3 O 0.2793(12) 0.6399(11) -0.946(4)
C1 C 0.170(3) 0.585(3) -1.170(4)
H1 H 0.1710 0.5855 -1.2566
C2 C 0.132(2) 0.568(3) -1.108(6)
C3 C 0.1311(13) 0.5675(17) -0.981(6)
H2 H 0.1049 0.5557 -0.9391
C4 C 0.1685(17) 0.5844(16) -0.915(4)
H3 H 0.1678 0.5841 -0.8280
C5 C 0.2068(13) 0.6016(17) -0.976(6)
C6 C 0.208(2) 0.602(3) -1.104(6)
H4 H 0.2339 0.6138 -1.1454
C7 C 0.2456(14) 0.6223(13) -0.882(5)
C8 C -0.227(2) 0.3870(19) -1.868(8)
C9 C 0.017(2) 0.508(3) -1.347(9)
C10 C 0.035(3) 0.549(3) -1.303(10)
C11 C 0.071(3) 0.565(2) -1.228(10)
H5 H 0.0831 0.5934 -1.1977
C12 C 0.088(3) 0.540(2) -1.196(10)
C13 C 0.070(2) 0.499(2) -1.240(7)
C14 C 0.0344(17) 0.483(2) -1.315(6)
C15 C 0.016(2) 0.442(2) -1.359(8)
H6 H -0.0079 0.4314 -1.4104
C16 C 0.033(3) 0.417(2) -1.328(9)
H7 H 0.0210 0.3892 -1.3576
C17 C 0.069(3) 0.433(3) -1.252(10)
C18 C 0.087(3) 0.474(3) -1.209(10)
H8 H 0.1110 0.4852 -1.1573
C19 C -0.0198(18) 0.488(3) -1.413(6)
C20 C -0.0148(17) 0.492(3) -1.540(7)
C21 C -0.050(2) 0.475(3) -1.616(5)
H9 H -0.0466 0.4776 -1.7019
C22 C -0.0902(18) 0.454(3) -1.565(6)
C23 C -0.0952(17) 0.4503(18) -1.438(6)
C24 C -0.060(2) 0.467(2) -1.363(5)
C25 C -0.065(3) 0.463(3) -1.236(5)
H10 H -0.0409 0.4749 -1.1845
C26 C -0.105(3) 0.443(4) -1.186(7)
H11 H -0.1086 0.4400 -1.0993
C27 C -0.140(3) 0.426(3) -1.261(9)
C28 C -0.1353(19) 0.430(3) -1.388(8)
H12 H -0.1594 0.4180 -1.4396
C29 C -0.1449(18) 0.4611(16) -1.681(6)
H13 H -0.1335 0.4892 -1.6524
C30 C -0.1266(18) 0.437(2) -1.646(6)
C31 C -0.1432(19) 0.396(2) -1.687(6)
H14 H -0.1307 0.3801 -1.6634
C32 C -0.1782(19) 0.3788(15) -1.764(6)
H15 H -0.1896 0.3507 -1.7927
C33 C -0.1965(17) 0.4025(15) -1.799(6)
C34 C -0.1798(18) 0.4437(15) -1.758(5)
H16 H -0.1923 0.4598 -1.7817
O4 O 0.2650(16) 0.5817(14) -0.566(5)
O5 O 0.3172(16) 0.5814(13) -0.566(5)
O6 O 0.020(2) 0.501(5) -1.597(9)
Cl1 Cl 0.094(2) 0.396(2) -1.208(6)
Cl2 Cl -0.195(2) 0.405(2) -1.178(7)
O7 O 0.028(4) 0.568(3) -1.369(10)
C35 C 0.037(4) 0.522(5) -1.687(11)
H17 H 0.0663 0.5284 -1.6968
H18 H 0.0349 0.5476 -1.6898
C36 C 0.061(6) 0.535(12) -1.968(13)
H19 H 0.0794 0.5520 -2.0305
C37 C 0.066(6) 0.505(11) -1.909(18)
H20 H 0.0889 0.5007 -1.9315
C38 C 0.039(6) 0.480(8) -1.82(2)
H21 H 0.0424 0.4595 -1.7764
C39 C 0.005(4) 0.486(6) -1.783(10)
C40 C 0.000(6) 0.517(10) -1.842(14)
H22 H -0.0230 0.5209 -1.8193
C41 C 0.027(7) 0.541(12) -1.934(19)
H23 H 0.0234 0.5621 -1.9744
C42 C 0.011(10) 0.572(4) -1.460(19)
H24 H -0.0149 0.5448 -1.4771
H25 H 0.0302 0.5780 -1.5303
C43 C 0.005(7) 0.615(7) -1.58(2)
H26 H -0.0178 0.5998 -1.6387
C44 C -0.003(6) 0.609(8) -1.46(2)
C45 C 0.030(9) 0.632(5) -1.376(18)
H27 H 0.0253 0.6277 -1.2899
C46 C 0.070(8) 0.660(5) -1.42(2)
H28 H 0.0928 0.6749 -1.3632
C47 C 0.078(7) 0.665(7) -1.54(2)
H29 H 0.1051 0.6845 -1.5742
C48 C 0.045(8) 0.643(6) -1.626(18)
H30 H 0.0497 0.6470 -1.7120
Zn1B Zn 0.36202(17) 0.72420(12) -0.6383(9)
Zn1A Zn 0.36218(12) 0.63798(17) -0.6383(9)
Zn1E Zn 0.02869(17) 0.05753(12) 0.6950(9)
Zn1C Zn 0.94247(12) 0.97115(12) 0.6950(9)
Zn1G Zn -0.30449(12) 0.30465(17) -1.9716(9)
Zn1H Zn -0.30465(17) 0.39087(12) -1.9716(9)
Zn2C Zn -0.0000 0.0000 0.4607(10)
Zn2C_2 Zn 1.0000 1.0000 0.4607(10)
O2B O 0.3808(11) 0.7619(8) -0.779(3)
O2A O 0.3811(8) 0.6192(11) -0.779(3)
O2E O 0.0475(11) 0.0952(8) 0.554(3)
O2C O 0.9048(8) 0.9522(8) 0.554(3)
O3B O 0.3606(16) 0.7207(12) -0.946(4)
O3A O 0.3601(11) 0.6394(16) -0.946(4)
O3E O 0.0273(16) 0.0540(12) 0.387(4)
O3C O 0.9460(12) 0.9732(11) 0.387(4)
C1E C 0.082(4) 0.163(3) 0.163(4)
C1C C 0.837(3) 0.918(3) 0.163(4)
H1E H 0.0812 0.1623 0.0767
H1C H 0.8377 0.9188 0.0767
C2E C 0.103(4) 0.201(2) 0.225(6)
C2C C 0.799(2) 0.901(3) 0.225(6)
C3E C 0.1031(21) 0.2022(13) 0.352(6)
C3C C 0.7978(13) 0.9008(17) 0.352(6)
H2E H 0.1175 0.2284 0.3942
H2C H 0.7716 0.8890 0.3942
C4E C 0.0826(23) 0.1648(17) 0.418(4)
C4C C 0.8352(17) 0.9177(16) 0.418(4)
H3E H 0.0830 0.1655 0.5053
H3C H 0.8345 0.9174 0.5053
C5E C 0.0615(21) 0.1265(13) 0.357(6)
C5C C 0.8735(13) 0.9349(17) 0.357(6)
C6E C 0.061(4) 0.125(2) 0.229(6)
C6C C 0.875(2) 0.935(3) 0.229(6)
H4E H 0.0466 0.0994 0.1879
H4C H 0.9006 0.9471 0.1879
C7E C 0.0434(19) 0.0877(14) 0.451(5)
C7C C 0.9123(14) 0.9556(13) 0.451(5)
C8E C 0.2807(28) 0.560(2) -0.535(8)
C8C C 0.440(2) 0.7203(19) -0.535(8)
C9E C 0.158(4) 0.316(2) -0.014(9)
C9C C 0.684(2) 0.841(3) -0.014(9)
C10E C 0.181(4) 0.298(3) 0.030(10)
C10C C 0.702(3) 0.882(3) 0.030(10)
C11E C 0.161(4) 0.262(3) 0.105(10)
C11C C 0.738(3) 0.898(2) 0.105(10)
H5E H 0.1770 0.2502 0.1356
H5C H 0.7498 0.9267 0.1356
C12E C 0.119(4) 0.245(3) 0.137(10)
C12C C 0.755(3) 0.873(2) 0.137(10)
C13E C 0.096(3) 0.263(2) 0.093(7)
C13C C 0.737(2) 0.832(2) 0.093(7)
C14E C 0.1153(26) 0.2989(17) 0.018(6)
C14C C 0.7011(17) 0.816(2) 0.018(6)
C15E C 0.093(3) 0.317(2) -0.026(8)
C15C C 0.683(2) 0.775(2) -0.026(8)
H6E H 0.1060 0.3412 -0.0771
H6C H 0.6588 0.7647 -0.0771
C16E C 0.051(4) 0.300(3) 0.005(9)
C16C C 0.700(3) 0.750(2) 0.005(9)
H7E H 0.0349 0.3123 -0.0243
H7C H 0.6877 0.7225 -0.0243
C17E C 0.031(4) 0.264(3) 0.081(10)
C17C C 0.736(3) 0.766(3) 0.081(10)
C18E C 0.054(4) 0.246(3) 0.124(10)
C18C C 0.754(3) 0.807(3) 0.124(10)
H8E H 0.0409 0.2223 0.1760
H8C H 0.7777 0.8185 0.1760
C19E C 0.1745(35) 0.3531(18) -0.080(6)
C19C C 0.6469(18) 0.821(3) -0.080(6)
C20E C 0.1735(34) 0.3481(17) -0.207(7)
C20C C 0.6519(17) 0.825(3) -0.207(7)
C21E C 0.192(4) 0.383(2) -0.283(5)
C21C C 0.617(2) 0.808(3) -0.283(5)
H9E H 0.1909 0.3799 -0.3686
H9C H 0.6201 0.8109 -0.3686
C22E C 0.2109(35) 0.4235(18) -0.232(6)
C22C C 0.5765(18) 0.787(3) -0.232(6)
C23E C 0.2122(25) 0.4285(17) -0.105(6)
C23C C 0.5715(17) 0.7836(18) -0.105(6)
C24E C 0.194(3) 0.393(2) -0.030(5)
C24C C 0.607(2) 0.800(2) -0.030(5)
C25E C 0.195(4) 0.398(3) 0.097(5)
C25C C 0.602(3) 0.796(3) 0.097(5)
H10E H 0.1825 0.3742 0.1488
H10C H 0.6258 0.8082 0.1488
C26E C 0.215(5) 0.438(3) 0.147(7)
C26C C 0.562(3) 0.776(4) 0.147(7)
H11E H 0.2153 0.4419 0.2340
H11C H 0.5581 0.7733 0.2340
C27E C 0.233(4) 0.473(3) 0.072(9)
C27C C 0.527(3) 0.759(3) 0.072(9)
C28E C 0.2320(36) 0.4686(19) -0.055(8)
C28C C 0.5314(19) 0.763(3) -0.055(8)
H12E H 0.2441 0.4927 -0.1063
H12C H 0.5073 0.7513 -0.1063
C29E C 0.2727(24) 0.4782(18) -0.348(6)
C29C C 0.5218(18) 0.7944(16) -0.348(6)
H13E H 0.2894 0.4668 -0.3191
H13C H 0.5332 0.8225 -0.3191
C30E C 0.2303(27) 0.4599(18) -0.313(6)
C30C C 0.5401(18) 0.770(2) -0.313(6)
C31E C 0.2059(28) 0.4765(19) -0.354(6)
C31C C 0.5235(19) 0.729(2) -0.354(6)
H14E H 0.1775 0.4640 -0.3301
H14C H 0.5360 0.7134 -0.3301
C32E C 0.2237(24) 0.5115(19) -0.431(6)
C32C C 0.4885(19) 0.7121(15) -0.431(6)
H15E H 0.2070 0.5229 -0.4594
H15C H 0.4771 0.6840 -0.4594
C33E C 0.2657(23) 0.5298(17) -0.466(6)
C33C C 0.4702(17) 0.7358(15) -0.466(6)
C34E C 0.2902(23) 0.5131(18) -0.425(5)
C34C C 0.4869(18) 0.7770(15) -0.425(5)
H16E H 0.3188 0.5256 -0.4484
H16C H 0.4744 0.7931 -0.4484
O4A O 0.4183(14) 0.6833(21) -0.566(5)
O4B O 0.3167(21) 0.7350(16) -0.566(5)
O4G O -0.2484(14) 0.3500(21) -1.899(5)
O5B O 0.2642(21) 0.6828(16) -0.566(5)
O5A O 0.4186(13) 0.7358(21) -0.566(5)
O5G O -0.2481(13) 0.4025(21) -1.899(5)
O6E O 0.148(5) 0.313(2) -0.264(9)
O6C O 0.687(2) 0.834(5) -0.264(9)
Cl1E Cl -0.031(3) 0.239(2) 0.125(6)
Cl1C Cl 0.761(2) 0.729(2) 0.125(6)
Cl2E Cl 0.267(3) 0.528(2) 0.155(7)
Cl2C Cl 0.472(2) 0.738(2) 0.155(7)
O7E O 0.207(5) 0.305(4) -0.036(10)
O7C O 0.695(4) 0.901(3) -0.036(10)
C35E C 0.152(6) 0.296(4) -0.354(11)
C35C C 0.704(4) 0.855(5) -0.354(11)
H17E H 0.1288 0.2670 -0.3635
H17C H 0.7330 0.8617 -0.3635
H18E H 0.1794 0.2984 -0.3565
H18C H 0.7016 0.8809 -0.3565
C36E C 0.141(13) 0.272(6) -0.635(13)
C36C C 0.728(6) 0.868(12) -0.635(13)
H19E H 0.1393 0.2539 -0.6972
H19C H 0.7461 0.8853 -0.6972
C37E C 0.106(13) 0.267(6) -0.576(18)
C37C C 0.733(6) 0.838(11) -0.576(18)
H20E H 0.0785 0.2444 -0.5982
H20C H 0.7556 0.8340 -0.5982
C38E C 0.108(10) 0.294(6) -0.49(2)
C38C C 0.706(6) 0.813(8) -0.49(2)
H21E H 0.0838 0.2909 -0.4431
H21C H 0.7091 0.7928 -0.4431
C39E C 0.148(7) 0.328(4) -0.450(10)
C39C C 0.672(4) 0.819(6) -0.450(10)
C40E C 0.184(12) 0.333(6) -0.509(14)
C40C C 0.667(6) 0.850(10) -0.509(14)
H22E H 0.2106 0.3563 -0.4860
H22C H 0.6437 0.8542 -0.4860
C41E C 0.181(14) 0.306(7) -0.601(19)
C41C C 0.694(7) 0.874(12) -0.601(19)
H23E H 0.2054 0.3099 -0.6411
H23C H 0.6901 0.8954 -0.6411
C42E C 0.228(11) 0.322(10) -0.127(19)
C42C C 0.678(10) 0.905(4) -0.127(19)
H24E H 0.2264 0.3482 -0.1438
H24C H 0.6518 0.8781 -0.1438
H25E H 0.2145 0.3031 -0.1970
H25C H 0.6969 0.9113 -0.1970
C43E C 0.277(10) 0.328(7) -0.25(2)
C43C C 0.672(7) 0.948(7) -0.25(2)
H26E H 0.2843 0.3511 -0.3054
H26C H 0.6489 0.9331 -0.3054
C44E C 0.279(10) 0.336(6) -0.13(2)
C44C C 0.664(6) 0.942(8) -0.13(2)
C45E C 0.269(10) 0.303(9) -0.043(18)
C45C C 0.697(9) 0.965(5) -0.043(18)
H27E H 0.2691 0.3080 0.0434
H27C H 0.6920 0.9610 0.0434
C46E C 0.257(9) 0.263(8) -0.09(2)
C46C C 0.737(8) 0.993(5) -0.09(2)
H28E H 0.2488 0.2405 -0.0299
H28C H 0.7595 1.0082 -0.0299
C47E C 0.254(10) 0.255(7) -0.21(2)
C47C C 0.745(7) 0.998(7) -0.21(2)
H29E H 0.2461 0.2282 -0.2409
H29C H 0.7718 1.0178 -0.2409
C48E C 0.265(10) 0.288(8) -0.293(18)
C48C C 0.712(8) 0.976(6) -0.293(18)
H30E H 0.2640 0.2836 -0.3787
H30C H 0.7164 0.9803 -0.3787
loop_
_geom_bond_atom_site_label_1
_geom_bond_atom_site_label_2
_geom_bond_site_symmetry_1
_geom_bond_site_symmetry_2
Zn1 O1 1_555 1_555
Zn2 O1 1_555 1_555
O1 Zn1B 1_555 1_555
O2 Zn1 1_555 1_555
O3 Zn2 1_555 1_555
C1 H1 1_555 1_555
C2 C1 1_555 1_555
C3 C2 1_555 1_555
H2 C3 1_555 1_555
C4 C3 1_555 1_555
H3 C4 1_555 1_555
C5 C4 1_555 1_555
C6 C1 1_555 1_555
H4 C6 1_555 1_555
C7 O2 1_555 1_555
C8 C33 1_555 1_555
C9 C10 1_555 1_555
C10 C11 1_555 1_555
C11 H5 1_555 1_555
C12 C2 1_555 1_555
C13 C12 1_555 1_555
C14 C9 1_555 1_555
C15 C14 1_555 1_555
H6 C15 1_555 1_555
C16 C15 1_555 1_555
H7 C16 1_555 1_555
C17 C16 1_555 1_555
C18 C13 1_555 1_555
H8 C18 1_555 1_555
C19 C9 1_555 1_555
C20 C19 1_555 1_555
C21 C20 1_555 1_555
H9 C21 1_555 1_555
C22 C21 1_555 1_555
C23 C22 1_555 1_555
C24 C19 1_555 1_555
C25 C24 1_555 1_555
H10 C25 1_555 1_555
C26 C25 1_555 1_555
H11 C26 1_555 1_555
C27 C26 1_555 1_555
C28 C23 1_555 1_555
H12 C28 1_555 1_555
C29 H13 1_555 1_555
C30 C22 1_555 1_555
C31 C30 1_555 1_555
H14 C31 1_555 1_555
C32 C31 1_555 1_555
H15 C32 1_555 1_555
C33 C32 1_555 1_555
C34 C29 1_555 1_555
H16 C34 1_555 1_555
O4 Zn1 1_555 1_555
O5 Zn1A 1_555 1_555
O6 C20 1_555 1_555
Cl1 C17 1_555 1_555
Cl2 C27 1_555 1_555
O7 C10 1_555 1_555
C35 O6 1_555 1_555
H17 C35 1_555 1_555
H18 C35 1_555 1_555
C36 H19 1_555 1_555
C37 C36 1_555 1_555
H20 C37 1_555 1_555
C38 C37 1_555 1_555
H21 C38 1_555 1_555
C39 C35 1_555 1_555
C40 C39 1_555 1_555
H22 C40 1_555 1_555
C41 C36 1_555 1_555
H23 C41 1_555 1_555
C42 O7 1_555 1_555
H24 C42 1_555 1_555
H25 C42 1_555 1_555
C43 H26 1_555 1_555
C44 C42 1_555 1_555
C45 C44 1_555 1_555
H27 C45 1_555 1_555
C46 C45 1_555 1_555
H28 C46 1_555 1_555
C47 C46 1_555 1_555
H29 C47 1_555 1_555
C48 C43 1_555 1_555
H30 C48 1_555 1_555
Zn1B O2B 1_555 1_555
Zn1A O1 1_555 1_555
Zn1E O2E 1_555 1_555
Zn1C O2C 1_555 1_555
Zn1G O4G 1_555 1_555
Zn1H O5G 1_555 1_555
Zn2C O3E 1_555 1_555
Zn2C_2 O3C 1_555 1_555
O2A Zn1A 1_555 1_555
O2E C7E 1_555 1_555
O2C C7C 1_555 1_555
O3B Zn2 1_555 1_555
O3A Zn2 1_555 1_555
O3E C7E 1_555 1_555
O3C C7C 1_555 1_555
C1E H1E 1_555 1_555
C1C H1C 1_555 1_555
C2E C1E 1_555 1_555
C2C C1C 1_555 1_555
C3E C2E 1_555 1_555
C3C C2C 1_555 1_555
H2E C3E 1_555 1_555
H2C C3C 1_555 1_555
C4E C3E 1_555 1_555
C4C C3C 1_555 1_555
H3E C4E 1_555 1_555
H3C C4C 1_555 1_555
C5E C4E 1_555 1_555
C5C C4C 1_555 1_555
C6E C1E 1_555 1_555
C6C C1C 1_555 1_555
H4E C6E 1_555 1_555
H4C C6C 1_555 1_555
C7E C5E 1_555 1_555
C7C C5C 1_555 1_555
C8E O4 1_555 1_555
C8C C33C 1_555 1_555
C9E C10E 1_555 1_555
C9C C10C 1_555 1_555
C10E C11E 1_555 1_555
C10C C11C 1_555 1_555
C11E H5E 1_555 1_555
C11C H5C 1_555 1_555
C12E C2E 1_555 1_555
C12C C2C 1_555 1_555
C13E C12E 1_555 1_555
C13C C12C 1_555 1_555
C14E C9E 1_555 1_555
C14C C9C 1_555 1_555
C15E C14E 1_555 1_555
C15C C14C 1_555 1_555
H6E C15E 1_555 1_555
H6C C15C 1_555 1_555
C16E C15E 1_555 1_555
C16C C15C 1_555 1_555
H7E C16E 1_555 1_555
H7C C16C 1_555 1_555
C17E C16E 1_555 1_555
C17C C16C 1_555 1_555
C18E C13E 1_555 1_555
C18C C13C 1_555 1_555
H8E C18E 1_555 1_555
H8C C18C 1_555 1_555
C19E C9E 1_555 1_555
C19C C9C 1_555 1_555
C20E C19E 1_555 1_555
C20C C19C 1_555 1_555
C21E C20E 1_555 1_555
C21C C20C 1_555 1_555
H9E C21E 1_555 1_555
H9C C21C 1_555 1_555
C22E C21E 1_555 1_555
C22C C21C 1_555 1_555
C23E C22E 1_555 1_555
C23C C22C 1_555 1_555
C24E C19E 1_555 1_555
C24C C19C 1_555 1_555
C25E C24E 1_555 1_555
C25C C24C 1_555 1_555
H10E C25E 1_555 1_555
H10C C25C 1_555 1_555
C26E C25E 1_555 1_555
C26C C25C 1_555 1_555
H11E C26E 1_555 1_555
H11C C26C 1_555 1_555
C27E C26E 1_555 1_555
C27C C26C 1_555 1_555
C28E C23E 1_555 1_555
C28C C23C 1_555 1_555
H12E C28E 1_555 1_555
H12C C28C 1_555 1_555
C29E H13E 1_555 1_555
C29C H13C 1_555 1_555
C30E C22E 1_555 1_555
C30C C22C 1_555 1_555
C31E C30E 1_555 1_555
C31C C30C 1_555 1_555
H14E C31E 1_555 1_555
H14C C31C 1_555 1_555
C32E C31E 1_555 1_555
C32C C31C 1_555 1_555
H15E C32E 1_555 1_555
H15C C32C 1_555 1_555
C33E C8E 1_555 1_555
C33C C32C 1_555 1_555
C34E C29E 1_555 1_555
C34C C29C 1_555 1_555
H16E C34E 1_555 1_555
H16C C34C 1_555 1_555
O4A Zn1A 1_555 1_555
O4B Zn1B 1_555 1_555
O4G C8 1_555 1_555
O5B Zn1 1_555 1_555
O5A Zn1B 1_555 1_555
O5G C8 1_555 1_555
O6E C20E 1_555 1_555
O6C C20C 1_555 1_555
Cl1E C17E 1_555 1_555
Cl1C C17C 1_555 1_555
Cl2E C27E 1_555 1_555
Cl2C C27C 1_555 1_555
O7E C10E 1_555 1_555
O7C C10C 1_555 1_555
C35E O6E 1_555 1_555
C35C O6C 1_555 1_555
H17E C35E 1_555 1_555
H17C C35C 1_555 1_555
H18E C35E 1_555 1_555
H18C C35C 1_555 1_555
C36E H19E 1_555 1_555
C36C H19C 1_555 1_555
C37E C36E 1_555 1_555
C37C C36C 1_555 1_555
H20E C37E 1_555 1_555
H20C C37C 1_555 1_555
C38E C37E 1_555 1_555
C38C C37C 1_555 1_555
H21E C38E 1_555 1_555
H21C C38C 1_555 1_555
C39E C35E 1_555 1_555
C39C C35C 1_555 1_555
C40E C39E 1_555 1_555
C40C C39C 1_555 1_555
H22E C40E 1_555 1_555
H22C C40C 1_555 1_555
C41E C36E 1_555 1_555
C41C C36C 1_555 1_555
H23E C41E 1_555 1_555
H23C C41C 1_555 1_555
C42E O7E 1_555 1_555
C42C O7C 1_555 1_555
H24E C42E 1_555 1_555
H24C C42C 1_555 1_555
H25E C42E 1_555 1_555
H25C C42C 1_555 1_555
C43E H26E 1_555 1_555
C43C H26C 1_555 1_555
C44E C42E 1_555 1_555
C44C C42C 1_555 1_555
C45E C44E 1_555 1_555
C45C C44C 1_555 1_555
H27E C45E 1_555 1_555
H27C C45C 1_555 1_555
C46E C45E 1_555 1_555
C46C C45C 1_555 1_555
H28E C46E 1_555 1_555
H28C C46C 1_555 1_555
C47E C46E 1_555 1_555
C47C C46C 1_555 1_555
H29E C47E 1_555 1_555
H29C C47C 1_555 1_555
C48E C43E 1_555 1_555
C48C C43C 1_555 1_555
H30E C48E 1_555 1_555
H30C C48C 1_555 1_555
O3 C7 1_555 1_555
C5 C6 1_555 1_555
C5 C7 1_555 1_555
C11 C12 1_555 1_555
C13 C14 1_555 1_555
C17 C18 1_555 1_555
C23 C24 1_555 1_555
C27 C28 1_555 1_555
C29 C30 1_555 1_555
C33 C34 1_555 1_555
O5 C8E 1_555 1_555
C38 C39 1_555 1_555
C40 C41 1_555 1_555
C43 C44 1_555 1_555
C47 C48 1_555 1_555
C5E C6E 1_555 1_555
C5C C6C 1_555 1_555
C8C O4A 1_555 1_555
C8C O5A 1_555 1_555
C11E C12E 1_555 1_555
C11C C12C 1_555 1_555
C13E C14E 1_555 1_555
C13C C14C 1_555 1_555
C17E C18E 1_555 1_555
C17C C18C 1_555 1_555
C23E C24E 1_555 1_555
C23C C24C 1_555 1_555
C27E C28E 1_555 1_555
C27C C28C 1_555 1_555
C29E C30E 1_555 1_555
C29C C30C 1_555 1_555
C32E C33E 1_555 1_555
C33E C34E 1_555 1_555
C33C C34C 1_555 1_555
C38E C39E 1_555 1_555
C38C C39C 1_555 1_555
C40E C41E 1_555 1_555
C40C C41C 1_555 1_555
C43E C44E 1_555 1_555
C43C C44C 1_555 1_555
C47E C48E 1_555 1_555
C47C C48C 1_555 1_555

#END
