
#######################################################################
#
#                 Cambridge Crystallographic Data Centre
#                                CCDC 
#
#######################################################################
#
# If this CIF has been generated from an entry in the Cambridge 
# Structural Database, then it will include bibliographic, chemical, 
# crystal, experimental, refinement or atomic coordinate data resulting 
# from the CCDC's data processing and validation procedures.
#
#######################################################################

data_FERVOP
_symmetry_cell_setting           rhombohedral
_symmetry_space_group_name_H-M   'R -3 m'
_symmetry_Int_Tables_number      166
_space_group_name_Hall           '-R 3 2"'
loop_
_symmetry_equiv_pos_site_id
_symmetry_equiv_pos_as_xyz
1 x,y,z
2 -y,x-y,z
3 -x+y,-x,z
4 x-y,-y,-z
5 -x,-x+y,-z
6 y,x,-z
7 2/3+x,1/3+y,1/3+z
8 2/3-y,1/3+x-y,1/3+z
9 2/3-x+y,1/3-x,1/3+z
10 2/3+x-y,1/3-y,1/3-z
11 2/3-x,1/3-x+y,1/3-z
12 2/3+y,1/3+x,1/3-z
13 1/3+x,2/3+y,2/3+z
14 1/3-y,2/3+x-y,2/3+z
15 1/3-x+y,2/3-x,2/3+z
16 1/3+x-y,2/3-y,2/3-z
17 1/3-x,2/3-x+y,2/3-z
18 1/3+y,2/3+x,2/3-z
19 -x,-y,-z
20 y,-x+y,-z
21 x-y,x,-z
22 -x+y,y,z
23 x,x-y,z
24 -y,-x,z
25 1/3-x,2/3-y,2/3-z
26 1/3+y,2/3-x+y,2/3-z
27 1/3+x-y,2/3+x,2/3-z
28 1/3-x+y,2/3+y,2/3+z
29 1/3+x,2/3+x-y,2/3+z
30 1/3-y,2/3-x,2/3+z
31 2/3-x,1/3-y,1/3-z
32 2/3+y,1/3-x+y,1/3-z
33 2/3+x-y,1/3+x,1/3-z
34 2/3-x+y,1/3+y,1/3+z
35 2/3+x,1/3+x-y,1/3+z
36 2/3-y,1/3-x,1/3+z
_cell_length_a                   26.2456(20)
_cell_length_b                   26.2456(20)
_cell_length_c                   9.1031(10)
_cell_angle_alpha                90
_cell_angle_beta                 90
_cell_angle_gamma                120
_cell_volume                     5430.41
loop_
_atom_site_label
_atom_site_type_symbol
_atom_site_fract_x
_atom_site_fract_y
_atom_site_fract_z
Ag1 Ag 0.6667 0.02898(3) 0.3333
Fe1 Fe 0.5000 0.0000 0.0000
N1 N 0.45600(15) -0.0880(3) -0.0087(11)
N2 N 0.5525(2) -0.0018(2) 0.1477(7)
N3 N 0.3931(4) -0.3035(2) -0.009(2)
C1 C 0.3940(2) -0.2120(5) -0.009(3)
C2 C 0.3968(3) -0.1188(3) -0.0058(11)
H1 H 0.3767 -0.0980 -0.0026
C3 C 0.3646(3) -0.1790(3) -0.0074(15)
H2 H 0.3237 -0.1982 -0.0077
C4 C 0.3619(2) -0.2762(4) -0.013(3)
C5 C 0.5892(3) 0.0016(3) 0.2230(8)
N1A N 0.0880(3) -0.45600(34) -0.0087(11)
N3A N 0.3035(2) -0.3034(4) -0.009(2)
C1A C 0.2120(5) -0.3940(5) -0.009(3)
C2A C 0.1188(3) -0.4844(4) -0.0058(11)
H1A H 0.0980 -0.5253 -0.0026
C3A C 0.1790(3) -0.4564(4) -0.0074(15)
H2A H 0.1982 -0.4781 -0.0077
C4A C 0.2762(4) -0.3619(4) -0.013(3)
N1B N 0.45600(34) -0.45600(15) -0.0087(11)
N3B N 0.3034(4) -0.3931(4) -0.009(2)
C1B C 0.3940(5) -0.3940(2) -0.009(3)
C2B C 0.4844(4) -0.3968(3) -0.0058(11)
H1B H 0.5253 -0.3767 -0.0026
C3B C 0.4564(4) -0.3646(3) -0.0074(15)
H2B H 0.4781 -0.3237 -0.0077
C4B C 0.3619(4) -0.3619(2) -0.013(3)
C2U C 0.4844(4) -0.1188(3) -0.0058(11)
H1U H 0.5253 -0.0980 -0.0026
C3U C 0.4564(4) -0.1790(3) -0.0074(15)
H2U H 0.4781 -0.1982 -0.0077
C2V C 0.3968(3) -0.4844(4) -0.0058(11)
H1V H 0.3767 -0.5253 -0.0026
C3V C 0.3646(3) -0.4564(4) -0.0074(15)
H2V H 0.3237 -0.4781 -0.0077
C2W C 0.1188(3) -0.3968(3) -0.0058(11)
H1W H 0.0980 -0.3767 -0.0026
C3W C 0.1790(3) -0.3646(3) -0.0074(15)
H2W H 0.1982 -0.3237 -0.0077
Ag1A Ag -0.02898(3) -0.36228(3) 0.3333
Fe1A Fe 0.0000 -0.5000 0.0000
N2A N 0.0018(2) -0.4457(3) 0.1477(7)
C5A C -0.0016(3) -0.4124(4) 0.2230(8)
Fe1B Fe 0.5000 -0.5000 0.0000
N2B N 0.4457(3) -0.5525(2) 0.1477(7)
C5B C 0.4124(4) -0.5892(3) 0.2230(8)
N1C N 0.54400(34) 0.0880(3) 0.0087(11)
N2C N 0.5543(3) 0.0018(2) -0.1477(7)
N3C N 0.6966(4) 0.3035(2) 0.009(2)
C1C C 0.6060(5) 0.2120(5) 0.009(3)
C2C C 0.5156(4) 0.1188(3) 0.0058(11)
H1C H 0.4747 0.0980 0.0026
C3C C 0.5436(4) 0.1790(3) 0.0074(15)
H2C H 0.5219 0.1982 0.0077
C4C C 0.6381(4) 0.2762(4) 0.013(3)
C5C C 0.5876(4) -0.0016(3) -0.2230(8)
N1D N 0.54400(15) 0.45600(34) 0.0087(11)
N3D N 0.6069(4) 0.3034(4) 0.009(2)
C1D C 0.6060(2) 0.3940(5) 0.009(3)
C2D C 0.6032(3) 0.4844(4) 0.0058(11)
H1D H 0.6233 0.5253 0.0026
C3D C 0.6354(3) 0.4564(4) 0.0074(15)
H2D H 0.6763 0.4781 0.0077
C4D C 0.6381(2) 0.3619(4) 0.013(3)
N1E N 0.9120(3) 0.45600(15) 0.0087(11)
N3E N 0.6965(2) 0.3931(4) 0.009(2)
C1E C 0.7880(5) 0.3940(2) 0.009(3)
C2E C 0.8812(3) 0.3968(3) 0.0058(11)
H1E H 0.9020 0.3767 0.0026
C3E C 0.8210(3) 0.3646(3) 0.0074(15)
H2E H 0.8018 0.3237 0.0077
C4E C 0.7238(4) 0.3619(2) 0.013(3)
C2R C 0.6032(3) 0.1188(3) 0.0058(11)
H1R H 0.6233 0.0980 0.0026
C3R C 0.6354(3) 0.1790(3) 0.0074(15)
H2R H 0.6763 0.1982 0.0077
C2S C 0.8812(3) 0.4844(4) 0.0058(11)
H1S H 0.9020 0.5253 0.0026
C3S C 0.8210(3) 0.4564(4) 0.0074(15)
H2S H 0.8018 0.4781 0.0077
C2T C 0.5156(4) 0.3968(3) 0.0058(11)
H1T H 0.4747 0.3767 0.0026
C3T C 0.5436(4) 0.3646(3) 0.0074(15)
H2T H 0.5219 0.3237 0.0077
N2P N 0.7808(2) 0.1124(3) 0.5190(7)
C5P C 0.7441(3) 0.0791(4) 0.4437(8)
N2R N 0.4475(2) 0.0018(2) -0.1477(7)
C5R C 0.4108(3) -0.0016(3) -0.2230(8)
N2S N -0.0018(2) -0.5543(3) -0.1477(7)
C5S C 0.0016(3) -0.5876(4) -0.2230(8)
N2T N 0.5543(3) -0.4475(2) -0.1477(7)
C5T C 0.5876(4) -0.4108(3) -0.2230(8)
N2U N 0.4457(3) -0.0018(2) 0.1477(7)
C5U C 0.4124(4) 0.0016(3) 0.2230(8)
N2O N -0.1124(3) -0.3315(2) 0.5190(7)
C5O C -0.0791(4) -0.3349(3) 0.4437(8)
N2W N 0.0018(2) -0.5525(2) 0.1477(7)
C5W C -0.0016(3) -0.5892(3) 0.2230(8)
N2E N -0.0018(2) -0.4475(2) -0.1477(7)
C5E C 0.0016(3) -0.4108(3) -0.2230(8)
Ag1B Ag 0.36228(3) -0.6667 0.3333
Ag1C Ag 0.63772(3) -0.02898(3) -0.3333
Ag1R Ag 0.3333 -0.02898(3) -0.3333
Ag1S Ag 0.02898(3) -0.63772(3) -0.3333
Ag1E Ag 0.02898(3) -0.3333 -0.3333
Ag1T Ag 0.63772(3) -0.3333 -0.3333
Ag1U Ag 0.36228(3) 0.02898(3) 0.3333
Ag1W Ag -0.02898(3) -0.6667 0.3333
Fe1A_2 Fe 1.0000 0.5000 0.0000
Fe1B_2 Fe 0.5000 0.5000 0.0000
Fe1L Fe -0.1667 -0.3333 0.6667
Fe1N Fe 0.8333 0.1667 0.6667
N1D_2 N 0.54400(15) -0.54400(34) 0.0087(11)
N1E_2 N -0.0880(3) -0.54400(15) 0.0087(11)
N2D N 0.4475(2) -0.5543(3) -0.1477(7)
N2V N 0.5525(2) -0.4457(3) 0.1477(7)
C5G C 0.6651(3) -0.0791(4) -0.4437(8)
C5Q C 0.3349(3) -0.7441(3) 0.4437(8)
C5GA C 0.0791(4) -0.6651(3) -0.4437(8)
C5HA C 0.2559(3) -0.0791(4) -0.4437(8)
O1 O 0.4475(3) -0.1050(6) 0.3751(17)
C6 C 0.4593(9) -0.0815(18) 0.517(3)
loop_
_geom_bond_atom_site_label_1
_geom_bond_atom_site_label_2
_geom_bond_site_symmetry_1
_geom_bond_site_symmetry_2
Ag1 C5 1_555 1_555
Fe1 N1 1_555 1_555
N1 C2 1_555 1_555
N2 Fe1 1_555 1_555
N3 C4 1_555 1_555
C1 C3 1_555 1_555
C2 H1 1_555 1_555
C3 C2 1_555 1_555
H2 C3 1_555 1_555
C4 C1 1_555 1_555
C5 N2 1_555 1_555
O1 C6 1_555 1_555
N1A C2A 1_555 1_555
N3A C4 1_555 1_555
C1A C3A 1_555 1_555
C2A H1A 1_555 1_555
C3A C2A 1_555 1_555
H2A C3A 1_555 1_555
C4A N3A 1_555 1_555
N1B C2B 1_555 1_555
N3B C4A 1_555 1_555
C1B C3B 1_555 1_555
C2B H1B 1_555 1_555
C3B C2B 1_555 1_555
H2B C3B 1_555 1_555
C4B N3 1_555 1_555
C2U N1 1_555 1_555
H1U C2U 1_555 1_555
C3U C1 1_555 1_555
H2U C3U 1_555 1_555
C2V N1B 1_555 1_555
H1V C2V 1_555 1_555
C3V C1B 1_555 1_555
H2V C3V 1_555 1_555
C2W N1A 1_555 1_555
H1W C2W 1_555 1_555
C3W C1A 1_555 1_555
H2W C3W 1_555 1_555
Ag1A C5A 1_555 1_555
Fe1A N1A 1_555 1_555
N2A Fe1A 1_555 1_555
C5A N2A 1_555 1_555
Fe1B N1B 1_555 1_555
N2B Fe1B 1_555 1_555
C5B N2B 1_555 1_555
N1C Fe1 1_555 1_555
N2C Fe1 1_555 1_555
N3C C4C 1_555 1_555
C1C C3C 1_555 1_555
C2C N1C 1_555 1_555
H1C C2C 1_555 1_555
C3C C2C 1_555 1_555
H2C C3C 1_555 1_555
C4C C1C 1_555 1_555
C5C N2C 1_555 1_555
N1D C2D 1_555 1_555
N3D C4C 1_555 1_555
C1D C3D 1_555 1_555
C2D H1D 1_555 1_555
C3D C2D 1_555 1_555
H2D C3D 1_555 1_555
C4D N3D 1_555 1_555
N1E C2E 1_555 1_555
N3E C4D 1_555 1_555
C1E C3E 1_555 1_555
C2E H1E 1_555 1_555
C3E C2E 1_555 1_555
H2E C3E 1_555 1_555
C4E N3C 1_555 1_555
C2R N1C 1_555 1_555
H1R C2R 1_555 1_555
C3R C1C 1_555 1_555
H2R C3R 1_555 1_555
C2S N1E 1_555 1_555
H1S C2S 1_555 1_555
C3S C1E 1_555 1_555
H2S C3S 1_555 1_555
C2T N1D 1_555 1_555
H1T C2T 1_555 1_555
C3T C1D 1_555 1_555
H2T C3T 1_555 1_555
N2P C5P 1_555 1_555
C5P Ag1 1_555 1_555
N2R Fe1 1_555 1_555
C5R N2R 1_555 1_555
N2S Fe1A 1_555 1_555
C5S N2S 1_555 1_555
N2T Fe1B 1_555 1_555
C5T N2T 1_555 1_555
N2U Fe1 1_555 1_555
C5U N2U 1_555 1_555
N2O C5O 1_555 1_555
C5O Ag1A 1_555 1_555
N2W Fe1A 1_555 1_555
C5W N2W 1_555 1_555
N2E Fe1A 1_555 1_555
C5E N2E 1_555 1_555
Ag1B C5B 1_555 1_555
Ag1C C5C 1_555 1_555
Ag1R C5R 1_555 1_555
Ag1S C5S 1_555 1_555
Ag1E C5E 1_555 1_555
Ag1T C5T 1_555 1_555
Ag1U C5U 1_555 1_555
Ag1W C5W 1_555 1_555
Fe1A_2 N1E 1_555 1_555
Fe1B_2 N1D 1_555 1_555
Fe1L N2O 1_555 1_555
Fe1N N2P 1_555 1_555
N1D_2 Fe1B 1_555 1_555
N1E_2 Fe1A 1_555 1_555
N2D Fe1B 1_555 1_555
N2V Fe1B 1_555 1_555
C5G Ag1C 1_555 1_555
C5Q Ag1B 1_555 1_555
C5GA Ag1S 1_555 1_555
C5HA Ag1R 1_555 1_555
C1A C4A 1_555 1_555
N3B C4B 1_555 1_555
C1B C4B 1_555 1_555
C2U C3U 1_555 1_555
C2V C3V 1_555 1_555
C2W C3W 1_555 1_555
C1D C4D 1_555 1_555
N3E C4E 1_555 1_555
C1E C4E 1_555 1_555
C2R C3R 1_555 1_555
C2S C3S 1_555 1_555
C2T C3T 1_555 1_555

#END
