
#######################################################################
#
#                 Cambridge Crystallographic Data Centre
#                                CCDC 
#
#######################################################################
#
# If this CIF has been generated from an entry in the Cambridge 
# Structural Database, then it will include bibliographic, chemical, 
# crystal, experimental, refinement or atomic coordinate data resulting 
# from the CCDC's data processing and validation procedures.
#
#######################################################################

data_FERVIJ
_symmetry_cell_setting           rhombohedral
_symmetry_space_group_name_H-M   'R -3 m'
_symmetry_Int_Tables_number      166
_space_group_name_Hall           '-R 3 2"'
loop_
_symmetry_equiv_pos_site_id
_symmetry_equiv_pos_as_xyz
1 x,y,z
2 -y,x-y,z
3 -x+y,-x,z
4 x-y,-y,-z
5 -x,-x+y,-z
6 y,x,-z
7 2/3+x,1/3+y,1/3+z
8 2/3-y,1/3+x-y,1/3+z
9 2/3-x+y,1/3-x,1/3+z
10 2/3+x-y,1/3-y,1/3-z
11 2/3-x,1/3-x+y,1/3-z
12 2/3+y,1/3+x,1/3-z
13 1/3+x,2/3+y,2/3+z
14 1/3-y,2/3+x-y,2/3+z
15 1/3-x+y,2/3-x,2/3+z
16 1/3+x-y,2/3-y,2/3-z
17 1/3-x,2/3-x+y,2/3-z
18 1/3+y,2/3+x,2/3-z
19 -x,-y,-z
20 y,-x+y,-z
21 x-y,x,-z
22 -x+y,y,z
23 x,x-y,z
24 -y,-x,z
25 1/3-x,2/3-y,2/3-z
26 1/3+y,2/3-x+y,2/3-z
27 1/3+x-y,2/3+x,2/3-z
28 1/3-x+y,2/3+y,2/3+z
29 1/3+x,2/3+x-y,2/3+z
30 1/3-y,2/3-x,2/3+z
31 2/3-x,1/3-y,1/3-z
32 2/3+y,1/3-x+y,1/3-z
33 2/3+x-y,1/3+x,1/3-z
34 2/3-x+y,1/3+y,1/3+z
35 2/3+x,1/3+x-y,1/3+z
36 2/3-y,1/3-x,1/3+z
_cell_length_a                   26.8779(18)
_cell_length_b                   26.8779(18)
_cell_length_c                   9.7512(8)
_cell_angle_alpha                90
_cell_angle_beta                 90
_cell_angle_gamma                120
_cell_volume                     6100.7
loop_
_atom_site_label
_atom_site_type_symbol
_atom_site_fract_x
_atom_site_fract_y
_atom_site_fract_z
Au1 Au 0.0000 0.29216(2) 0.5000
Fe1 Fe 0.1667 0.3333 0.8333
N1 N 0.1194(2) 0.2388(4) 0.8404(13)
N2 N 0.1077(4) 0.3329(4) 0.6842(10)
N3 N -0.0293(2) 0.0293(2) 0.8328(11)
C1 C 0.0623(4) 0.2092(4) 0.8378(11)
H1 H 0.0426 0.2294 0.8372
C2 C 0.0310(3) 0.1502(3) 0.8360(10)
H2 H -0.0089 0.1311 0.8358
C3 C 0.0599(2) 0.1199(5) 0.8342(13)
C4 C 0.0278(2) 0.0555(5) 0.8323(13)
C5 C 0.0702(4) 0.3230(4) 0.6142(12)
N1A N -0.2388(4) -0.1194(4) 0.8404(13)
N3A N -0.0293(2) -0.0586(3) 0.8328(11)
C1A C -0.2092(4) -0.1469(6) 0.8378(11)
H1A H -0.2294 -0.1868 0.8372
C2A C -0.1502(3) -0.1192(4) 0.8360(10)
H2A H -0.1311 -0.1400 0.8358
C3A C -0.1199(5) -0.0600(5) 0.8342(13)
C4A C -0.0555(5) -0.0277(5) 0.8323(13)
N1B N 0.1194(4) -0.1194(2) 0.8404(13)
N3B N 0.0586(3) 0.0293(2) 0.8328(11)
C1B C 0.1469(6) -0.0623(4) 0.8378(11)
H1B H 0.1868 -0.0426 0.8372
C2B C 0.1192(4) -0.0310(3) 0.8360(10)
H2B H 0.1400 0.0089 0.8358
C3B C 0.0600(5) -0.0599(2) 0.8342(13)
C4B C 0.0277(5) -0.0278(2) 0.8323(13)
C1U C 0.1469(6) 0.2092(4) 0.8378(11)
H1U H 0.1868 0.2294 0.8372
C2U C 0.1192(4) 0.1502(3) 0.8360(10)
H2U H 0.1400 0.1311 0.8358
C1V C 0.0623(4) -0.1469(6) 0.8378(11)
H1V H 0.0426 -0.1868 0.8372
C2V C 0.0310(3) -0.1192(4) 0.8360(10)
H2V H -0.0089 -0.1400 0.8358
C1W C -0.2092(4) -0.0623(4) 0.8378(11)
H1W H -0.2294 -0.0426 0.8372
C2W C -0.1502(3) -0.0310(3) 0.8360(10)
H2W H -0.1311 0.0089 0.8358
Au1A Au -0.29216(2) -0.29216(2) 0.5000
Fe1A Fe -0.3333 -0.1666 0.8333
N2A N -0.3329(4) -0.2252(6) 0.6842(10)
C5A C -0.3230(4) -0.2528(6) 0.6142(12)
Au1B Au 0.29216(2) 0.0000 0.5000
Fe1B Fe 0.1666 -0.1667 0.8333
N2B N 0.2252(6) -0.1077(4) 0.6842(10)
C5B C 0.2528(6) -0.0702(4) 0.6142(12)
N2C N -0.2252(6) -0.3329(4) 0.3158(10)
C5C C -0.2528(6) -0.3230(4) 0.3858(12)
N2D N -0.1077(4) 0.2252(6) 0.3158(10)
C5D C -0.0702(4) 0.2528(6) 0.3858(12)
N2E N 0.3329(4) 0.1077(4) 0.3158(10)
C5E C 0.3230(4) 0.0702(4) 0.3858(12)
Au1R Au 0.0000 -0.29216(2) 0.5000
N2R N -0.1077(4) -0.3329(4) 0.3158(10)
C5R C -0.0702(4) -0.3230(4) 0.3858(12)
Au1S Au 0.29216(2) 0.29216(2) 0.5000
N2S N 0.3329(4) 0.2252(6) 0.3158(10)
C5S C 0.3230(4) 0.2528(6) 0.3858(12)
Au1T Au -0.29216(2) 0.0000 0.5000
N2T N -0.2252(6) 0.1077(4) 0.3158(10)
C5T C -0.2528(6) 0.0702(4) 0.3858(12)
N2U N 0.2252(6) 0.3329(4) 0.6842(10)
C5U C 0.2528(6) 0.3230(4) 0.6142(12)
N2V N 0.1077(4) -0.2252(6) 0.6842(10)
C5V C 0.0702(4) -0.2528(6) 0.6142(12)
N2W N -0.3329(4) -0.1077(4) 0.6842(10)
C5W C -0.3230(4) -0.0702(4) 0.6142(12)
N1O N 0.2139(4) 0.4279(4) 0.8263(13)
N3O N 0.2747(3) 0.6374(2) 0.8339(11)
C1O C 0.1864(6) 0.4575(4) 0.8289(11)
H1O H 0.1465 0.4373 0.8295
C2O C 0.2141(4) 0.5165(3) 0.8307(10)
H2O H 0.1933 0.5356 0.8309
C3O C 0.2733(5) 0.5468(5) 0.8325(13)
C4O C 0.3056(5) 0.6112(5) 0.8344(13)
N1P N 0.2139(2) 0.7861(4) 0.8263(13)
N3P N 0.3626(2) 0.7253(3) 0.8339(11)
C1P C 0.2710(4) 0.8136(6) 0.8289(11)
H1P H 0.2907 0.8535 0.8295
C2P C 0.3023(3) 0.7859(4) 0.8307(10)
H2P H 0.3422 0.8067 0.8309
C3P C 0.2734(2) 0.7267(5) 0.8325(13)
C4P C 0.3055(2) 0.6944(5) 0.8344(13)
N1Q N 0.5721(4) 0.7861(2) 0.8263(13)
N3Q N 0.3626(2) 0.6374(2) 0.8339(11)
C1Q C 0.5425(4) 0.7290(4) 0.8289(11)
H1Q H 0.5627 0.7093 0.8295
C2Q C 0.4835(3) 0.6977(3) 0.8307(10)
H2Q H 0.4644 0.6578 0.8309
C3Q C 0.4532(5) 0.7266(2) 0.8325(13)
C4Q C 0.3888(5) 0.6945(2) 0.8344(13)
C1X C 0.2710(4) 0.4575(4) 0.8289(11)
H1X H 0.2907 0.4373 0.8295
C2X C 0.3023(3) 0.5165(3) 0.8307(10)
H2X H 0.3422 0.5356 0.8309
C1Y C 0.5425(4) 0.8136(6) 0.8289(11)
H1Y H 0.5627 0.8535 0.8295
C2Y C 0.4835(3) 0.7859(4) 0.8307(10)
H2Y H 0.4644 0.8067 0.8309
C1Z C 0.1864(6) 0.7290(4) 0.8289(11)
H1Z H 0.1465 0.7093 0.8295
C2Z C 0.2141(4) 0.6977(3) 0.8307(10)
H2Z H 0.1933 0.6578 0.8309
Fe1A_2 Fe 0.6667 0.8334 0.8333
Fe1B_2 Fe 0.1666 0.8333 0.8333
Fe1C Fe -0.1666 -0.3333 0.1667
Fe1D Fe -0.1667 0.1666 0.1667
Fe1E Fe 0.3333 0.1667 0.1667
N1P_2 N 0.2139(2) -0.2139(4) 0.8263(13)
N1Q_2 N -0.4279(4) -0.2139(2) 0.8263(13)
N2O N 0.1081(6) 0.3338(4) 0.9825(10)
N2P N 0.2256(4) -0.1081(6) 0.9825(10)
N2Q N -0.3338(4) -0.2256(4) 0.9825(10)
N2X N 0.2256(4) 0.3338(4) 0.9825(10)
N2Y N -0.3338(4) -0.1081(6) 0.9825(10)
N2Z N 0.1081(6) -0.2256(4) 0.9825(10)
loop_
_geom_bond_atom_site_label_1
_geom_bond_atom_site_label_2
_geom_bond_site_symmetry_1
_geom_bond_site_symmetry_2
Au1 C5 1_555 1_555
Fe1 N1 1_555 1_555
N1 C1 1_555 1_555
N2 Fe1 1_555 1_555
N3 C4 1_555 1_555
C1 H1 1_555 1_555
C2 C1 1_555 1_555
H2 C2 1_555 1_555
C3 C2 1_555 1_555
C4 C3 1_555 1_555
C5 N2 1_555 1_555
N1A C1A 1_555 1_555
N3A C4A 1_555 1_555
C1A H1A 1_555 1_555
C2A C1A 1_555 1_555
H2A C2A 1_555 1_555
C3A C2A 1_555 1_555
C4A N3 1_555 1_555
N1B C1B 1_555 1_555
N3B C4 1_555 1_555
C1B H1B 1_555 1_555
C2B C1B 1_555 1_555
H2B C2B 1_555 1_555
C3B C2B 1_555 1_555
C4B N3A 1_555 1_555
C1U N1 1_555 1_555
H1U C1U 1_555 1_555
C2U C3 1_555 1_555
H2U C2U 1_555 1_555
C1V N1B 1_555 1_555
H1V C1V 1_555 1_555
C2V C3B 1_555 1_555
H2V C2V 1_555 1_555
C1W N1A 1_555 1_555
H1W C1W 1_555 1_555
C2W C3A 1_555 1_555
H2W C2W 1_555 1_555
Au1A C5A 1_555 1_555
Fe1A N1A 1_555 1_555
N2A Fe1A 1_555 1_555
C5A N2A 1_555 1_555
Au1B C5B 1_555 1_555
Fe1B N1B 1_555 1_555
N2B Fe1B 1_555 1_555
C5B N2B 1_555 1_555
N2C C5C 1_555 1_555
C5C Au1A 1_555 1_555
N2D C5D 1_555 1_555
C5D Au1 1_555 1_555
N2E C5E 1_555 1_555
C5E Au1B 1_555 1_555
Au1R C5R 1_555 1_555
N2R C5R 1_555 1_555
Au1S C5S 1_555 1_555
N2S C5S 1_555 1_555
Au1T C5T 1_555 1_555
N2T C5T 1_555 1_555
N2U Fe1 1_555 1_555
C5U Au1S 1_555 1_555
N2V Fe1B 1_555 1_555
C5V Au1R 1_555 1_555
N2W Fe1A 1_555 1_555
C5W Au1T 1_555 1_555
N1O Fe1 1_555 1_555
N3O C4O 1_555 1_555
C1O N1O 1_555 1_555
H1O C1O 1_555 1_555
C2O C1O 1_555 1_555
H2O C2O 1_555 1_555
C3O C2O 1_555 1_555
C4O C3O 1_555 1_555
N1P C1P 1_555 1_555
N3P C4P 1_555 1_555
C1P H1P 1_555 1_555
C2P C1P 1_555 1_555
H2P C2P 1_555 1_555
C3P C2P 1_555 1_555
C4P N3O 1_555 1_555
N1Q C1Q 1_555 1_555
N3Q C4O 1_555 1_555
C1Q H1Q 1_555 1_555
C2Q C1Q 1_555 1_555
H2Q C2Q 1_555 1_555
C3Q C2Q 1_555 1_555
C4Q N3P 1_555 1_555
C1X N1O 1_555 1_555
H1X C1X 1_555 1_555
C2X C3O 1_555 1_555
H2X C2X 1_555 1_555
C1Y N1Q 1_555 1_555
H1Y C1Y 1_555 1_555
C2Y C3Q 1_555 1_555
H2Y C2Y 1_555 1_555
C1Z N1P 1_555 1_555
H1Z C1Z 1_555 1_555
C2Z C3P 1_555 1_555
H2Z C2Z 1_555 1_555
Fe1A_2 N1Q 1_555 1_555
Fe1B_2 N1P 1_555 1_555
Fe1C N2C 1_555 1_555
Fe1D N2D 1_555 1_555
Fe1E N2E 1_555 1_555
N1P_2 Fe1B 1_555 1_555
N1Q_2 Fe1A 1_555 1_555
N2O Fe1 1_555 1_555
N2P Fe1B 1_555 1_555
N2Q Fe1A 1_555 1_555
N2X Fe1 1_555 1_555
N2Y Fe1A 1_555 1_555
N2Z Fe1B 1_555 1_555
C3A C4A 1_555 1_555
N3B C4B 1_555 1_555
C3B C4B 1_555 1_555
C1U C2U 1_555 1_555
C1V C2V 1_555 1_555
C1W C2W 1_555 1_555
N2R Fe1C 1_555 1_555
N2S Fe1E 1_555 1_555
N2T Fe1D 1_555 1_555
N2U C5U 1_555 1_555
N2V C5V 1_555 1_555
N2W C5W 1_555 1_555
C3P C4P 1_555 1_555
N3Q C4Q 1_555 1_555
C3Q C4Q 1_555 1_555
C1X C2X 1_555 1_555
C1Y C2Y 1_555 1_555
C1Z C2Z 1_555 1_555

#END
