
#######################################################################
#
#                 Cambridge Crystallographic Data Centre
#                                CCDC 
#
#######################################################################
#
# If this CIF has been generated from an entry in the Cambridge 
# Structural Database, then it will include bibliographic, chemical, 
# crystal, experimental, refinement or atomic coordinate data resulting 
# from the CCDC's data processing and validation procedures.
#
#######################################################################

data_FERWAC
_symmetry_cell_setting           rhombohedral
_symmetry_space_group_name_H-M   'R -3 m'
_symmetry_Int_Tables_number      166
_space_group_name_Hall           '-R 3 2"'
loop_
_symmetry_equiv_pos_site_id
_symmetry_equiv_pos_as_xyz
1 x,y,z
2 -y,x-y,z
3 -x+y,-x,z
4 x-y,-y,-z
5 -x,-x+y,-z
6 y,x,-z
7 2/3+x,1/3+y,1/3+z
8 2/3-y,1/3+x-y,1/3+z
9 2/3-x+y,1/3-x,1/3+z
10 2/3+x-y,1/3-y,1/3-z
11 2/3-x,1/3-x+y,1/3-z
12 2/3+y,1/3+x,1/3-z
13 1/3+x,2/3+y,2/3+z
14 1/3-y,2/3+x-y,2/3+z
15 1/3-x+y,2/3-x,2/3+z
16 1/3+x-y,2/3-y,2/3-z
17 1/3-x,2/3-x+y,2/3-z
18 1/3+y,2/3+x,2/3-z
19 -x,-y,-z
20 y,-x+y,-z
21 x-y,x,-z
22 -x+y,y,z
23 x,x-y,z
24 -y,-x,z
25 1/3-x,2/3-y,2/3-z
26 1/3+y,2/3-x+y,2/3-z
27 1/3+x-y,2/3+x,2/3-z
28 1/3-x+y,2/3+y,2/3+z
29 1/3+x,2/3+x-y,2/3+z
30 1/3-y,2/3-x,2/3+z
31 2/3-x,1/3-y,1/3-z
32 2/3+y,1/3-x+y,1/3-z
33 2/3+x-y,1/3+x,1/3-z
34 2/3-x+y,1/3+y,1/3+z
35 2/3+x,1/3+x-y,1/3+z
36 2/3-y,1/3-x,1/3+z
_cell_length_a                   26.646(2)
_cell_length_b                   26.646(2)
_cell_length_c                   9.9696(11)
_cell_angle_alpha                90
_cell_angle_beta                 90
_cell_angle_gamma                120
_cell_volume                     6130.17
loop_
_atom_site_label
_atom_site_type_symbol
_atom_site_fract_x
_atom_site_fract_y
_atom_site_fract_z
Ag1 Ag 0.37003(4) 0.3333 0.3333
Fe1 Fe 0.3333 0.1667 0.6667
N1 N 0.4266(3) 0.21332(17) 0.6718(10)
N2 N 0.3344(3) 0.2243(3) 0.5222(7)
N3 N 0.63726(18) 0.36274(18) 0.6691(9)
C1 C 0.4561(3) 0.2710(3) 0.6740(10)
H1 H 0.4357 0.2910 0.6756
C2 C 0.5156(3) 0.3021(3) 0.6739(9)
H2 H 0.5352 0.3424 0.6760
C3 C 0.5457(4) 0.2729(2) 0.6707(15)
C4 C 0.6112(4) 0.3056(2) 0.6711(11)
C5 C 0.3421(4) 0.2622(4) 0.4528(9)
N1A N 0.78668(17) 0.21328(34) 0.6718(10)
N3A N 0.63726(18) 0.27452(25) 0.6691(9)
C1A C 0.7290(3) 0.1851(4) 0.6740(10)
H1A H 0.7090 0.1447 0.6756
C2A C 0.6979(3) 0.2135(4) 0.6739(9)
H2A H 0.6576 0.1928 0.6760
C3A C 0.7271(2) 0.2728(4) 0.6707(15)
C4A C 0.6944(2) 0.3056(4) 0.6711(11)
N1B N 0.78672(34) 0.5734(3) 0.6718(10)
N3B N 0.72548(25) 0.36274(18) 0.6691(9)
C1B C 0.8149(4) 0.5439(3) 0.6740(10)
H1B H 0.8553 0.5643 0.6756
C2B C 0.7865(4) 0.4844(3) 0.6739(9)
H2B H 0.8072 0.4648 0.6760
C3B C 0.7272(4) 0.4543(4) 0.6707(15)
C4B C 0.6944(4) 0.3888(4) 0.6711(11)
C1U C 0.8149(4) 0.2710(3) 0.6740(10)
H1U H 0.8553 0.2910 0.6756
C2U C 0.7865(4) 0.3021(3) 0.6739(9)
H2U H 0.8072 0.3424 0.6760
C1V C 0.4561(3) 0.1851(4) 0.6740(10)
H1V H 0.4357 0.1447 0.6756
C2V C 0.5156(3) 0.2135(4) 0.6739(9)
H2V H 0.5352 0.1928 0.6760
C1W C 0.7290(3) 0.5439(3) 0.6740(10)
H1W H 0.7090 0.5643 0.6756
C2W C 0.6979(3) 0.4844(3) 0.6739(9)
H2W H 0.6576 0.4648 0.6760
Ag1A Ag 0.6667 0.03673(4) 0.3333
Fe1A Fe 0.8333 0.1666 0.6667
N2A N 0.7757(3) 0.1101(4) 0.5222(7)
C5A C 0.7378(4) 0.0799(6) 0.4528(9)
Ag1B Ag 0.96327(4) 0.62997(4) 0.3333
Fe1B Fe 0.8334 0.6667 0.6667
N2B N 0.8899(4) 0.6656(3) 0.5222(7)
C5B C 0.9201(6) 0.6579(4) 0.4528(9)
N2O N 0.4434(4) 0.4424(3) 0.1445(7)
C5O C 0.4132(6) 0.4045(4) 0.2139(9)
N2P N 0.9989(3) 0.5566(4) 0.1445(7)
C5P C 0.9912(4) 0.5868(6) 0.2139(9)
N2Q N 0.5576(3) 0.0011(3) 0.1445(7)
C5Q C 0.5955(4) 0.0088(4) 0.2139(9)
Ag1U Ag 0.96327(4) 0.3333 0.3333
N2U N 0.8899(4) 0.2243(3) 0.5222(7)
C5U C 0.9201(6) 0.2622(4) 0.4528(9)
Ag1V Ag 0.37003(4) 0.03673(4) 0.3333
N2V N 0.3344(3) 0.1101(4) 0.5222(7)
C5V C 0.3421(4) 0.0799(6) 0.4528(9)
Ag1W Ag 0.6667 0.62997(4) 0.3333
N2W N 0.7757(3) 0.6656(3) 0.5222(7)
C5W C 0.7378(4) 0.6579(4) 0.4528(9)
N2X N 0.9989(3) 0.4424(3) 0.1445(7)
C5X C 0.9912(4) 0.4045(4) 0.2139(9)
N2Y N 0.5576(3) 0.5566(4) 0.1445(7)
C5Y C 0.5955(4) 0.5868(6) 0.2139(9)
N2Z N 0.4434(4) 0.0011(3) 0.1445(7)
C5Z C 0.4132(6) 0.0088(4) 0.2139(9)
N1J N 0.2401(3) 0.12005(34) 0.6615(10)
N3J N 0.02941(18) 0.05881(25) 0.6642(9)
C1J C 0.2106(3) 0.1482(4) 0.6593(10)
H1J H 0.2310 0.1886 0.6577
C2J C 0.1511(3) 0.1198(4) 0.6594(9)
H2J H 0.1315 0.1405 0.6573
C3J C 0.1210(4) 0.0605(4) 0.6626(15)
C4J C 0.0555(4) 0.0277(4) 0.6622(11)
N1K N -0.12001(17) -0.2401(3) 0.6615(10)
N3K N 0.02941(18) -0.02941(18) 0.6642(9)
C1K C -0.0623(3) -0.2106(3) 0.6593(10)
H1K H -0.0423 -0.2310 0.6577
C2K C -0.0312(3) -0.1511(3) 0.6594(9)
H2K H 0.0091 -0.1315 0.6573
C3K C -0.0604(2) -0.1210(4) 0.6626(15)
C4K C -0.0277(2) -0.0555(4) 0.6622(11)
N1I N -0.12005(34) 0.12001(17) 0.6615(10)
N3I N -0.05881(25) -0.02941(18) 0.6642(9)
C1I C -0.1482(4) 0.0623(3) 0.6593(10)
H1I H -0.1886 0.0423 0.6577
C2I C -0.1198(4) 0.0312(3) 0.6594(9)
H2I H -0.1405 -0.0091 0.6573
C3I C -0.0605(4) 0.0604(2) 0.6626(15)
C4I C -0.0277(4) 0.0277(2) 0.6622(11)
C1FA C -0.1482(4) -0.2106(3) 0.6593(10)
H1FA H -0.1886 -0.2310 0.6577
C2FA C -0.1198(4) -0.1511(3) 0.6594(9)
H2FA H -0.1405 -0.1315 0.6573
C1DA C 0.2106(3) 0.0623(3) 0.6593(10)
H1DA H 0.2310 0.0423 0.6577
C2DA C 0.1511(3) 0.0312(3) 0.6594(9)
H2DA H 0.1315 -0.0091 0.6573
C1EA C -0.0623(3) 0.1482(4) 0.6593(10)
H1EA H -0.0423 0.1886 0.6577
C2EA C -0.0312(3) 0.1198(4) 0.6594(9)
H2EA H 0.0091 0.1405 0.6573
Fe1A_2 Fe -0.1667 0.1666 0.6667
Fe1B_2 Fe -0.1666 -0.3333 0.6667
Fe1F Fe 1.0000 0.5000 0.0000
Fe1G Fe 0.5000 0.4999 0.0000
Fe1H Fe 0.5001 0.0000 0.0000
N1I_2 N 0.87995(34) 0.12001(17) 0.6615(10)
N1K_2 N 0.87999(17) 0.7599(3) 0.6615(10)
N2I N 0.7768(4) 0.1090(3) 0.8111(7)
N2J N 0.3323(3) 0.2232(4) 0.8111(7)
N2K N 0.8910(3) 0.6677(3) 0.8111(7)
N2DA N 0.3323(3) 0.1090(3) 0.8111(7)
N2EA N 0.8910(3) 0.2232(4) 0.8111(7)
N2FA N 0.7768(4) 0.6677(3) 0.8111(7)
loop_
_geom_bond_atom_site_label_1
_geom_bond_atom_site_label_2
_geom_bond_site_symmetry_1
_geom_bond_site_symmetry_2
Ag1 C5 1_555 1_555
Fe1 N1 1_555 1_555
N1 C1 1_555 1_555
N2 Fe1 1_555 1_555
N3 C4 1_555 1_555
C1 H1 1_555 1_555
C2 C1 1_555 1_555
H2 C2 1_555 1_555
C3 C2 1_555 1_555
C4 C3 1_555 1_555
C5 N2 1_555 1_555
N1A C1A 1_555 1_555
N3A C4 1_555 1_555
C1A H1A 1_555 1_555
C2A C1A 1_555 1_555
H2A C2A 1_555 1_555
C3A C2A 1_555 1_555
C4A N3A 1_555 1_555
N1B C1B 1_555 1_555
N3B C4A 1_555 1_555
C1B H1B 1_555 1_555
C2B C1B 1_555 1_555
H2B C2B 1_555 1_555
C3B C2B 1_555 1_555
C4B N3 1_555 1_555
C1U N1A 1_555 1_555
H1U C1U 1_555 1_555
C2U C3A 1_555 1_555
H2U C2U 1_555 1_555
C1V N1 1_555 1_555
H1V C1V 1_555 1_555
C2V C3 1_555 1_555
H2V C2V 1_555 1_555
C1W N1B 1_555 1_555
H1W C1W 1_555 1_555
C2W C3B 1_555 1_555
H2W C2W 1_555 1_555
Ag1A C5A 1_555 1_555
Fe1A N1A 1_555 1_555
N2A Fe1A 1_555 1_555
C5A N2A 1_555 1_555
Ag1B C5B 1_555 1_555
Fe1B N1B 1_555 1_555
N2B Fe1B 1_555 1_555
C5B N2B 1_555 1_555
N2O C5O 1_555 1_555
C5O Ag1 1_555 1_555
N2P C5P 1_555 1_555
C5P Ag1B 1_555 1_555
N2Q C5Q 1_555 1_555
C5Q Ag1A 1_555 1_555
Ag1U C5U 1_555 1_555
N2U Fe1A 1_555 1_555
C5U N2U 1_555 1_555
Ag1V C5V 1_555 1_555
N2V Fe1 1_555 1_555
C5V N2V 1_555 1_555
Ag1W C5W 1_555 1_555
N2W Fe1B 1_555 1_555
C5W N2W 1_555 1_555
N2X C5X 1_555 1_555
C5X Ag1U 1_555 1_555
N2Y C5Y 1_555 1_555
C5Y Ag1W 1_555 1_555
N2Z C5Z 1_555 1_555
C5Z Ag1V 1_555 1_555
N1J Fe1 1_555 1_555
N3J C4J 1_555 1_555
C1J N1J 1_555 1_555
H1J C1J 1_555 1_555
C2J C1J 1_555 1_555
H2J C2J 1_555 1_555
C3J C2J 1_555 1_555
C4J C3J 1_555 1_555
N1K C1K 1_555 1_555
N3K C4J 1_555 1_555
C1K H1K 1_555 1_555
C2K C1K 1_555 1_555
H2K C2K 1_555 1_555
C3K C2K 1_555 1_555
C4K N3K 1_555 1_555
N1I C1I 1_555 1_555
N3I C4K 1_555 1_555
C1I H1I 1_555 1_555
C2I C1I 1_555 1_555
H2I C2I 1_555 1_555
C3I C2I 1_555 1_555
C4I N3J 1_555 1_555
C1FA N1K 1_555 1_555
H1FA C1FA 1_555 1_555
C2FA C3K 1_555 1_555
H2FA C2FA 1_555 1_555
C1DA N1J 1_555 1_555
H1DA C1DA 1_555 1_555
C2DA C3J 1_555 1_555
H2DA C2DA 1_555 1_555
C1EA N1I 1_555 1_555
H1EA C1EA 1_555 1_555
C2EA C3I 1_555 1_555
H2EA C2EA 1_555 1_555
Fe1A_2 N1I 1_555 1_555
Fe1B_2 N1K 1_555 1_555
Fe1F N2P 1_555 1_555
Fe1G N2O 1_555 1_555
Fe1H N2Q 1_555 1_555
N1I_2 Fe1A 1_555 1_555
N1K_2 Fe1B 1_555 1_555
N2I Fe1A 1_555 1_555
N2J Fe1 1_555 1_555
N2K Fe1B 1_555 1_555
N2DA Fe1 1_555 1_555
N2EA Fe1A 1_555 1_555
N2FA Fe1B 1_555 1_555
C3A C4A 1_555 1_555
N3B C4B 1_555 1_555
C3B C4B 1_555 1_555
C1U C2U 1_555 1_555
C1V C2V 1_555 1_555
C1W C2W 1_555 1_555
N2X Fe1F 1_555 1_555
N2Y Fe1G 1_555 1_555
N2Z Fe1H 1_555 1_555
C3K C4K 1_555 1_555
N3I C4I 1_555 1_555
C3I C4I 1_555 1_555
C1FA C2FA 1_555 1_555
C1DA C2DA 1_555 1_555
C1EA C2EA 1_555 1_555

#END
