
#######################################################################
#
#                 Cambridge Crystallographic Data Centre
#                                CCDC 
#
#######################################################################
#
# If this CIF has been generated from an entry in the Cambridge 
# Structural Database, then it will include bibliographic, chemical, 
# crystal, experimental, refinement or atomic coordinate data resulting 
# from the CCDC's data processing and validation procedures.
#
#######################################################################

data_FEVNOK
_symmetry_cell_setting           monoclinic
_symmetry_space_group_name_H-M   'P 21/c'
_symmetry_Int_Tables_number      14
_space_group_name_Hall           '-P 2ybc'
loop_
_symmetry_equiv_pos_site_id
_symmetry_equiv_pos_as_xyz
1 x,y,z
2 -x,1/2+y,1/2-z
3 -x,-y,-z
4 x,1/2-y,1/2+z
_cell_length_a                   4.7101(1)
_cell_length_b                   20.0289(2)
_cell_length_c                   10.7704(2)
_cell_angle_alpha                90
_cell_angle_beta                 95.472(2)
_cell_angle_gamma                90
_cell_volume                     1011.43
loop_
_atom_site_label
_atom_site_type_symbol
_atom_site_fract_x
_atom_site_fract_y
_atom_site_fract_z
Cu1 Cu 0.6890(8) 0.3364(1) 0.535(2)
O1 O 0.871(3) 0.370(1) 0.695(8)
O2 O 1.128(4) 0.314(1) 0.864(7)
O3 O 1.505(2) 0.183(1) 0.864(8)
O4 O 1.114(4) 0.163(1) 0.973(6)
N1 N 0.780(2) 0.2437(8) 0.596(4)
N2 N 0.975(4) 0.129(1) 0.71(1)
N3 N 0.611(2) 0.4368(8) 0.507(3)
C1 C 0.941(4) 0.245(1) 0.70(1)
C2 C 1.043(6) 0.187(3) 0.76(1)
C3 C 0.812(4) 0.128(2) 0.60(1)
C4 C 0.711(5) 0.1846(8) 0.541(6)
C5 C 0.993(6) 0.315(2) 0.76(1)
C6 C 1.216(3) 0.180(1) 0.88(1)
C7 C 0.433(4) 0.457(1) 0.584(9)
C8 C 0.686(5) 0.479(1) 0.423(5)
H1 H 0.76534 0.08462 0.56865
H2 H 0.59639 0.18320 0.46365
H3 H 0.38871 0.42504 0.64473
H4 H 0.82002 0.46455 0.36802
Cu1C Cu -0.3110(8) 0.1636(1) 0.035(2)
Cu1C_2 Cu 1.6890(8) 0.1636(1) 1.035(2)
Cu1C_3 Cu 0.6890(8) 0.1636(1) 1.035(2)
Cu1B Cu 0.3110(8) 0.6636(1) 0.465(2)
Cu1_2 Cu -0.3110(8) 0.3364(1) 0.535(2)
O1C O -0.129(3) 0.130(1) 0.195(8)
O2C O 0.128(4) 0.186(1) 0.364(7)
O3C O 0.505(2) 0.317(1) 0.364(8)
O3_2 O -0.495(2) 0.183(1) -0.136(8)
O4C O 0.114(4) 0.337(1) 0.473(6)
O4C_2 O 1.114(4) 0.337(1) 0.473(6)
O4_2 O 0.114(4) 0.163(1) -0.027(6)
N1C N -0.220(2) 0.2563(8) 0.096(4)
N2C N -0.025(4) 0.371(1) 0.21(1)
N3B N 0.389(2) 0.5632(8) 0.493(3)
N3C N -0.389(2) 0.0632(8) 0.007(3)
C1C C -0.059(4) 0.255(1) 0.20(1)
C2C C 0.043(6) 0.313(3) 0.26(1)
C3C C -0.188(4) 0.372(2) 0.10(1)
C4C C -0.289(5) 0.3154(8) 0.041(6)
C5C C -0.007(6) 0.185(2) 0.26(1)
C6C C 0.216(3) 0.320(1) 0.38(1)
C7B C 0.567(4) 0.543(1) 0.416(9)
C8B C 0.314(5) 0.521(1) 0.577(5)
H1C H -0.23466 0.41538 0.06865
H2C H -0.40361 0.31680 -0.03635
H3B H 0.61129 0.57496 0.35527
H4B H 0.17998 0.53545 0.63198
H5 H 0.273(8) 0.553(2) 0.117(4)
H6 H 0.373(8) 0.577(2) 0.150(4)
loop_
_geom_bond_atom_site_label_1
_geom_bond_atom_site_label_2
_geom_bond_site_symmetry_1
_geom_bond_site_symmetry_2
Cu1 O1 1_555 1_555
O1 C5 1_555 1_555
O2 C5 1_555 1_555
O3 C6 1_555 1_555
O4 C6 1_555 1_555
N1 Cu1 1_555 1_555
N2 C2 1_555 1_555
N3 Cu1 1_555 1_555
C1 N1 1_555 1_555
C2 C1 1_555 1_555
C3 N2 1_555 1_555
C4 N1 1_555 1_555
C5 C1 1_555 1_555
C6 C2 1_555 1_555
C7 N3 1_555 1_555
C8 N3 1_555 1_555
H1 C3 1_555 1_555
H2 C4 1_555 1_555
H3 C7 1_555 1_555
H4 C8 1_555 1_555
H5 H6 1_555 1_555
Cu1C O1C 1_555 1_555
Cu1C_2 O3 1_555 1_555
Cu1C_3 O4 1_555 1_555
Cu1B N3B 1_555 1_555
Cu1_2 O4C 1_555 1_555
O1C C5C 1_555 1_555
O2C C5C 1_555 1_555
O3C Cu1 1_555 1_555
O3_2 Cu1C 1_555 1_555
O4C C6C 1_555 1_555
O4C_2 Cu1 1_555 1_555
O4_2 Cu1C 1_555 1_555
N1C Cu1C 1_555 1_555
N2C C2C 1_555 1_555
N3B C7B 1_555 1_555
N3C Cu1C 1_555 1_555
C1C N1C 1_555 1_555
C2C C1C 1_555 1_555
C3C N2C 1_555 1_555
C4C N1C 1_555 1_555
C5C C1C 1_555 1_555
C6C O3C 1_555 1_555
C7B C8 1_555 1_555
C8B C7 1_555 1_555
H1C C3C 1_555 1_555
H2C C4C 1_555 1_555
H3B C7B 1_555 1_555
H4B C8B 1_555 1_555
C3 C4 1_555 1_555
N3B C8B 1_555 1_555
C2C C6C 1_555 1_555
C3C C4C 1_555 1_555

#END
