
#######################################################################
#
#                 Cambridge Crystallographic Data Centre
#                                CCDC 
#
#######################################################################
#
# If this CIF has been generated from an entry in the Cambridge 
# Structural Database, then it will include bibliographic, chemical, 
# crystal, experimental, refinement or atomic coordinate data resulting 
# from the CCDC's data processing and validation procedures.
#
#######################################################################

data_FEWQOP
_symmetry_cell_setting           rhombohedral
_symmetry_space_group_name_H-M   'R -3'
_symmetry_Int_Tables_number      148
_space_group_name_Hall           '-R 3'
loop_
_symmetry_equiv_pos_site_id
_symmetry_equiv_pos_as_xyz
1 x,y,z
2 -y,x-y,z
3 -x+y,-x,z
4 2/3+x,1/3+y,1/3+z
5 2/3-y,1/3+x-y,1/3+z
6 2/3-x+y,1/3-x,1/3+z
7 1/3+x,2/3+y,2/3+z
8 1/3-y,2/3+x-y,2/3+z
9 1/3-x+y,2/3-x,2/3+z
10 -x,-y,-z
11 y,-x+y,-z
12 x-y,x,-z
13 1/3-x,2/3-y,2/3-z
14 1/3+y,2/3-x+y,2/3-z
15 1/3+x-y,2/3+x,2/3-z
16 2/3-x,1/3-y,1/3-z
17 2/3+y,1/3-x+y,1/3-z
18 2/3+x-y,1/3+x,1/3-z
_cell_length_a                   27.521(3)
_cell_length_b                   27.521(3)
_cell_length_c                   6.9997(5)
_cell_angle_alpha                90
_cell_angle_beta                 90
_cell_angle_gamma                120
_cell_volume                     4591.33
loop_
_atom_site_label
_atom_site_type_symbol
_atom_site_fract_x
_atom_site_fract_y
_atom_site_fract_z
Cu1 Cu 0.8333 0.6667 0.1667
Gd1 Gd 0.73984(2) 0.41340(2) 0.04857(7)
C1 C 0.7722(5) 0.5553(4) 0.2708(16)
N1 N 0.7859(5) 0.6056(4) 0.3436(15)
O1 O 0.6667 0.3333 -0.1667
C2 C 0.7681(6) 0.6098(6) 0.517(2)
H1 H 0.7779 0.6448 0.5673
C3 C 0.7959(5) 0.5580(4) 0.0753(17)
N2 N 0.7209(4) 0.5118(3) 0.5523(12)
O2 O 0.7250(3) 0.4562(3) 0.3259(10)
C4 C 0.7350(6) 0.5616(5) 0.6201(17)
H2 H 0.7224 0.5645 0.7405
C5 C 0.7394(5) 0.5058(4) 0.3793(15)
O3 O 0.7848(3) 0.5141(3) -0.0085(10)
O4 O 0.8257(4) 0.6062(3) 0.0042(13)
O5 O 0.6667 0.3333 0.158(2)
O6 O 0.6604(3) 0.4192(3) -0.0507(10)
O7 O 0.7396(12) 0.6593(11) 0.010(3)
Cu1A Cu 0.3333 0.1666 0.1667
Gd1A Gd 0.58660(2) 0.32644(3) 0.04857(7)
C1A C 0.4447(4) 0.2169(6) 0.2708(16)
N1A N 0.3944(4) 0.1803(6) 0.3436(15)
C2A C 0.3902(6) 0.1583(8) 0.517(2)
H1A H 0.3552 0.1331 0.5673
C3A C 0.4420(4) 0.2379(6) 0.0753(17)
N2A N 0.4882(3) 0.2091(5) 0.5523(12)
O2A O 0.5438(3) 0.2688(4) 0.3259(10)
C4A C 0.4384(5) 0.1734(8) 0.6201(17)
H2A H 0.4355 0.1579 0.7405
C5A C 0.4942(4) 0.2336(6) 0.3793(15)
O3A O 0.4859(3) 0.2707(4) -0.0085(10)
O4A O 0.3938(3) 0.2195(5) 0.0042(13)
O6A O 0.5808(3) 0.2412(4) -0.0507(10)
O7A O 0.3407(11) 0.0803(16) 0.010(3)
Cu1B Cu 0.8334 0.1667 0.1667
Gd1B Gd 0.67356(3) 0.26016(2) 0.04857(7)
C1B C 0.7831(6) 0.2278(5) 0.2708(16)
N1B N 0.8197(6) 0.2141(5) 0.3436(15)
C2B C 0.8417(8) 0.2319(6) 0.517(2)
H1B H 0.8669 0.2221 0.5673
C3B C 0.7621(6) 0.2041(5) 0.0753(17)
N2B N 0.7909(5) 0.2791(4) 0.5523(12)
O2B O 0.7312(4) 0.2750(3) 0.3259(10)
C4B C 0.8266(8) 0.2650(6) 0.6201(17)
H2B H 0.8421 0.2776 0.7405
C5B C 0.7664(6) 0.2606(5) 0.3793(15)
O3B O 0.7293(4) 0.2152(3) -0.0085(10)
O4B O 0.7805(5) 0.1743(4) 0.0042(13)
O6B O 0.7588(4) 0.3396(3) -0.0507(10)
O7B O 0.9197(16) 0.2604(12) 0.010(3)
Gd1O Gd 0.92683(2) 0.91993(2) 0.28476(7)
C1O C 0.8945(5) 0.7780(4) 0.0625(16)
N1O N 0.8808(5) 0.7277(4) -0.0103(15)
C2O C 0.8986(6) 0.7235(6) -0.184(2)
H1O H 0.8888 0.6885 -0.2340
C3O C 0.8708(5) 0.7753(4) 0.2580(17)
N2O N 0.9458(4) 0.8215(3) -0.2190(12)
O2O O 0.9417(3) 0.8771(3) 0.0074(10)
C4O C 0.9317(6) 0.7717(5) -0.2868(17)
H2O H 0.9443 0.7688 -0.4072
C5O C 0.9273(5) 0.8275(4) -0.0460(15)
O3O O 0.8819(3) 0.8192(3) 0.3418(10)
O4O O 0.8410(4) 0.7271(3) 0.3291(13)
O5O O 1.0000 1.0000 0.175(2)
O6O O 1.0063(3) 0.9141(3) 0.3840(10)
O7O O 0.9271(12) 0.6740(11) 0.323(3)
Gd1P Gd 0.08007(2) 0.00689(3) 0.28476(7)
C1P C 0.2220(4) 0.1164(6) 0.0625(16)
N1P N 0.2723(4) 0.1530(6) -0.0103(15)
C2P C 0.2765(6) 0.1750(8) -0.184(2)
H1P H 0.3115 0.2002 -0.2340
C3P C 0.2247(4) 0.0954(6) 0.2580(17)
N2P N 0.1785(3) 0.1242(5) -0.2190(12)
O2P O 0.1229(3) 0.0645(4) 0.0074(10)
C4P C 0.2283(5) 0.1599(8) -0.2868(17)
H2P H 0.2312 0.1754 -0.4072
C5P C 0.1725(4) 0.0997(6) -0.0460(15)
O3P O 0.1808(3) 0.0626(4) 0.3418(10)
O4P O 0.2729(3) 0.1138(5) 0.3291(13)
O6P O 0.0859(3) 0.0921(4) 0.3840(10)
O7P O 0.3260(11) 0.2530(16) 0.323(3)
Gd1Q Gd 0.99311(3) 0.07317(2) 0.28476(7)
C1Q C 0.8836(6) 0.1055(5) 0.0625(16)
N1Q N 0.8470(6) 0.1192(5) -0.0103(15)
C2Q C 0.8250(8) 0.1014(6) -0.184(2)
H1Q H 0.7998 0.1112 -0.2340
C3Q C 0.9046(6) 0.1292(5) 0.2580(17)
N2Q N 0.8758(5) 0.0542(4) -0.2190(12)
O2Q O 0.9355(4) 0.0583(3) 0.0074(10)
C4Q C 0.8401(8) 0.0683(6) -0.2868(17)
H2Q H 0.8246 0.0557 -0.4072
C5Q C 0.9003(6) 0.0727(5) -0.0460(15)
O3Q O 0.9374(4) 0.1181(3) 0.3418(10)
O4Q O 0.8862(5) 0.1590(4) 0.3291(13)
O6Q O 0.9079(4) -0.0063(3) 0.3840(10)
O7Q O 0.7470(16) 0.0729(12) 0.323(3)
Gd1F Gd 0.07317(2) 0.08007(2) -0.28476(7)
Gd1F_2 Gd 0.07317(2) 0.08007(2) 0.71524(7)
Gd1G Gd 0.91993(2) -0.00689(3) -0.28476(7)
Gd1G_2 Gd 0.91993(2) -0.00689(3) 0.71524(7)
Gd1H Gd 1.00689(3) 0.92683(2) -0.28476(7)
Gd1H_2 Gd 1.00689(3) 0.92683(2) 0.71524(7)
Gd1O_2 Gd 0.92683(2) -0.08007(2) 0.28476(7)
Gd1P_2 Gd 1.08007(2) 1.00689(3) 0.28476(7)
Gd1Q_2 Gd -0.00689(3) 0.07317(2) 0.28476(7)
Gd1Q_3 Gd 0.99311(3) 1.07317(2) 0.28476(7)
Gd1L Gd 0.59349(2) 0.25327(2) -0.38190(7)
Gd1L_2 Gd 0.59349(2) 0.25327(2) 0.61810(7)
Gd1M Gd 0.74673(2) 0.34023(3) -0.38190(7)
Gd1M_2 Gd 0.74673(2) 0.34023(3) 0.61810(7)
Gd1N Gd 0.65977(3) 0.40651(2) -0.38190(7)
Gd1N_2 Gd 0.65977(3) 0.40651(2) 0.61810(7)
O1F O 0.0000 -0.0000 0.5000
O1F_2 O 1.0000 -0.0000 0.5000
O1F_3 O 1.0000 1.0000 0.5000
N2F N 1.0542(4) 0.1785(3) 0.2190(12)
N2G N 0.8215(3) 0.8758(5) 0.2190(12)
N2H N 0.1242(5) -0.0542(4) 0.2190(12)
N2L N 0.6124(4) 0.1549(3) 0.1144(12)
N2M N 0.8451(3) 0.4576(5) 0.1144(12)
N2N N 0.5424(5) 0.3876(4) 0.1144(12)
O2F O 1.0583(3) 0.1229(3) -0.0074(10)
O2G O 0.8771(3) 0.9355(4) -0.0074(10)
O2H O 0.0645(4) -0.0583(3) -0.0074(10)
O2L O 0.6083(3) 0.2105(3) 0.3408(10)
O2M O 0.7895(3) 0.3979(4) 0.3408(10)
O2N O 0.6021(4) 0.3917(3) 0.3408(10)
O5O_2 O -0.0000 0.0000 0.175(2)
O5O_3 O 1.0000 0.0000 0.175(2)
O6F O 0.9937(3) 0.0859(3) 0.6160(10)
O6G O 0.9141(3) 0.9079(4) 0.6160(10)
O6H O 0.0921(4) 0.0063(3) 0.6160(10)
O6O_2 O 0.0063(3) -0.0859(3) 0.3840(10)
O6P_2 O 1.0859(3) 0.0921(4) 0.3840(10)
O6Q_2 O 0.9079(4) 0.9937(3) 0.3840(10)
O6L O 0.6729(3) 0.2475(3) -0.2826(10)
O6M O 0.7525(3) 0.4255(4) -0.2826(10)
O6N O 0.5745(4) 0.3271(3) -0.2826(10)
O8 O 0.8522(5) 0.5390(6) 0.6406(17)
H3 H 0.8753 0.5737 0.6237
loop_
_geom_bond_atom_site_label_1
_geom_bond_atom_site_label_2
_geom_bond_site_symmetry_1
_geom_bond_site_symmetry_2
Cu1 N1 1_555 1_555
Gd1 O1 1_555 1_555
C1 N1 1_555 1_555
N1 C2 1_555 1_555
O1 Gd1A 1_555 1_555
C2 H1 1_555 1_555
C3 C1 1_555 1_555
N2 C4 1_555 1_555
O2 Gd1 1_555 1_555
C4 C2 1_555 1_555
H2 C4 1_555 1_555
C5 C1 1_555 1_555
O3 Gd1 1_555 1_555
O4 Cu1 1_555 1_555
O5 Gd1 1_555 1_555
O6 Gd1 1_555 1_555
O7 Cu1 1_555 1_555
O8 H3 1_555 1_555
Cu1A N1A 1_555 1_555
Gd1A O5 1_555 1_555
C1A N1A 1_555 1_555
N1A C2A 1_555 1_555
C2A H1A 1_555 1_555
C3A C1A 1_555 1_555
N2A C4A 1_555 1_555
O2A Gd1A 1_555 1_555
C4A C2A 1_555 1_555
H2A C4A 1_555 1_555
C5A C1A 1_555 1_555
O3A Gd1A 1_555 1_555
O4A Cu1A 1_555 1_555
O6A Gd1A 1_555 1_555
O7A Cu1A 1_555 1_555
Cu1B N1B 1_555 1_555
Gd1B O1 1_555 1_555
C1B N1B 1_555 1_555
N1B C2B 1_555 1_555
C2B H1B 1_555 1_555
C3B C1B 1_555 1_555
N2B C4B 1_555 1_555
O2B Gd1B 1_555 1_555
C4B C2B 1_555 1_555
H2B C4B 1_555 1_555
C5B C1B 1_555 1_555
O3B Gd1B 1_555 1_555
O4B Cu1B 1_555 1_555
O6B Gd1 1_555 1_555
O7B Cu1B 1_555 1_555
Gd1O O2O 1_555 1_555
C1O N1O 1_555 1_555
N1O Cu1 1_555 1_555
C2O N1O 1_555 1_555
H1O C2O 1_555 1_555
C3O C1O 1_555 1_555
N2O C4O 1_555 1_555
O2O C5O 1_555 1_555
C4O C2O 1_555 1_555
H2O C4O 1_555 1_555
C5O C1O 1_555 1_555
O3O Gd1O 1_555 1_555
O4O Cu1 1_555 1_555
O5O Gd1O 1_555 1_555
O6O Gd1O 1_555 1_555
O7O Cu1 1_555 1_555
Gd1P O2P 1_555 1_555
C1P N1P 1_555 1_555
N1P Cu1A 1_555 1_555
C2P N1P 1_555 1_555
H1P C2P 1_555 1_555
C3P C1P 1_555 1_555
N2P C4P 1_555 1_555
O2P C5P 1_555 1_555
C4P C2P 1_555 1_555
H2P C4P 1_555 1_555
C5P C1P 1_555 1_555
O3P Gd1P 1_555 1_555
O4P Cu1A 1_555 1_555
O6P Gd1P 1_555 1_555
O7P Cu1A 1_555 1_555
Gd1Q O2Q 1_555 1_555
C1Q N1Q 1_555 1_555
N1Q Cu1B 1_555 1_555
C2Q N1Q 1_555 1_555
H1Q C2Q 1_555 1_555
C3Q C1Q 1_555 1_555
N2Q C4Q 1_555 1_555
O2Q C5Q 1_555 1_555
C4Q C2Q 1_555 1_555
H2Q C4Q 1_555 1_555
C5Q C1Q 1_555 1_555
O3Q Gd1Q 1_555 1_555
O4Q Cu1B 1_555 1_555
O6Q Gd1Q 1_555 1_555
O7Q Cu1B 1_555 1_555
Gd1F N2P 1_555 1_555
Gd1F_2 O6P 1_555 1_555
Gd1G N2Q 1_555 1_555
Gd1G_2 O6Q 1_555 1_555
Gd1H N2O 1_555 1_555
Gd1H_2 O6O 1_555 1_555
Gd1O_2 O6Q 1_555 1_555
Gd1P_2 O5O 1_555 1_555
Gd1Q_2 O6P 1_555 1_555
Gd1Q_3 O5O 1_555 1_555
Gd1L O1 1_555 1_555
Gd1L_2 N2A 1_555 1_555
Gd1M O1 1_555 1_555
Gd1M_2 N2B 1_555 1_555
Gd1N O1 1_555 1_555
Gd1N_2 N2 1_555 1_555
O1F Gd1P 1_555 1_555
O1F_2 Gd1Q 1_555 1_555
O1F_3 Gd1O 1_555 1_555
N2F Gd1Q 1_555 1_555
N2G Gd1O 1_555 1_555
N2H Gd1P 1_555 1_555
N2L Gd1B 1_555 1_555
N2M Gd1 1_555 1_555
N2N Gd1A 1_555 1_555
O2F Gd1Q 1_555 1_555
O2G Gd1O 1_555 1_555
O2H Gd1P 1_555 1_555
O2L Gd1B 1_555 1_555
O2M Gd1 1_555 1_555
O2N Gd1A 1_555 1_555
O5O_2 Gd1P 1_555 1_555
O5O_3 Gd1Q 1_555 1_555
O6F Gd1Q 1_555 1_555
O6G Gd1O 1_555 1_555
O6H Gd1P 1_555 1_555
O6O_2 Gd1P 1_555 1_555
O6P_2 Gd1Q 1_555 1_555
O6Q_2 Gd1O 1_555 1_555
O6L Gd1B 1_555 1_555
O6M Gd1 1_555 1_555
O6N Gd1A 1_555 1_555
C3 O3 1_555 1_555
C3 O4 1_555 1_555
N2 C5 1_555 1_555
O2 C5 1_555 1_555
O2 Gd1N_2 1_555 1_555
O5 Gd1B 1_555 1_555
O6 Gd1A 1_555 1_555
O6 Gd1N 1_555 1_555
C3A O3A 1_555 1_555
C3A O4A 1_555 1_555
N2A C5A 1_555 1_555
O2A C5A 1_555 1_555
O2A Gd1L_2 1_555 1_555
O6A Gd1B 1_555 1_555
O6A Gd1L 1_555 1_555
Gd1B O6B 1_555 1_555
C3B O3B 1_555 1_555
C3B O4B 1_555 1_555
N2B C5B 1_555 1_555
O2B C5B 1_555 1_555
O2B Gd1M_2 1_555 1_555
O6B Gd1M 1_555 1_555
C3O O3O 1_555 1_555
C3O O4O 1_555 1_555
N2O C5O 1_555 1_555
O2O Gd1H 1_555 1_555
O6O Gd1P_2 1_555 1_555
C3P O3P 1_555 1_555
C3P O4P 1_555 1_555
N2P C5P 1_555 1_555
O2P Gd1F 1_555 1_555
C3Q O3Q 1_555 1_555
C3Q O4Q 1_555 1_555
N2Q C5Q 1_555 1_555
O2Q Gd1G 1_555 1_555
Gd1F_2 O1F 1_555 1_555
Gd1F_2 O6H 1_555 1_555
Gd1G_2 O1F_2 1_555 1_555
Gd1G_2 O6F 1_555 1_555
Gd1H_2 O1F_3 1_555 1_555
Gd1H_2 O6G 1_555 1_555
Gd1O_2 O1F_2 1_555 1_555
Gd1O_2 O5O_3 1_555 1_555
Gd1P_2 O1F_3 1_555 1_555
Gd1Q_2 O1F 1_555 1_555
Gd1Q_2 O5O_2 1_555 1_555
Gd1Q_3 O1F_3 1_555 1_555
Gd1Q_3 O6Q_2 1_555 1_555
Gd1L O6L 1_555 1_555
Gd1L O6N 1_555 1_555
Gd1L_2 O2L 1_555 1_555
Gd1M O6L 1_555 1_555
Gd1M O6M 1_555 1_555
Gd1M_2 O2M 1_555 1_555
Gd1N O6M 1_555 1_555
Gd1N O6N 1_555 1_555
Gd1N_2 O2N 1_555 1_555

#END
