
#######################################################################
#
#                 Cambridge Crystallographic Data Centre
#                                CCDC 
#
#######################################################################
#
# If this CIF has been generated from an entry in the Cambridge 
# Structural Database, then it will include bibliographic, chemical, 
# crystal, experimental, refinement or atomic coordinate data resulting 
# from the CCDC's data processing and validation procedures.
#
#######################################################################

data_FEXHOG01
_symmetry_cell_setting           monoclinic
_symmetry_space_group_name_H-M   'P 21/c'
_symmetry_Int_Tables_number      14
_space_group_name_Hall           '-P 2ybc'
loop_
_symmetry_equiv_pos_site_id
_symmetry_equiv_pos_as_xyz
1 x,y,z
2 -x,1/2+y,1/2-z
3 -x,-y,-z
4 x,1/2-y,1/2+z
_cell_length_a                   4.73310(16)
_cell_length_b                   19.9244(4)
_cell_length_c                   10.8678(3)
_cell_angle_alpha                90
_cell_angle_beta                 96.009(4)
_cell_angle_gamma                90
_cell_volume                     1019.25
loop_
_atom_site_label
_atom_site_type_symbol
_atom_site_fract_x
_atom_site_fract_y
_atom_site_fract_z
Cu1 Cu 0.7032(7) 0.33690(7) 0.5379(3)
O1 O 0.880(2) 0.3590(2) 0.7029(9)
O2 O 1.165(2) 0.3183(4) 0.8574(8)
O3 O 1.516(1) 0.1891(6) 0.8656(8)
O4 O 1.150(2) 0.1697(6) 0.9682(5)
N1 N 0.778(2) 0.2437(1) 0.600(1)
N2 N 1.003(3) 0.1268(3) 0.697(1)
N3 N 0.575(2) 0.4337(2) 0.5091(7)
C1 C 0.953(4) 0.2434(3) 0.705(1)
C2 C 1.069(4) 0.1845(3) 0.753(1)
C3 C 0.826(4) 0.1273(2) 0.594(2)
C4 C 0.710(4) 0.1853(2) 0.542(1)
C5 C 1.001(3) 0.3128(3) 0.764(1)
C6 C 1.259(1) 0.1761(5) 0.871(1)
C7 C 0.453(4) 0.4634(4) 0.596(1)
C8 C 0.628(4) 0.4695(3) 0.412(1)
H1 H 0.77522 0.08467 0.55233
H2 H 0.57906 0.18520 0.46890
H3 H 0.41881 0.43994 0.66965
H4 H 0.72052 0.44978 0.34854
Cu1C Cu -0.2968(7) 0.16310(7) 0.0379(3)
Cu1C_2 Cu 1.7032(7) 0.16310(7) 1.0379(3)
Cu1C_3 Cu 0.7032(7) 0.16310(7) 1.0379(3)
Cu1B Cu 0.2968(7) 0.66310(7) 0.4621(3)
Cu1_2 Cu -0.2968(7) 0.33690(7) 0.5379(3)
O1C O -0.120(2) 0.1410(2) 0.2029(9)
O2C O 0.165(2) 0.1817(4) 0.3574(8)
O3C O 0.516(1) 0.3109(6) 0.3656(8)
O3_2 O -0.484(1) 0.1891(6) -0.1344(8)
O4C O 0.150(2) 0.3303(6) 0.4682(5)
O4C_2 O 1.150(2) 0.3303(6) 0.4682(5)
O4_2 O 0.150(2) 0.1697(6) -0.0318(5)
N1C N -0.222(2) 0.2563(1) 0.100(1)
N2C N 0.003(3) 0.3732(3) 0.197(1)
N3B N 0.425(2) 0.5663(2) 0.4909(7)
N3C N -0.425(2) 0.0663(2) 0.0091(7)
C1C C -0.047(4) 0.2566(3) 0.205(1)
C2C C 0.069(4) 0.3155(3) 0.253(1)
C3C C -0.174(4) 0.3727(2) 0.094(2)
C4C C -0.290(4) 0.3147(2) 0.042(1)
C5C C 0.001(3) 0.1872(3) 0.264(1)
C6C C 0.259(1) 0.3239(5) 0.371(1)
C7B C 0.547(4) 0.5366(4) 0.404(1)
C8B C 0.372(4) 0.5305(3) 0.588(1)
H1C H -0.22478 0.41533 0.05233
H2C H -0.42094 0.31480 -0.03110
H3B H 0.58119 0.56006 0.33035
H4B H 0.27948 0.55022 0.65146
loop_
_geom_bond_atom_site_label_1
_geom_bond_atom_site_label_2
_geom_bond_site_symmetry_1
_geom_bond_site_symmetry_2
Cu1 O1 1_555 1_555
O1 C5 1_555 1_555
O2 C5 1_555 1_555
O3 C6 1_555 1_555
O4 C6 1_555 1_555
N1 Cu1 1_555 1_555
N2 C2 1_555 1_555
N3 Cu1 1_555 1_555
C1 N1 1_555 1_555
C2 C1 1_555 1_555
C3 N2 1_555 1_555
C4 N1 1_555 1_555
C5 C1 1_555 1_555
C6 C2 1_555 1_555
C7 N3 1_555 1_555
C8 N3 1_555 1_555
H1 C3 1_555 1_555
H2 C4 1_555 1_555
H3 C7 1_555 1_555
H4 C8 1_555 1_555
Cu1C O1C 1_555 1_555
Cu1C_2 O3 1_555 1_555
Cu1C_3 O4 1_555 1_555
Cu1B N3B 1_555 1_555
Cu1_2 O4C 1_555 1_555
O1C C5C 1_555 1_555
O2C C5C 1_555 1_555
O3C Cu1 1_555 1_555
O3_2 Cu1C 1_555 1_555
O4C C6C 1_555 1_555
O4C_2 Cu1 1_555 1_555
O4_2 Cu1C 1_555 1_555
N1C Cu1C 1_555 1_555
N2C C2C 1_555 1_555
N3B C7B 1_555 1_555
N3C Cu1C 1_555 1_555
C1C N1C 1_555 1_555
C2C C1C 1_555 1_555
C3C N2C 1_555 1_555
C4C N1C 1_555 1_555
C5C C1C 1_555 1_555
C6C O3C 1_555 1_555
C7B C8 1_555 1_555
C8B C7 1_555 1_555
H1C C3C 1_555 1_555
H2C C4C 1_555 1_555
H3B C7B 1_555 1_555
H4B C8B 1_555 1_555
C3 C4 1_555 1_555
N3B C8B 1_555 1_555
C2C C6C 1_555 1_555
C3C C4C 1_555 1_555

#END
