
#######################################################################
#
#                 Cambridge Crystallographic Data Centre
#                                CCDC 
#
#######################################################################
#
# If this CIF has been generated from an entry in the Cambridge 
# Structural Database, then it will include bibliographic, chemical, 
# crystal, experimental, refinement or atomic coordinate data resulting 
# from the CCDC's data processing and validation procedures.
#
#######################################################################

data_FEZDOF
_symmetry_cell_setting           monoclinic
_symmetry_space_group_name_H-M   'P 2/n'
_symmetry_Int_Tables_number      13
_space_group_name_Hall           '-P 2yac'
loop_
_symmetry_equiv_pos_site_id
_symmetry_equiv_pos_as_xyz
1 x,y,z
2 1/2-x,y,1/2-z
3 -x,-y,-z
4 1/2+x,-y,1/2+z
_cell_length_a                   10.230(14)
_cell_length_b                   11.580(15)
_cell_length_c                   17.68(2)
_cell_angle_alpha                90
_cell_angle_beta                 98.09(2)
_cell_angle_gamma                90
_cell_volume                     2073.59
loop_
_atom_site_label
_atom_site_type_symbol
_atom_site_fract_x
_atom_site_fract_y
_atom_site_fract_z
C1 C -0.0847(13) 0.8980(10) 0.7534(5)
H1 H -0.0904 0.9383 0.7069
C2 C -0.0897(14) 0.7780(10) 0.7535(5)
H2 H -0.0989 0.7373 0.7070
C3 C -0.0812(13) 0.7183(7) 0.8222(7)
C4 C -0.0676(12) 0.7786(9) 0.8908(5)
H3 H -0.0618 0.7382 0.9373
C5 C -0.0626(12) 0.8985(9) 0.8907(5)
H4 H -0.0534 0.9393 0.9372
N1 N -0.0711(11) 0.9582(7) 0.8220(6)
N2 N -0.0841(10) 0.3406(7) 0.8262(6)
C6 C -0.1276(12) 0.4010(10) 0.8858(6)
H5 H -0.1559 0.3606 0.9267
C7 C -0.1293(13) 0.5210(9) 0.8850(6)
H6 H -0.1588 0.5618 0.9254
C8 C -0.0875(12) 0.5807(7) 0.8246(7)
C9 C -0.0440(12) 0.5203(9) 0.7649(6)
H7 H -0.0157 0.5607 0.7240
C10 C -0.0423(11) 0.4003(9) 0.7657(6)
H8 H -0.0129 0.3595 0.7253
Fe1 Fe -0.0659(2) 0.1492(2) 0.82785(14)
O1 O 0.0758(10) 0.1471(11) 0.9328(6)
C11 C 0.3156(17) 0.1545(16) 0.9253(11)
O2 O 0.1428(11) 0.1606(11) 0.8190(7)
C12 C 0.3509(19) 0.1502(18) 1.0056(11)
H9 H 0.2848 0.1494 1.0376
C13 C 0.4152(17) 0.1548(15) 0.8748(9)
H10 H 0.3915 0.1591 0.8215
C14 C 0.1717(16) 0.1533(16) 0.8895(11)
O3 O 0.6213(12) 0.1542(10) 0.7836(7)
C15 C 0.6572(15) 0.1516(13) 0.8584(10)
C16 C 0.5842(19) 0.1483(16) 0.9902(10)
H11 H 0.6739 0.1490 1.0112
C17 C 0.5476(14) 0.1485(14) 0.9073(11)
C18 C 0.488(2) 0.147(2) 1.0384(13)
H12 H 0.5117 0.1441 1.0917
O4 O 0.7764(11) 0.1432(10) 0.8891(6)
N1_2 N -0.0711(11) -0.0418(7) 0.8220(6)
Fe1_2 Fe -0.0659(2) 1.1492(2) 0.82785(14)
Fe1_3 Fe 0.9341(2) 0.1492(2) 0.82785(14)
Fe1A Fe 0.5659(2) 0.1492(2) 0.67215(14)
O3A O -0.1213(12) 0.1542(10) 0.7164(7)
O4_2 O -0.2236(11) 0.1432(10) 0.8891(6)
I1 I 0.7612(3) 0.3034(3) 0.31164(19)
I1A I 0.7388(3) 0.3034(3) 0.18836(19)
I2? I 0.7500 0.0896(8) 0.2500
I3? I 0.763(2) 0.5381(18) 0.400(2)
I4? I 0.7552(16) 0.476(2) 0.4008(13)
I5? I 0.998(3) 0.4562(19) 0.5013(16)
I6? I 0.7503(17) 0.5212(16) 0.3893(14)
I7? I 0.752(2) 0.0959(7) 0.2304(14)
I8? I 1.0000 0.5000 0.5000
loop_
_geom_bond_atom_site_label_1
_geom_bond_atom_site_label_2
_geom_bond_site_symmetry_1
_geom_bond_site_symmetry_2
C1 H1 1_555 1_555
C2 C1 1_555 1_555
H2 C2 1_555 1_555
C3 C2 1_555 1_555
C4 C3 1_555 1_555
H3 C4 1_555 1_555
C5 C4 1_555 1_555
H4 C5 1_555 1_555
N1 C1 1_555 1_555
N2 C6 1_555 1_555
C6 H5 1_555 1_555
C7 C6 1_555 1_555
H6 C7 1_555 1_555
C8 C3 1_555 1_555
C9 C8 1_555 1_555
H7 C9 1_555 1_555
C10 N2 1_555 1_555
H8 C10 1_555 1_555
Fe1 N2 1_555 1_555
O1 Fe1 1_555 1_555
C11 C12 1_555 1_555
O2 Fe1 1_555 1_555
C12 H9 1_555 1_555
C13 C11 1_555 1_555
H10 C13 1_555 1_555
C14 O1 1_555 1_555
O3 C15 1_555 1_555
C15 C17 1_555 1_555
C16 H11 1_555 1_555
C17 C13 1_555 1_555
C18 C12 1_555 1_555
H12 C18 1_555 1_555
O4 C15 1_555 1_555
I1 I1A 1_555 1_555
N1_2 Fe1 1_555 1_555
Fe1_2 N1 1_555 1_555
Fe1_3 O4 1_555 1_555
Fe1A O3 1_555 1_555
O3A Fe1 1_555 1_555
O4_2 Fe1 1_555 1_555
C5 N1 1_555 1_555
C7 C8 1_555 1_555
C9 C10 1_555 1_555
C11 C14 1_555 1_555
O2 C14 1_555 1_555
C16 C17 1_555 1_555
C16 C18 1_555 1_555

#END
