
#######################################################################
#
#                 Cambridge Crystallographic Data Centre
#                                CCDC 
#
#######################################################################
#
# If this CIF has been generated from an entry in the Cambridge 
# Structural Database, then it will include bibliographic, chemical, 
# crystal, experimental, refinement or atomic coordinate data resulting 
# from the CCDC's data processing and validation procedures.
#
#######################################################################

data_FEZDIZ
_symmetry_cell_setting           monoclinic
_symmetry_space_group_name_H-M   'P c'
_symmetry_Int_Tables_number      7
_space_group_name_Hall           'P -2yc'
loop_
_symmetry_equiv_pos_site_id
_symmetry_equiv_pos_as_xyz
1 x,y,z
2 x,-y,1/2+z
_cell_length_a                   10.110(3)
_cell_length_b                   11.484(4)
_cell_length_c                   15.735(5)
_cell_angle_alpha                90
_cell_angle_beta                 105.542(4)
_cell_angle_gamma                90
_cell_volume                     1760.08
loop_
_atom_site_label
_atom_site_type_symbol
_atom_site_fract_x
_atom_site_fract_y
_atom_site_fract_z
Fe1 Fe -0.06644(8) 0.27013(8) 0.71162(6)
Fe2 Fe 0.18036(9) 0.26115(9) 0.53582(6)
O1 O -0.2793(6) 0.2781(5) 0.7028(4)
O2 O -0.8631(6) 0.2772(5) 0.7880(4)
O3 O -0.7850(8) 0.2502(5) 0.6700(4)
C1 C -0.7688(8) 0.2765(6) 0.7519(6)
C2 C -0.1846(9) 0.6409(8) 0.6468(5)
H1 H -0.2610 0.6778 0.6107
N1 N -0.0731(10) 1.0775(5) 0.7133(7)
C3 C 0.1993(9) -0.1741(7) 0.5432(6)
C4 C -0.5192(9) 0.2890(8) 0.7650(5)
H2 H -0.5345 0.2655 0.7066
O4 O -0.1440(6) 0.2917(7) 0.8353(4)
C5 C -0.1773(10) 0.5210(8) 0.6461(6)
H3 H -0.2466 0.4795 0.6070
C6 C -0.6226(7) 0.3016(8) 0.8013(5)
N2 N -0.0715(8) 0.4614(5) 0.7009(5)
C7 C 0.0266(9) 0.6452(7) 0.7514(6)
H4 H 0.1001 0.6862 0.7871
C8 C 0.0309(10) 0.5245(7) 0.7528(7)
H5 H 0.1056 0.4867 0.7901
N3 N 0.1866(8) -0.5487(5) 0.5457(5)
C9 C 0.1935(9) -0.3028(7) 0.5482(6)
N4 N 0.1888(7) 0.0713(6) 0.5343(5)
C10 C 0.1051(8) -0.1158(7) 0.4753(5)
H6 H 0.0433 -0.1583 0.4320
C11 C 0.0799(10) -0.4838(8) 0.5033(7)
H7 H 0.0012 -0.5231 0.4726
C12 C -0.0822(10) 0.7069(7) 0.6994(6)
C13 C -0.2630(8) 0.2933(8) 0.7822(5)
C14 C -0.5986(9) 0.3391(10) 0.8895(6)
H8 H -0.6741 0.3478 0.9121
C15 C -0.0770(10) 0.8357(6) 0.7061(6)
C16 C 0.0756(10) -0.3640(8) 0.5006(7)
H9 H -0.0022 -0.3246 0.4686
C17 C -0.3842(8) 0.3125(7) 0.8181(5)
C18 C -0.3718(9) 0.3511(9) 0.9035(6)
H10 H -0.2840 0.3705 0.9370
C19 C 0.2891(8) -0.1073(7) 0.6042(6)
H11 H 0.3535 -0.1422 0.6508
C20 C 0.1031(8) 0.0052(8) 0.4719(6)
H12 H 0.0410 0.0420 0.4252
N5 N -0.4743(8) 0.3632(11) 0.9430(5)
C21 C 0.0418(9) 0.8948(8) 0.7221(8)
H13 H 0.1243 0.8548 0.7306
C22 C -0.1891(9) 1.0206(8) 0.7012(6)
H14 H -0.2690 1.0626 0.6977
C23 C 0.3054(9) -0.3682(8) 0.5949(6)
H15 H 0.3848 -0.3317 0.6277
C24 C 0.2835(8) 0.0137(7) 0.5961(6)
H16 H 0.3495 0.0571 0.6360
C25 C 0.0416(9) 1.0158(7) 0.7260(8)
H17 H 0.1251 1.0551 0.7378
C26 C -0.1980(8) 0.8999(7) 0.6933(6)
H18 H -0.2828 0.8628 0.6797
C27 C 0.2962(8) -0.4884(7) 0.5916(5)
H19 H 0.3717 -0.5306 0.6237
O5 O -0.0215(7) 0.2635(5) 0.4589(4)
C28 C -0.3686(8) 0.2755(7) 0.4803(6)
H20 H -0.3520 0.2636 0.5407
C29 C -0.5003(8) 0.2847(8) 0.4274(5)
C30 C -0.1154(10) 0.2659(6) 0.4980(6)
O6 O -0.0947(7) 0.2543(6) 0.5777(5)
C31 C -0.2587(9) 0.2844(8) 0.4409(5)
C32 C -0.5209(8) 0.3088(10) 0.3375(5)
H21 H -0.6103 0.3147 0.3018
N6 N -0.4158(8) 0.3238(11) 0.3011(5)
C33 C -0.2875(8) 0.3075(11) 0.3528(6)
H22 H -0.2148 0.3123 0.3271
O7 O -0.6033(7) 0.2634(5) 0.5472(4)
O8 O -0.7413(7) 0.2729(7) 0.4143(5)
C34 C -0.6230(10) 0.2731(7) 0.4637(6)
Fe1_2 Fe -1.06644(8) 0.27013(8) 0.71162(6)
Fe1_3 Fe -0.06644(8) 1.27013(8) 0.71162(6)
Fe2_2 Fe -0.81964(9) 0.26115(9) 0.53582(6)
Fe2_3 Fe 0.18036(9) -0.73885(9) 0.53582(6)
O2_2 O 0.1369(6) 0.2772(5) 0.7880(4)
O3_2 O 0.2150(8) 0.2502(5) 0.6700(4)
N1_2 N -0.0731(10) 0.0775(5) 0.7133(7)
N3_2 N 0.1866(8) 0.4513(5) 0.5457(5)
O7_2 O 0.3967(7) 0.2634(5) 0.5472(4)
O8_2 O 0.2587(7) 0.2729(7) 0.4143(5)
N7 N -0.4203(10) -0.0218(9) 0.4134(6)
O9 O -0.4598(12) 0.0182(11) 0.2691(8)
C35 C -0.511(5) -0.0007(18) 0.3331(14)
H23 H -0.6052 -0.0003 0.3258
C36 C -0.2690(13) -0.0306(16) 0.4420(12)
H24 H -0.2327 -0.0196 0.3921
H25 H -0.2430 -0.1060 0.4672
H26 H -0.2330 0.0283 0.4853
C37 C -0.482(2) -0.0365(17) 0.4867(11)
H27 H -0.4833 0.0370 0.5157
H28 H -0.4299 -0.0918 0.5280
H29 H -0.5748 -0.0643 0.4646
loop_
_geom_bond_atom_site_label_1
_geom_bond_atom_site_label_2
_geom_bond_site_symmetry_1
_geom_bond_site_symmetry_2
Fe1 O1 1_555 1_555
Fe2 N4 1_555 1_555
O1 C13 1_555 1_555
O2 C1 1_555 1_555
O3 C1 1_555 1_555
C1 C6 1_555 1_555
C2 H1 1_555 1_555
N1 C22 1_555 1_555
C3 C9 1_555 1_555
C4 H2 1_555 1_555
O4 Fe1 1_555 1_555
C5 C2 1_555 1_555
H3 C5 1_555 1_555
C6 C4 1_555 1_555
N2 Fe1 1_555 1_555
C7 H4 1_555 1_555
C8 N2 1_555 1_555
H5 C8 1_555 1_555
N3 C11 1_555 1_555
C9 C16 1_555 1_555
N4 C20 1_555 1_555
C10 C3 1_555 1_555
H6 C10 1_555 1_555
C11 H7 1_555 1_555
C12 C2 1_555 1_555
C13 O4 1_555 1_555
C14 C6 1_555 1_555
H8 C14 1_555 1_555
C15 C12 1_555 1_555
C16 C11 1_555 1_555
H9 C16 1_555 1_555
C17 C4 1_555 1_555
C18 C17 1_555 1_555
H10 C18 1_555 1_555
C19 C3 1_555 1_555
H11 C19 1_555 1_555
C20 C10 1_555 1_555
H12 C20 1_555 1_555
N5 C14 1_555 1_555
C21 C15 1_555 1_555
H13 C21 1_555 1_555
C22 H14 1_555 1_555
C23 C9 1_555 1_555
H15 C23 1_555 1_555
C24 N4 1_555 1_555
H16 C24 1_555 1_555
C25 N1 1_555 1_555
H17 C25 1_555 1_555
C26 C15 1_555 1_555
H18 C26 1_555 1_555
C27 N3 1_555 1_555
H19 C27 1_555 1_555
O5 Fe2 1_555 1_555
C28 H20 1_555 1_555
C29 C28 1_555 1_555
C30 O5 1_555 1_555
O6 Fe1 1_555 1_555
C31 C28 1_555 1_555
C32 C29 1_555 1_555
H21 C32 1_555 1_555
N6 C32 1_555 1_555
C33 C31 1_555 1_555
H22 C33 1_555 1_555
O7 C34 1_555 1_555
O8 C34 1_555 1_555
C34 C29 1_555 1_555
N7 C35 1_555 1_555
O9 C35 1_555 1_555
C35 H23 1_555 1_555
C36 N7 1_555 1_555
H24 C36 1_555 1_555
H25 C36 1_555 1_555
H26 C36 1_555 1_555
C37 N7 1_555 1_555
H27 C37 1_555 1_555
H28 C37 1_555 1_555
H29 C37 1_555 1_555
Fe1_2 O2 1_555 1_555
Fe1_3 N1 1_555 1_555
Fe2_2 O3 1_555 1_555
Fe2_3 N3 1_555 1_555
O2_2 Fe1 1_555 1_555
O3_2 Fe2 1_555 1_555
N1_2 Fe1 1_555 1_555
N3_2 Fe2 1_555 1_555
O7_2 Fe2 1_555 1_555
O8_2 Fe2 1_555 1_555
C5 N2 1_555 1_555
C7 C8 1_555 1_555
C7 C12 1_555 1_555
C13 C17 1_555 1_555
C18 N5 1_555 1_555
C19 C24 1_555 1_555
C21 C25 1_555 1_555
C22 C26 1_555 1_555
C23 C27 1_555 1_555
C30 O6 1_555 1_555
C30 C31 1_555 1_555
N6 C33 1_555 1_555
O7 Fe2_2 1_555 1_555
O8 Fe2_2 1_555 1_555

#END
