
#######################################################################
#
#                 Cambridge Crystallographic Data Centre
#                                CCDC 
#
#######################################################################
#
# If this CIF has been generated from an entry in the Cambridge 
# Structural Database, then it will include bibliographic, chemical, 
# crystal, experimental, refinement or atomic coordinate data resulting 
# from the CCDC's data processing and validation procedures.
#
#######################################################################

data_FIFMUD
_symmetry_cell_setting           orthorhombic
_symmetry_space_group_name_H-M   'P b c n'
_symmetry_Int_Tables_number      60
_space_group_name_Hall           '-P 2n 2ab'
loop_
_symmetry_equiv_pos_site_id
_symmetry_equiv_pos_as_xyz
1 x,y,z
2 1/2-x,1/2-y,1/2+z
3 -x,y,1/2-z
4 1/2+x,1/2-y,-z
5 -x,-y,-z
6 1/2+x,1/2+y,1/2-z
7 x,-y,1/2+z
8 1/2-x,1/2+y,z
_cell_length_a                   26.959(3)
_cell_length_b                   12.3089(14)
_cell_length_c                   33.493(4)
_cell_angle_alpha                90
_cell_angle_beta                 90
_cell_angle_gamma                90
_cell_volume                     11114.2
loop_
_atom_site_label
_atom_site_type_symbol
_atom_site_fract_x
_atom_site_fract_y
_atom_site_fract_z
Ag1 Ag -0.279270(19) 0.23905(5) -0.361560(16)
B1 B -0.3322(8) -0.0196(15) -0.3732(8)
C1 C 0.0102(3) -0.1687(6) -0.3557(2)
H1 H 0.0387 -0.2139 -0.3550
C2 C -0.0365(3) -0.2025(8) -0.3435(3)
H2 H -0.0457 -0.2726 -0.3342
C3 C -0.0663(3) -0.1143(7) -0.3477(2)
H3 H -0.1003 -0.1099 -0.3405
C4 C -0.0385(2) -0.0336(6) -0.36400(18)
C5 C -0.0544(2) 0.0759(6) -0.3740(2)
C6 C -0.0235(2) 0.1535(6) -0.39086(18)
C7 C -0.0385(3) 0.2608(6) -0.4019(2)
H4 H -0.0707 0.2910 -0.3987
C8 C 0.0020(3) 0.3121(6) -0.4179(2)
H5 H 0.0036 0.3834 -0.4287
C9 C 0.0403(3) 0.2368(6) -0.4149(2)
H6 H 0.0732 0.2514 -0.4234
C10 C -0.1066(3) 0.1002(7) -0.36659(18)
C11 C -0.1442(2) 0.0517(7) -0.3885(2)
H7 H -0.1367 -0.0038 -0.4073
C12 C -0.1923(2) 0.0845(6) -0.3828(2)
H8 H -0.2178 0.0513 -0.3981
C13 C -0.1703(2) 0.2043(6) -0.33455(19)
H9 H -0.1795 0.2549 -0.3144
C14 C -0.1191(2) 0.1800(7) -0.3389(2)
H10 H -0.0945 0.2164 -0.3236
C15 C 0.0510(3) 0.1584(6) -0.3156(2)
H11 H 0.0333 0.2106 -0.3309
C16 C 0.0584(3) 0.1636(9) -0.2732(3)
H12 H 0.0465 0.2191 -0.2560
C17 C 0.0853(3) 0.0759(8) -0.2620(2)
H13 H 0.0960 0.0587 -0.2357
C18 C 0.0946(3) 0.0131(7) -0.29817(19)
C19 C 0.1212(3) -0.0786(8) -0.3018(2)
C20 C 0.1310(3) -0.1364(8) -0.3383(2)
C21 C 0.1636(3) -0.2213(7) -0.3426(3)
H14 H 0.1835 -0.2534 -0.3224
C22 C 0.1615(3) -0.2507(7) -0.3831(3)
H15 H 0.1779 -0.3099 -0.3957
C23 C 0.1309(3) -0.1759(7) -0.4004(2)
H16 H 0.1237 -0.1751 -0.4282
C24 C 0.1437(3) -0.1239(7) -0.2642(2)
C25 C 0.1316(4) -0.2209(7) -0.2498(3)
H17 H 0.1079 -0.2649 -0.2632
C26 C 0.1540(5) -0.2571(7) -0.2152(3)
H18 H 0.1445 -0.3261 -0.2050
C27 C 0.2001(4) -0.1043(9) -0.2105(2)
H19 H 0.2242 -0.0616 -0.1969
C28 C 0.1794(4) -0.0650(9) -0.2444(2)
H20 H 0.1896 0.0035 -0.2545
C29 C 0.1580(3) 0.1538(8) -0.3736(2)
H21 H 0.1543 0.1540 -0.3454
C30 C 0.1933(3) 0.2064(9) -0.3933(3)
H22 H 0.2194 0.2454 -0.3808
C31 C 0.1877(3) 0.1978(8) -0.4331(3)
H23 H 0.2066 0.2313 -0.4536
C32 C 0.1460(2) 0.1251(7) -0.4369(2)
C33 C 0.1251(2) 0.0829(6) -0.4726(2)
C34 C 0.0857(2) 0.0077(6) -0.47496(19)
C35 C 0.0684(2) -0.0493(6) -0.50878(19)
H24 H 0.0796 -0.0402 -0.5355
C36 C 0.0330(2) -0.1193(6) -0.49630(18)
H25 H 0.0145 -0.1684 -0.5124
C37 C 0.0290(2) -0.1048(5) -0.45483(18)
H26 H 0.0067 -0.1443 -0.4383
C38 C 0.1469(2) 0.1220(7) -0.5102(2)
C39 C 0.1958(2) 0.0930(7) -0.5223(2)
H27 H 0.2149 0.0426 -0.5072
C40 C 0.2143(2) 0.1387(7) -0.5556(2)
H28 H 0.2481 0.1252 -0.5619
C41 C 0.1411(3) 0.2266(7) -0.5708(2)
H29 H 0.1221 0.2731 -0.5875
C42 C 0.1195(2) 0.1854(6) -0.5368(2)
H30 H 0.0856 0.2003 -0.5313
F1 F -0.2902(3) -0.0511(7) -0.3551(3)
F2 F -0.3507(3) 0.0866(6) -0.3644(3)
F3 F -0.3542(5) -0.0990(8) -0.3869(4)
F4 F -0.3608(9) -0.0532(15) -0.3363(7)
Fe1 Fe 0.06826(3) 0.01802(9) -0.38561(3)
N1 N 0.01087(19) -0.0684(5) -0.36819(16)
N2 N 0.02602(18) 0.1394(5) -0.39857(15)
N3 N -0.20495(18) 0.1629(4) -0.35584(15)
N4 N 0.0723(2) 0.0707(5) -0.33006(16)
N5 N 0.11195(18) -0.1035(5) -0.37461(15)
N6 N 0.1878(3) -0.2013(7) -0.19547(19)
N7 N 0.12822(19) 0.1001(6) -0.39923(17)
N8 N 0.06119(17) -0.0268(5) -0.44087(14)
N9 N 0.1876(2) 0.2037(5) -0.58125(18)
Ag1C Ag 0.220730(19) 0.26095(5) -0.638440(16)
Ag1E Ag 0.220730(19) -0.26095(5) -0.138440(16)
N6E N -0.3122(3) 0.2987(7) -0.30453(19)
N9C N -0.3124(2) 0.2963(5) -0.41875(18)
C43 C -0.1430(7) 0.6952(15) -0.9729(5)
C44 C -0.1822(8) 0.7713(16) -0.9930(6)
N10 N -0.2158(5) 0.8368(11) -1.0123(4)
loop_
_geom_bond_atom_site_label_1
_geom_bond_atom_site_label_2
_geom_bond_site_symmetry_1
_geom_bond_site_symmetry_2
Ag1 F2 1_555 1_555
B1 F1 1_555 1_555
C1 H1 1_555 1_555
C2 C1 1_555 1_555
H2 C2 1_555 1_555
C3 C2 1_555 1_555
H3 C3 1_555 1_555
C4 C3 1_555 1_555
C5 C4 1_555 1_555
C6 C5 1_555 1_555
C7 C6 1_555 1_555
H4 C7 1_555 1_555
C8 C7 1_555 1_555
H5 C8 1_555 1_555
C9 C8 1_555 1_555
H6 C9 1_555 1_555
C10 C5 1_555 1_555
C11 C10 1_555 1_555
H7 C11 1_555 1_555
C12 C11 1_555 1_555
H8 C12 1_555 1_555
C13 H9 1_555 1_555
C14 C10 1_555 1_555
H10 C14 1_555 1_555
C15 H11 1_555 1_555
C16 C15 1_555 1_555
H12 C16 1_555 1_555
C17 C16 1_555 1_555
H13 C17 1_555 1_555
C18 C17 1_555 1_555
C19 C18 1_555 1_555
C20 C19 1_555 1_555
C21 C20 1_555 1_555
H14 C21 1_555 1_555
C22 C21 1_555 1_555
H15 C22 1_555 1_555
C23 C22 1_555 1_555
H16 C23 1_555 1_555
C24 C19 1_555 1_555
C25 C24 1_555 1_555
H17 C25 1_555 1_555
C26 C25 1_555 1_555
H18 C26 1_555 1_555
C27 H19 1_555 1_555
C28 C24 1_555 1_555
H20 C28 1_555 1_555
C29 H21 1_555 1_555
C30 C29 1_555 1_555
H22 C30 1_555 1_555
C31 C30 1_555 1_555
H23 C31 1_555 1_555
C32 C31 1_555 1_555
C33 C32 1_555 1_555
C34 C33 1_555 1_555
C35 C34 1_555 1_555
H24 C35 1_555 1_555
C36 C35 1_555 1_555
H25 C36 1_555 1_555
C37 C36 1_555 1_555
H26 C37 1_555 1_555
C38 C33 1_555 1_555
C39 C38 1_555 1_555
H27 C39 1_555 1_555
C40 C39 1_555 1_555
H28 C40 1_555 1_555
C41 H29 1_555 1_555
C42 C38 1_555 1_555
H30 C42 1_555 1_555
C43 C44 1_555 1_555
C44 N10 1_555 1_555
F2 B1 1_555 1_555
F3 B1 1_555 1_555
F4 B1 1_555 1_555
Fe1 N1 1_555 1_555
N1 C1 1_555 1_555
N2 C6 1_555 1_555
N3 Ag1 1_555 1_555
N4 C15 1_555 1_555
N5 C20 1_555 1_555
N6 C26 1_555 1_555
N7 C29 1_555 1_555
N8 C34 1_555 1_555
N9 C40 1_555 1_555
Ag1C N9 1_555 1_555
Ag1E N6 1_555 1_555
N6E Ag1 1_555 1_555
N9C Ag1 1_555 1_555
C4 N1 1_555 1_555
C9 N2 1_555 1_555
C12 N3 1_555 1_555
C13 C14 1_555 1_555
C13 N3 1_555 1_555
C18 N4 1_555 1_555
C23 N5 1_555 1_555
C27 C28 1_555 1_555
C27 N6 1_555 1_555
C32 N7 1_555 1_555
C37 N8 1_555 1_555
C41 C42 1_555 1_555
C41 N9 1_555 1_555
Fe1 N2 1_555 1_555
Fe1 N4 1_555 1_555
Fe1 N5 1_555 1_555
Fe1 N7 1_555 1_555
Fe1 N8 1_555 1_555

#END
