
#######################################################################
#
#                 Cambridge Crystallographic Data Centre
#                                CCDC 
#
#######################################################################
#
# If this CIF has been generated from an entry in the Cambridge 
# Structural Database, then it will include bibliographic, chemical, 
# crystal, experimental, refinement or atomic coordinate data resulting 
# from the CCDC's data processing and validation procedures.
#
#######################################################################

data_FIGLAK
_symmetry_cell_setting           monoclinic
_symmetry_space_group_name_H-M   'C 2/c'
_symmetry_Int_Tables_number      15
_space_group_name_Hall           '-C 2yn'
loop_
_symmetry_equiv_pos_site_id
_symmetry_equiv_pos_as_xyz
1 x,y,z
2 -x,y,1/2-z
3 1/2+x,1/2+y,z
4 1/2-x,1/2+y,1/2-z
5 -x,-y,-z
6 x,-y,1/2+z
7 1/2-x,1/2-y,-z
8 1/2+x,1/2-y,1/2+z
_cell_length_a                   53.965(3)
_cell_length_b                   12.9968(7)
_cell_length_c                   21.6070(11)
_cell_angle_alpha                90
_cell_angle_beta                 107.366(2)
_cell_angle_gamma                90
_cell_volume                     14463.8
loop_
_atom_site_label
_atom_site_type_symbol
_atom_site_fract_x
_atom_site_fract_y
_atom_site_fract_z
Cd1 Cd 0.125047(8) 0.46517(4) 0.30894(2)
Cd2 Cd 0.173658(8) 0.29698(4) 0.45032(2)
Cd3 Cd 0.075034(9) 0.60420(3) 0.15635(2)
O1 O 0.15534(9) 0.4520(3) 0.4143(2)
O2 O 0.19095(10) 0.4825(4) 0.4920(3)
O3 O 0.12171(9) 0.6110(4) 0.4052(3)
O4 O 0.09986(9) 0.6183(4) 0.2778(2)
O5 O 0.05947(10) 0.6673(4) 0.2393(2)
O6 O 0.14115(10) 0.2947(4) 0.3120(3)
O7 O 0.14326(11) 0.1914(4) 0.3950(3)
O8 O 0.10606(9) 0.2477(4) 0.1966(2)
O9 O 0.10024(8) 0.4561(3) 0.1958(2)
O10 O 0.09964(9) 0.5062(4) 0.0978(2)
O11 O 0.17166(10) 0.2653(4) 0.5487(2)
O12 O 0.18728(11) 0.1214(4) 0.5242(3)
O13 O 0.13029(9) 0.1617(4) 0.5855(2)
O14 O 0.09585(9) 0.2468(4) 0.6467(2)
O15 O 0.05926(9) 0.2647(4) 0.5698(2)
N1 N 0.09083(10) 0.3930(4) 0.3310(3)
N2 N 0.06707(10) 0.2869(4) 0.3690(3)
N3 N -0.00494(10) 0.4078(4) 0.4234(3)
N4 N -0.03945(10) 0.5082(4) 0.3926(3)
N5 N 0.25582(12) 0.7126(6) 0.0969(3)
N6 N 0.28904(11) 0.7782(5) 0.0715(3)
C1 C 0.08830(12) 0.3504(5) 0.3849(3)
C2 C 0.05621(13) 0.2920(5) 0.3025(3)
H1 H 0.0415 0.2572 0.2780
C3 C 0.07084(13) 0.3565(5) 0.2802(4)
H2 H 0.0679 0.3740 0.2368
C4 C 0.10463(13) 0.3659(6) 0.4525(3)
H3 H 0.1107 0.3004 0.4718
H4 H 0.0946 0.3988 0.4768
H5 H 0.1192 0.4084 0.4530
C5 C 0.05975(13) 0.2165(5) 0.4128(3)
H6 H 0.0624 0.2502 0.4543
H7 H 0.0710 0.1568 0.4198
C6 C 0.03246(13) 0.1823(5) 0.3880(3)
C7 C 0.02649(15) 0.0860(6) 0.3587(4)
H8 H 0.0399 0.0426 0.3568
C8 C 0.00162(16) 0.0540(6) 0.3330(4)
H9 H -0.0017 -0.0104 0.3136
C9 C -0.01824(17) 0.1142(6) 0.3352(4)
H10 H -0.0352 0.0916 0.3171
C10 C -0.01355(14) 0.2109(6) 0.3646(4)
H11 H -0.0274 0.2518 0.3671
C11 C 0.01193(13) 0.2461(6) 0.3902(4)
C12 C 0.01786(13) 0.3498(5) 0.4221(4)
H12 H 0.0289 0.3403 0.4662
H13 H 0.0275 0.3899 0.3992
C13 C -0.01879(13) 0.4744(5) 0.3779(3)
C14 C -0.03909(13) 0.4593(5) 0.4490(3)
H14 H -0.0516 0.4676 0.4704
C15 C -0.01811(14) 0.3974(6) 0.4692(4)
H15 H -0.0135 0.3564 0.5061
C16 C -0.01131(10) 0.5051(6) 0.3195(3)
H16 H -0.0228 0.5582 0.2966
H17 H -0.0126 0.4465 0.2916
H18 H 0.0062 0.5301 0.3326
N7 N 0.15248(10) 0.5520(6) 0.2689(3)
C17 C 0.17424(10) 0.5046(5) 0.2562(3)
N8 N 0.18125(10) 0.5654(6) 0.2094(3)
C18 C 0.16381(10) 0.6503(6) 0.1932(3)
H19 H 0.1641 0.7007 0.1622
C19 C 0.1467(3) 0.6408(14) 0.2351(8)
H20 H 0.1329 0.6877 0.2339
C20 C 0.1884(3) 0.4084(10) 0.2786(9)
H21 H 0.2025 0.3947 0.2611
H22 H 0.1951 0.4157 0.3248
H23 H 0.1763 0.3524 0.2683
C21 C 0.20062(14) 0.5728(7) 0.1820(4)
H24 H 0.1940 0.6054 0.1405
H25 H 0.2060 0.5047 0.1748
C22 C 0.22404(15) 0.6319(7) 0.2214(4)
C23 C 0.22653(15) 0.6578(7) 0.2858(4)
H26 H 0.2138 0.6378 0.3045
C24 C 0.24687(17) 0.7105(7) 0.3201(5)
H27 H 0.2479 0.7287 0.3624
C25 C 0.26675(18) 0.7399(8) 0.2956(5)
H28 H 0.2816 0.7723 0.3216
C26 C 0.26379(16) 0.7197(7) 0.2322(4)
H29 H 0.2765 0.7414 0.2140
C27 C 0.24253(15) 0.6681(7) 0.1943(4)
C28 C 0.23942(15) 0.6481(7) 0.1230(4)
H30 H 0.2434 0.5766 0.1176
H31 H 0.2214 0.6596 0.0982
C29 C 0.27961(15) 0.6973(7) 0.0938(4)
C30 C 0.26934(14) 0.8522(7) 0.0600(4)
H32 H 0.2701 0.9180 0.0438
C31 C 0.24951(16) 0.8136(7) 0.0759(4)
H33 H 0.2341 0.8475 0.0736
C32 C 0.29423(17) 0.5993(7) 0.1105(5)
H34 H 0.3004 0.5784 0.0751
H35 H 0.2830 0.5471 0.1188
H36 H 0.3088 0.6091 0.1486
C33 C 0.17170(13) 0.5153(6) 0.4501(4)
C34 C 0.16756(15) 0.6273(6) 0.4418(4)
C35 C 0.18966(17) 0.6915(7) 0.4612(5)
H37 H 0.2061 0.6622 0.4755
C36 C 0.1870(2) 0.8028(8) 0.4593(6)
H38 H 0.2013 0.8461 0.4741
C37 C 0.16257(19) 0.8402(8) 0.4348(6)
H39 H 0.1605 0.9112 0.4311
C38 C 0.14074(17) 0.7811(6) 0.4153(4)
H40 H 0.1245 0.8113 0.3985
C39 C 0.14324(14) 0.6750(6) 0.4209(4)
C40 C 0.09830(13) 0.6491(5) 0.4086(4)
C41 C 0.09541(15) 0.6625(6) 0.4687(4)
H41 H 0.1094 0.6499 0.5053
C42 C 0.07243(15) 0.6940(5) 0.4759(4)
H42 H 0.0709 0.7036 0.5173
C43 C 0.05162(14) 0.7114(6) 0.4229(4)
H43 H 0.0359 0.7339 0.4275
C44 C 0.05439(15) 0.6948(6) 0.3621(4)
H44 H 0.0401 0.7044 0.3257
C45 C 0.07782(13) 0.6642(5) 0.3534(3)
C46 C 0.07946(13) 0.6487(5) 0.2868(4)
C47 C 0.13504(14) 0.2164(6) 0.3354(4)
C48 C 0.11652(14) 0.1399(6) 0.2925(4)
C49 C 0.11068(15) 0.0483(6) 0.3192(4)
H45 H 0.1180 0.0363 0.3634
C50 C 0.09434(16) -0.0251(6) 0.2816(4)
H46 H 0.0907 -0.0853 0.3006
C51 C 0.08386(15) -0.0093(6) 0.2183(4)
H47 H 0.0731 -0.0592 0.1931
C52 C 0.08873(14) 0.0809(5) 0.1890(4)
H48 H 0.0813 0.0917 0.1447
C53 C 0.10496(13) 0.1547(5) 0.2275(4)
C54 C 0.12547(13) 0.2658(6) 0.1697(4)
C55 C 0.14293(14) 0.1909(6) 0.1646(4)
H49 H 0.1424 0.1261 0.1824
C56 C 0.16104(15) 0.2119(6) 0.1333(4)
H50 H 0.1724 0.1604 0.1294
C57 C 0.16266(14) 0.3057(6) 0.1082(4)
H51 H 0.1756 0.3202 0.0891
C58 C 0.14452(13) 0.3809(6) 0.1114(4)
H52 H 0.1449 0.4443 0.0918
C59 C 0.12634(13) 0.3639(6) 0.1424(3)
C60 C 0.10751(13) 0.4462(5) 0.1454(3)
C61 C 0.17835(14) 0.1725(6) 0.5594(4)
C62 C 0.17566(14) 0.1282(5) 0.6214(4)
C63 C 0.19694(16) 0.0928(6) 0.6685(4)
H53 H 0.2132 0.0934 0.6617
C64 C 0.19435(17) 0.0562(7) 0.7262(4)
H54 H 0.2089 0.0315 0.7579
C65 C 0.17071(16) 0.0556(6) 0.7374(4)
H55 H 0.1694 0.0333 0.7772
C66 C 0.14876(15) 0.0881(6) 0.6899(4)
H56 H 0.1325 0.0861 0.6966
C67 C 0.15167(14) 0.1235(5) 0.6324(4)
C68 C 0.10987(14) 0.0947(5) 0.5608(4)
C69 C 0.11417(15) 0.0062(6) 0.5313(4)
H57 H 0.1308 -0.0105 0.5305
C70 C 0.09362(15) -0.0578(6) 0.5029(4)
H58 H 0.0963 -0.1174 0.4820
C71 C 0.06932(15) -0.0340(6) 0.5053(4)
H59 H 0.0555 -0.0781 0.4869
C72 C 0.06525(14) 0.0545(5) 0.5347(4)
H60 H 0.0485 0.0704 0.5355
C73 C 0.08537(13) 0.1211(5) 0.5632(3)
C74 C 0.08025(13) 0.2179(5) 0.5963(3)
Cd2C Cd 0.326342(8) 0.79698(4) 0.04968(2)
Cd3A Cd -0.075034(9) 0.60420(3) 0.34365(2)
Cd3E Cd 0.075034(9) 0.39580(3) 0.65635(2)
O14E O 0.09585(9) 0.7532(4) 0.1467(2)
O15E O 0.05926(9) 0.7353(4) 0.0698(2)
N4A N 0.03945(10) 0.5082(4) 0.1074(3)
N6C N 0.21096(11) 0.2782(5) 0.4285(3)
O16 O 0.00915(11) 0.1909(4) 0.5703(3)
H61 H 0.0191 0.2281 0.5558
H62 H 0.0180 0.1433 0.5939
O17 O 0.0000 0.0000 0.5000
O18 O 0.01441(13) 0.7950(5) 0.2050(3)
H63 H 0.0287 0.7699 0.2283
H64 H 0.0123 0.7801 0.1655
O19 O 0.2204(3) 0.9461(13) 0.5585(9)
H65 H 0.2288 0.9701 0.5341
H66 H 0.2090 0.9896 0.5615
N9? N 0.1599(2) 0.4975(10) 0.2749(6)
C75? C 0.1668(3) 0.5516(12) 0.2407(7)
C76? C 0.1971(3) 0.4445(13) 0.2554(8)
H67? H 0.2121 0.4072 0.2532
N10? N 0.1845(2) 0.5400(11) 0.2186(7)
C77? C 0.1818(3) 0.4149(14) 0.2882(9)
H68? H 0.1837 0.3578 0.3174
C78? C 0.1501(3) 0.6449(14) 0.2119(8)
H69? H 0.1360 0.6570 0.2297
H70? H 0.1619 0.7020 0.2219
H71? H 0.1433 0.6373 0.1657
H72? H 0.0115 -0.0368 0.4911
H73? H -0.0024 0.0544 0.4772
loop_
_geom_bond_atom_site_label_1
_geom_bond_atom_site_label_2
_geom_bond_site_symmetry_1
_geom_bond_site_symmetry_2
Cd1 O1 1_555 1_555
Cd2 O1 1_555 1_555
Cd3 O4 1_555 1_555
O1 C33 1_555 1_555
O2 Cd2 1_555 1_555
O3 C39 1_555 1_555
O4 Cd1 1_555 1_555
O5 Cd3 1_555 1_555
O6 Cd1 1_555 1_555
O7 Cd2 1_555 1_555
O8 C53 1_555 1_555
O9 Cd1 1_555 1_555
O10 Cd3 1_555 1_555
O11 Cd2 1_555 1_555
O12 Cd2 1_555 1_555
O13 C67 1_555 1_555
O14 C74 1_555 1_555
O15 C74 1_555 1_555
N1 Cd1 1_555 1_555
N2 C1 1_555 1_555
N3 C12 1_555 1_555
N4 C13 1_555 1_555
N5 C28 1_555 1_555
N6 C29 1_555 1_555
C1 N1 1_555 1_555
C2 N2 1_555 1_555
H1 C2 1_555 1_555
C3 N1 1_555 1_555
H2 C3 1_555 1_555
C4 C1 1_555 1_555
H3 C4 1_555 1_555
H4 C4 1_555 1_555
H5 C4 1_555 1_555
C5 N2 1_555 1_555
H6 C5 1_555 1_555
H7 C5 1_555 1_555
C6 C5 1_555 1_555
C7 C6 1_555 1_555
H8 C7 1_555 1_555
C8 C7 1_555 1_555
H9 C8 1_555 1_555
C9 C8 1_555 1_555
H10 C9 1_555 1_555
C10 C9 1_555 1_555
H11 C10 1_555 1_555
C11 C6 1_555 1_555
C12 C11 1_555 1_555
H12 C12 1_555 1_555
H13 C12 1_555 1_555
C13 N3 1_555 1_555
C14 N4 1_555 1_555
H14 C14 1_555 1_555
C15 N3 1_555 1_555
H15 C15 1_555 1_555
C16 C13 1_555 1_555
H16 C16 1_555 1_555
H17 C16 1_555 1_555
H18 C16 1_555 1_555
N7 Cd1 1_555 1_555
C17 N7 1_555 1_555
N8 C17 1_555 1_555
C18 N8 1_555 1_555
H19 C18 1_555 1_555
C19 N7 1_555 1_555
H20 C19 1_555 1_555
C20 C17 1_555 1_555
H21 C20 1_555 1_555
H22 C20 1_555 1_555
H23 C20 1_555 1_555
C21 N8 1_555 1_555
H24 C21 1_555 1_555
H25 C21 1_555 1_555
C22 C21 1_555 1_555
C23 C22 1_555 1_555
H26 C23 1_555 1_555
C24 C23 1_555 1_555
H27 C24 1_555 1_555
C25 C24 1_555 1_555
H28 C25 1_555 1_555
C26 C25 1_555 1_555
H29 C26 1_555 1_555
C27 C22 1_555 1_555
C28 C27 1_555 1_555
H30 C28 1_555 1_555
H31 C28 1_555 1_555
C29 N5 1_555 1_555
C30 N6 1_555 1_555
H32 C30 1_555 1_555
C31 N5 1_555 1_555
H33 C31 1_555 1_555
C32 C29 1_555 1_555
H34 C32 1_555 1_555
H35 C32 1_555 1_555
H36 C32 1_555 1_555
C33 O2 1_555 1_555
C34 C33 1_555 1_555
C35 C34 1_555 1_555
H37 C35 1_555 1_555
C36 C35 1_555 1_555
H38 C36 1_555 1_555
C37 C36 1_555 1_555
H39 C37 1_555 1_555
C38 C37 1_555 1_555
H40 C38 1_555 1_555
C39 C34 1_555 1_555
C40 O3 1_555 1_555
C41 C40 1_555 1_555
H41 C41 1_555 1_555
C42 C41 1_555 1_555
H42 C42 1_555 1_555
C43 C42 1_555 1_555
H43 C43 1_555 1_555
C44 C43 1_555 1_555
H44 C44 1_555 1_555
C45 C40 1_555 1_555
C46 O4 1_555 1_555
C47 O6 1_555 1_555
C48 C47 1_555 1_555
C49 C48 1_555 1_555
H45 C49 1_555 1_555
C50 C49 1_555 1_555
H46 C50 1_555 1_555
C51 C50 1_555 1_555
H47 C51 1_555 1_555
C52 C51 1_555 1_555
H48 C52 1_555 1_555
C53 C48 1_555 1_555
C54 O8 1_555 1_555
C55 C54 1_555 1_555
H49 C55 1_555 1_555
C56 C55 1_555 1_555
H50 C56 1_555 1_555
C57 C56 1_555 1_555
H51 C57 1_555 1_555
C58 C57 1_555 1_555
H52 C58 1_555 1_555
C59 C54 1_555 1_555
C60 O9 1_555 1_555
C61 O11 1_555 1_555
C62 C61 1_555 1_555
C63 C62 1_555 1_555
H53 C63 1_555 1_555
C64 C63 1_555 1_555
H54 C64 1_555 1_555
C65 C64 1_555 1_555
H55 C65 1_555 1_555
C66 C65 1_555 1_555
H56 C66 1_555 1_555
C67 C62 1_555 1_555
C68 O13 1_555 1_555
C69 C68 1_555 1_555
H57 C69 1_555 1_555
C70 C69 1_555 1_555
H58 C70 1_555 1_555
C71 C70 1_555 1_555
H59 C71 1_555 1_555
C72 C71 1_555 1_555
H60 C72 1_555 1_555
C73 C68 1_555 1_555
C74 C73 1_555 1_555
O16 H61 1_555 1_555
H62 O16 1_555 1_555
O18 H63 1_555 1_555
H64 O18 1_555 1_555
O19 H65 1_555 1_555
H66 O19 1_555 1_555
Cd2C N6 1_555 1_555
Cd3A N4 1_555 1_555
Cd3E O14 1_555 1_555
O14E Cd3 1_555 1_555
O15E Cd3 1_555 1_555
N4A Cd3 1_555 1_555
N6C Cd2 1_555 1_555
Cd3 O9 1_555 1_555
O5 C46 1_555 1_555
O7 C47 1_555 1_555
O10 C60 1_555 1_555
O12 C61 1_555 1_555
O15 Cd3E 1_555 1_555
C2 C3 1_555 1_555
C10 C11 1_555 1_555
C14 C15 1_555 1_555
C18 C19 1_555 1_555
C26 C27 1_555 1_555
C30 C31 1_555 1_555
C38 C39 1_555 1_555
C44 C45 1_555 1_555
C45 C46 1_555 1_555
C52 C53 1_555 1_555
C58 C59 1_555 1_555
C59 C60 1_555 1_555
C66 C67 1_555 1_555
C72 C73 1_555 1_555

#END
