
#######################################################################
#
#                 Cambridge Crystallographic Data Centre
#                                CCDC 
#
#######################################################################
#
# If this CIF has been generated from an entry in the Cambridge 
# Structural Database, then it will include bibliographic, chemical, 
# crystal, experimental, refinement or atomic coordinate data resulting 
# from the CCDC's data processing and validation procedures.
#
#######################################################################

data_FIHLOZ
_symmetry_cell_setting           monoclinic
_symmetry_space_group_name_H-M   'P 21/n'
_symmetry_Int_Tables_number      14
_space_group_name_Hall           '-P 2yn'
loop_
_symmetry_equiv_pos_site_id
_symmetry_equiv_pos_as_xyz
1 x,y,z
2 1/2-x,1/2+y,1/2-z
3 -x,-y,-z
4 1/2+x,1/2-y,1/2+z
_cell_length_a                   10.7873(2)
_cell_length_b                   26.9072(5)
_cell_length_c                   22.3486(3)
_cell_angle_alpha                90
_cell_angle_beta                 101.1730(10)
_cell_angle_gamma                90
_cell_volume                     6363.87
loop_
_atom_site_label
_atom_site_type_symbol
_atom_site_fract_x
_atom_site_fract_y
_atom_site_fract_z
Co1 Co 0.16723(3) 0.655537(10) 0.158861(13)
Co2 Co -0.08772(3) 0.609839(10) 0.046993(12)
Co3 Co 0.41049(3) 0.852116(10) 0.055269(13)
Co4 Co 0.65412(3) 0.898392(10) 0.176557(13)
O1 O 0.15892(13) 0.68088(5) 0.07125(6)
O2 O -0.03450(13) 0.67822(5) 0.01225(6)
O3 O -0.02610(14) 0.63856(6) 0.13547(6)
H1 H -0.048(2) 0.6154(6) 0.1541(9)
H2 H -0.054(2) 0.6641(5) 0.1469(10)
O4 O -0.84556(14) 0.45274(5) -0.08807(6)
O5 O -0.91954(15) 0.44013(5) -0.18805(7)
O6 O -0.59674(14) 0.60077(5) -0.00331(7)
O7 O -0.74370(15) 0.63729(6) -0.08068(7)
O8 O 0.30200(15) 0.88560(5) 0.30220(7)
O9 O 0.41664(13) 1.07248(5) 0.44496(6)
O10 O 0.29422(14) 1.07852(5) 0.35165(6)
O11 O -0.52616(13) 0.78607(5) 0.02752(7)
O12 O -0.31557(13) 0.79363(5) 0.04904(7)
O13 O 0.41611(14) 0.82342(5) 0.14306(7)
O14 O 0.61035(13) 0.82530(5) 0.20053(6)
O15 O 0.60387(14) 0.87747(5) 0.08345(7)
H3 H 0.621(2) 0.9045(5) 0.0707(10)
H4 H 0.643(2) 0.8549(6) 0.0725(10)
O16 O -0.48107(13) 1.06101(5) -0.16572(6)
O17 O -0.34280(14) 1.08329(5) -0.08125(6)
O18 O -0.04342(14) 0.94227(6) -0.03138(7)
O19 O 0.78380(14) 0.47012(5) 0.34488(6)
O20 O 0.85435(15) 0.46648(6) 0.44606(7)
O21 O 0.67233(15) 0.63098(6) 0.22728(7)
O22 O 0.80434(15) 0.66270(6) 0.31326(7)
O23 O -0.10737(15) 0.86849(6) 0.00815(8)
O24 O 0.16505(18) 0.64538(6) 0.24987(7)
H5 H 0.197(3) 0.6676(7) 0.2727(10)
H6 H 0.182(3) 0.6194(5) 0.2692(11)
O25 O 0.11300(13) 0.73160(5) 0.17776(7)
O26 O -0.09741(14) 0.72385(5) 0.16257(7)
O27 O 0.16275(14) 0.92110(5) 0.22088(7)
N1 N -0.27321(16) 0.64160(6) 0.03656(8)
N2 N 0.36226(16) 0.92414(6) 0.45863(8)
N3 N 0.21900(16) 0.82425(7) 0.03141(8)
N4 N -0.81832(17) 0.58148(6) -0.22996(8)
N5 N -0.2673(2) 0.93248(8) -0.17561(10)
N6 N -0.15339(16) 0.87194(7) 0.18449(8)
N7 N 0.35913(17) 0.67841(7) 0.17733(8)
N8 N 0.88727(17) 0.61597(6) 0.46573(8)
C1 C 0.0646(2) 0.70050(8) 0.03697(9)
C2 C -0.8676(2) 0.46589(8) -0.14325(10)
C3 C -0.8329(2) 0.51804(8) -0.15674(10)
C4 C -0.7944(2) 0.55119(8) -0.10934(10)
H7 H -0.7829 0.5406 -0.0681
C5 C -0.7733(2) 0.59995(8) -0.12339(10)
C6 C -0.84330(19) 0.53452(8) -0.21624(10)
H8 H -0.8692 0.5116 -0.2486
C7 C -0.3778(2) 0.61372(8) 0.02167(10)
H9 H -0.3691 0.5787 0.0197
C8 C -0.4978(2) 0.63399(8) 0.00910(10)
C9 C -0.7187(2) 0.62201(8) -0.01892(10)
H10 H -0.7245 0.6510 0.0077
H11 H -0.7827 0.5973 -0.0123
C10 C -0.5109(2) 0.68487(8) 0.01076(10)
H12 H -0.5919 0.6998 0.0000
C11 C -0.4039(2) 0.71377(8) 0.02842(9)
C12 C -0.4148(2) 0.76899(8) 0.03534(10)
C13 C -0.2872(2) 0.69077(8) 0.04107(9)
H13 H -0.2139 0.7107 0.0534
C14 C 0.36284(19) 0.97367(8) 0.45371(9)
H14 H 0.3820 0.9929 0.4900
C15 C 0.33680(19) 0.99849(8) 0.39804(10)
C16 C 0.34871(19) 1.05457(8) 0.39765(9)
C17 C 0.30959(19) 0.97049(8) 0.34444(9)
H15 H 0.2878 0.9861 0.3057
C18 C 0.3155(2) 0.91907(8) 0.34977(9)
C19 C 0.3396(2) 0.89742(8) 0.40711(10)
H16 H 0.3400 0.8622 0.4100
C20 C 0.0766(2) 0.75531(8) 0.02680(9)
C21 C 0.1976(2) 0.77574(8) 0.03537(9)
H17 H 0.2682 0.7540 0.0445
C22 C 0.51032(19) 0.80335(8) 0.17621(9)
C23 C -0.7847(2) 0.61372(8) -0.18395(10)
H18 H -0.7680 0.6472 -0.1932
C24 C -0.3860(2) 1.05425(8) -0.12431(9)
C25 C -0.3102(2) 1.00729(8) -0.12549(10)
C26 C -0.2115(2) 0.99663(8) -0.07722(10)
H19 H -0.1919 1.0186 -0.0435
C27 C -0.1431(2) 0.95391(9) -0.07903(11)
C28 C -0.0842(2) 0.91975(9) 0.01845(11)
H20 H -0.0188 0.9243 0.0558
H21 H -0.1626 0.9362 0.0251
C29 C -0.1723(2) 0.92279(9) -0.12922(12)
H22 H -0.1232 0.8937 -0.1306
C30 C -0.3353(2) 0.97378(9) -0.17330(11)
H23 H -0.4039 0.9804 -0.2059
C31 C 0.8222(2) 0.48970(8) 0.39677(10)
C32 C 0.8337(2) 0.54549(8) 0.40023(10)
C33 C -0.0530(2) 0.90200(8) 0.19952(9)
H24 H -0.0669 0.9364 0.2052
C34 C -0.1316(2) 0.82351(8) 0.17624(9)
H25 H -0.2019 0.8019 0.1649
C35 C 0.4995(2) 0.74835(8) 0.18639(9)
C36 C 0.3807(2) 0.72711(8) 0.17173(9)
H26 H 0.3108 0.7481 0.1569
C37 C 0.4589(2) 0.64901(8) 0.19653(10)
H27 H 0.4451 0.6144 0.2004
C38 C 0.5816(2) 0.66691(8) 0.21107(10)
C39 C 0.7960(2) 0.64646(9) 0.25295(10)
H28 H 0.8211 0.6738 0.2282
H29 H 0.8553 0.6185 0.2522
C40 C 0.6034(2) 0.71762(8) 0.20737(9)
H30 H 0.6861 0.7310 0.2187
C41 C 0.8613(2) 0.64532(8) 0.41660(10)
H31 H 0.8697 0.6802 0.4221
C42 C 0.8227(2) 0.62703(8) 0.35822(10)
C43 C 0.8048(2) 0.57625(8) 0.34923(10)
H32 H 0.7741 0.5630 0.3098
C44 C 0.8761(2) 0.56677(8) 0.45700(10)
H33 H 0.8982 0.5455 0.4913
C45 C 0.1194(2) 0.85507(9) 0.02052(10)
H34 H 0.1335 0.8897 0.0169
C46 C -0.0034(2) 0.83776(9) 0.01433(11)
C47 C -0.0261(2) 0.78725(8) 0.01554(10)
H35 H -0.1100 0.7747 0.0088
C48 C 0.0035(2) 0.74859(8) 0.17418(9)
C49 C -0.0107(2) 0.80378(8) 0.18360(9)
C50 C 0.0931(2) 0.83484(8) 0.19946(9)
H36 H 0.1768 0.8222 0.2049
C51 C 0.0706(2) 0.88484(8) 0.20715(9)
C52 C 0.2876(2) 0.90481(8) 0.24265(10)
H37 H 0.3094 0.8788 0.2151
H38 H 0.3466 0.9330 0.2425
Co1A Co 0.33277(3) 1.155537(10) 0.341139(13)
Co2A Co 0.58772(3) 1.109839(10) 0.453007(12)
Co2B Co -0.91228(3) 0.390161(10) -0.046993(12)
Co2C Co 0.41228(3) 0.890161(10) 0.546993(12)
Co3_2 Co -0.58951(3) 0.852116(10) 0.055269(13)
Co3B Co -0.41049(3) 1.147884(10) -0.055269(13)
Co3C Co 0.91049(3) 0.647884(10) 0.555269(13)
Co4_2 Co -0.34588(3) 0.898392(10) 0.176557(13)
Co4A Co 0.84588(3) 0.398392(10) 0.323443(13)
Co4B Co -0.65412(3) 1.101608(10) -0.176557(13)
Co4C Co -0.84588(3) 0.601608(10) -0.323443(13)
O4B O -0.15444(14) 0.54726(5) 0.08807(6)
O9A O 0.08336(13) 0.57248(5) 0.05504(6)
O10A O 0.20578(14) 0.57852(5) 0.14835(6)
O11_2 O 0.47384(13) 0.78607(5) 0.02752(7)
O16B O 0.48107(13) 0.93899(5) 0.16572(6)
O17B O 0.34280(14) 0.91671(5) 0.08125(6)
O19A O 0.71620(14) 0.97012(5) 0.15512(6)
N2C N -0.13774(16) 0.57586(6) -0.04137(8)
N4C N 0.68168(17) 0.91852(6) 0.27004(8)
N6_2 N 0.84661(16) 0.87194(7) 0.18449(8)
N8C N 0.38727(17) 0.88403(6) -0.03427(8)
N9 N 0.3536(4) 0.71032(15) 0.32796(15)
C53 C 0.5350(5) 0.7746(2) 0.35660(19)
H39 H 0.5269 0.7998 0.3244
H40 H 0.6169 0.7578 0.3605
H41 H 0.5293 0.7906 0.3954
C54 C 0.4346(5) 0.73845(17) 0.34114(17)
loop_
_geom_bond_atom_site_label_1
_geom_bond_atom_site_label_2
_geom_bond_site_symmetry_1
_geom_bond_site_symmetry_2
Co1 O1 1_555 1_555
Co2 O2 1_555 1_555
Co3 O13 1_555 1_555
Co4 O14 1_555 1_555
O1 C1 1_555 1_555
O2 C1 1_555 1_555
O3 Co1 1_555 1_555
H1 O3 1_555 1_555
H2 O3 1_555 1_555
O4 C2 1_555 1_555
O5 C2 1_555 1_555
O6 C8 1_555 1_555
O7 C5 1_555 1_555
O8 C18 1_555 1_555
O9 C16 1_555 1_555
O10 C16 1_555 1_555
O11 C12 1_555 1_555
O12 C12 1_555 1_555
O13 C22 1_555 1_555
O14 C22 1_555 1_555
O15 Co3 1_555 1_555
H3 O15 1_555 1_555
H4 O15 1_555 1_555
O16 C24 1_555 1_555
O17 C24 1_555 1_555
O18 C27 1_555 1_555
O19 C31 1_555 1_555
O20 C31 1_555 1_555
O21 C38 1_555 1_555
O22 C39 1_555 1_555
O23 C28 1_555 1_555
O24 Co1 1_555 1_555
H5 O24 1_555 1_555
H6 O24 1_555 1_555
O25 Co1 1_555 1_555
O26 C48 1_555 1_555
O27 C51 1_555 1_555
N1 Co2 1_555 1_555
N2 C14 1_555 1_555
N3 Co3 1_555 1_555
N4 C6 1_555 1_555
N5 C29 1_555 1_555
N6 C33 1_555 1_555
N7 Co1 1_555 1_555
N8 C41 1_555 1_555
C1 C20 1_555 1_555
C2 C3 1_555 1_555
C3 C4 1_555 1_555
C4 H7 1_555 1_555
C5 C4 1_555 1_555
C6 C3 1_555 1_555
H8 C6 1_555 1_555
C7 N1 1_555 1_555
H9 C7 1_555 1_555
C8 C7 1_555 1_555
C9 O6 1_555 1_555
H10 C9 1_555 1_555
H11 C9 1_555 1_555
C10 C8 1_555 1_555
H12 C10 1_555 1_555
C11 C10 1_555 1_555
C12 C11 1_555 1_555
C13 N1 1_555 1_555
H13 C13 1_555 1_555
C14 H14 1_555 1_555
C15 C14 1_555 1_555
C16 C15 1_555 1_555
C17 C15 1_555 1_555
H15 C17 1_555 1_555
C18 C17 1_555 1_555
C19 N2 1_555 1_555
H16 C19 1_555 1_555
C20 C21 1_555 1_555
C21 N3 1_555 1_555
H17 C21 1_555 1_555
C22 C35 1_555 1_555
C23 N4 1_555 1_555
H18 C23 1_555 1_555
C24 C25 1_555 1_555
C25 C26 1_555 1_555
C26 H19 1_555 1_555
C27 C26 1_555 1_555
C28 O18 1_555 1_555
H20 C28 1_555 1_555
H21 C28 1_555 1_555
C29 C27 1_555 1_555
H22 C29 1_555 1_555
C30 N5 1_555 1_555
H23 C30 1_555 1_555
C31 C32 1_555 1_555
C32 C43 1_555 1_555
C33 H24 1_555 1_555
C34 N6 1_555 1_555
H25 C34 1_555 1_555
C35 C36 1_555 1_555
C36 N7 1_555 1_555
H26 C36 1_555 1_555
C37 N7 1_555 1_555
H27 C37 1_555 1_555
C38 C37 1_555 1_555
C39 O21 1_555 1_555
H28 C39 1_555 1_555
H29 C39 1_555 1_555
C40 C35 1_555 1_555
H30 C40 1_555 1_555
C41 H31 1_555 1_555
C42 O22 1_555 1_555
C43 C42 1_555 1_555
H32 C43 1_555 1_555
C44 N8 1_555 1_555
H33 C44 1_555 1_555
C45 N3 1_555 1_555
H34 C45 1_555 1_555
C46 O23 1_555 1_555
C47 C20 1_555 1_555
H35 C47 1_555 1_555
C48 O25 1_555 1_555
C49 C34 1_555 1_555
C50 C49 1_555 1_555
H36 C50 1_555 1_555
C51 C33 1_555 1_555
C52 O8 1_555 1_555
H37 C52 1_555 1_555
H38 C52 1_555 1_555
N9 C54 1_555 1_555
C53 H39 1_555 1_555
H40 C53 1_555 1_555
H41 C53 1_555 1_555
C54 C53 1_555 1_555
Co1A O10 1_555 1_555
Co2A O9 1_555 1_555
Co2B O4 1_555 1_555
Co2C N2 1_555 1_555
Co3_2 O11 1_555 1_555
Co3B O17 1_555 1_555
Co3C N8 1_555 1_555
Co4_2 N6 1_555 1_555
Co4A O19 1_555 1_555
Co4B O16 1_555 1_555
Co4C N4 1_555 1_555
O4B Co2 1_555 1_555
O9A Co2 1_555 1_555
O10A Co1 1_555 1_555
O11_2 Co3 1_555 1_555
O16B Co4 1_555 1_555
O17B Co3 1_555 1_555
O19A Co4 1_555 1_555
N2C Co2 1_555 1_555
N4C Co4 1_555 1_555
N6_2 Co4 1_555 1_555
N8C Co3 1_555 1_555
Co2 O3 1_555 1_555
Co4 O15 1_555 1_555
O7 C9 1_555 1_555
O27 C52 1_555 1_555
C5 C23 1_555 1_555
C11 C13 1_555 1_555
C18 C19 1_555 1_555
C25 C30 1_555 1_555
C32 C44 1_555 1_555
C38 C40 1_555 1_555
C41 C42 1_555 1_555
C45 C46 1_555 1_555
C46 C47 1_555 1_555
C48 C49 1_555 1_555
C50 C51 1_555 1_555

#END
