
#######################################################################
#
#                 Cambridge Crystallographic Data Centre
#                                CCDC 
#
#######################################################################
#
# If this CIF has been generated from an entry in the Cambridge 
# Structural Database, then it will include bibliographic, chemical, 
# crystal, experimental, refinement or atomic coordinate data resulting 
# from the CCDC's data processing and validation procedures.
#
#######################################################################

data_FIHXUR
_symmetry_cell_setting           orthorhombic
_symmetry_space_group_name_H-M   'P n a 21'
_symmetry_Int_Tables_number      33
_space_group_name_Hall           'P 2c -2n'
loop_
_symmetry_equiv_pos_site_id
_symmetry_equiv_pos_as_xyz
1 x,y,z
2 -x,-y,1/2+z
3 1/2+x,1/2-y,z
4 1/2-x,1/2+y,1/2+z
_cell_length_a                   18.414(4)
_cell_length_b                   28.517(6)
_cell_length_c                   5.2133(10)
_cell_angle_alpha                90
_cell_angle_beta                 90
_cell_angle_gamma                90
_cell_volume                     2737.57
loop_
_atom_site_label
_atom_site_type_symbol
_atom_site_fract_x
_atom_site_fract_y
_atom_site_fract_z
Cd1 Cd 0.32975(2) 0.340094(13) 0.89788(14)
O1 O 0.4918(3) 0.4138(2) 0.9162(16)
O2 O 0.4357(2) 0.36253(18) 0.6716(9)
O3 O 0.3813(3) 0.38683(18) 1.2045(9)
H1 H 0.4099 0.4026 1.1099
H2 H 0.3901 0.3746 1.3498
O4 O 0.7324(2) 0.1810(2) 0.1391(8)
O5 O 0.7950(2) 0.19180(18) 0.4995(8)
N1 N 0.2329(3) -0.09378(19) 1.2597(11)
N2 N 0.2698(3) -0.0338(2) 1.0393(11)
N3 N 0.3289(3) -0.0489(3) 1.1673(16)
N4 N 0.4305(3) 0.20410(19) 1.0971(10)
N5 N 0.4673(3) 0.21206(19) 0.8718(14)
N6 N 0.3934(3) 0.27251(19) 0.9634(8)
C1 C 0.7363(3) 0.1881(2) 0.3752(13)
C2 C 0.6647(3) 0.1928(3) 0.5181(14)
H3 H 0.6709 0.1819 0.6931
H4 H 0.6285 0.1731 0.4365
C3 C 0.6379(3) 0.2438(2) 0.5211(12)
C4 C 0.6589(4) 0.2740(3) 0.7171(13)
H5 H 0.6903 0.2635 0.8446
C5 C 0.6331(4) 0.3194(3) 0.7224(13)
H6 H 0.6473 0.3393 0.8547
C6 C 0.5859(4) 0.3363(2) 0.5327(14)
C7 C 0.5674(4) 0.3065(3) 0.3403(13)
H7 H 0.5365 0.3171 0.2116
C8 C 0.5931(3) 0.2608(3) 0.3295(11)
H8 H 0.5802 0.2416 0.1930
C9 C 0.5557(3) 0.3851(3) 0.5549(15)
H9 H 0.5430 0.3963 0.3850
H10 H 0.5930 0.4056 0.6231
C10 C 0.4886(4) 0.3878(2) 0.7271(13)
C11 C 0.4421(4) 0.2531(2) 0.8049(13)
H11 H 0.4571 0.2681 0.6555
C12 C 0.3875(3) 0.2407(2) 1.1428(12)
H12 H 0.3571 0.2434 1.2845
C13 C 0.4439(5) 0.1610(2) 1.2463(14)
H13 H 0.4315 0.1664 1.4246
H14 H 0.4952 0.1532 1.2382
C14 C 0.3995(4) 0.1199(2) 1.1444(13)
C15 C 0.3275(4) 0.1127(2) 1.2298(14)
C16 C 0.2948(5) 0.1446(3) 1.435(2)
H15 H 0.2635 0.1265 1.5443
H16 H 0.2672 0.1690 1.3539
H17 H 0.3330 0.1582 1.5352
C17 C 0.2871(4) 0.0761(2) 1.1357(14)
C18 C 0.2107(4) 0.0689(3) 1.229(2)
H18 H 0.1935 0.0972 1.3076
H19 H 0.2098 0.0439 1.3523
H20 H 0.1800 0.0610 1.0866
C19 C 0.3179(4) 0.0458(3) 0.9573(12)
C20 C 0.3899(3) 0.0519(2) 0.8757(17)
C21 C 0.4300(3) 0.0895(2) 0.9625(12)
C22 C 0.5067(4) 0.0970(3) 0.875(3)
H21 H 0.5380 0.0997 1.0217
H22 H 0.5095 0.1253 0.7755
H23 H 0.5218 0.0709 0.7717
C23 C 0.4241(5) 0.0179(3) 0.688(2)
H24 H 0.4102 0.0262 0.5163
H25 H 0.4077 -0.0134 0.7248
H26 H 0.4760 0.0192 0.7033
C24 C 0.2734(4) 0.0053(3) 0.8542(18)
H27 H 0.2247 0.0162 0.8165
H28 H 0.2949 -0.0057 0.6954
C25 C 0.2148(4) -0.0599(3) 1.0965(15)
H29 H 0.1682 -0.0555 1.0316
C26 C 0.3045(4) -0.0841(3) 1.2989(16)
H30 H 0.3335 -0.1013 1.4106
Cd1B Cd 0.82975(2) 0.159906(13) -0.10212(14)
Cd1B_2 Cd 0.82975(2) 0.159906(13) 0.89788(14)
Cd1C Cd 0.17025(2) -0.159906(13) 1.39788(14)
O4B O 0.2324(2) 0.3190(2) 1.1391(8)
O5B O 0.2950(2) 0.30820(18) 0.4995(8)
N1C N 0.2671(3) 0.40622(19) 0.7597(11)
O6 O 0.4264(5) 0.5009(4) 0.365(4)
H31 H 0.4155 0.4728 0.3274
H32 H 0.4505 0.5262 0.3810
loop_
_geom_bond_atom_site_label_1
_geom_bond_atom_site_label_2
_geom_bond_site_symmetry_1
_geom_bond_site_symmetry_2
Cd1 O2 1_555 1_555
O1 C10 1_555 1_555
O2 C10 1_555 1_555
O3 Cd1 1_555 1_555
H1 O3 1_555 1_555
H2 O3 1_555 1_555
O4 C1 1_555 1_555
O5 C1 1_555 1_555
N1 C25 1_555 1_555
N2 N3 1_555 1_555
N3 C26 1_555 1_555
N4 N5 1_555 1_555
N5 C11 1_555 1_555
N6 Cd1 1_555 1_555
C1 C2 1_555 1_555
C2 H3 1_555 1_555
H4 C2 1_555 1_555
C3 C2 1_555 1_555
C4 C3 1_555 1_555
H5 C4 1_555 1_555
C5 C4 1_555 1_555
H6 C5 1_555 1_555
C6 C5 1_555 1_555
C7 C6 1_555 1_555
H7 C7 1_555 1_555
C8 C3 1_555 1_555
H8 C8 1_555 1_555
C9 C6 1_555 1_555
H9 C9 1_555 1_555
H10 C9 1_555 1_555
C10 C9 1_555 1_555
C11 N6 1_555 1_555
H11 C11 1_555 1_555
C12 N4 1_555 1_555
H12 C12 1_555 1_555
C13 N4 1_555 1_555
H13 C13 1_555 1_555
H14 C13 1_555 1_555
C14 C13 1_555 1_555
C15 C14 1_555 1_555
C16 C15 1_555 1_555
H15 C16 1_555 1_555
H16 C16 1_555 1_555
H17 C16 1_555 1_555
C17 C15 1_555 1_555
C18 C17 1_555 1_555
H18 C18 1_555 1_555
H19 C18 1_555 1_555
H20 C18 1_555 1_555
C19 C17 1_555 1_555
C20 C19 1_555 1_555
C21 C14 1_555 1_555
C22 C21 1_555 1_555
H21 C22 1_555 1_555
H22 C22 1_555 1_555
H23 C22 1_555 1_555
C23 C20 1_555 1_555
H24 C23 1_555 1_555
H25 C23 1_555 1_555
H26 C23 1_555 1_555
C24 N2 1_555 1_555
H27 C24 1_555 1_555
H28 C24 1_555 1_555
C25 N2 1_555 1_555
H29 C25 1_555 1_555
C26 N1 1_555 1_555
H30 C26 1_555 1_555
O6 H31 1_555 1_555
H32 O6 1_555 1_555
Cd1B O4 1_555 1_555
Cd1B_2 O5 1_555 1_555
Cd1C N1 1_555 1_555
O4B Cd1 1_555 1_555
O5B Cd1 1_555 1_555
N1C Cd1 1_555 1_555
N6 C12 1_555 1_555
C7 C8 1_555 1_555
C19 C24 1_555 1_555
C20 C21 1_555 1_555

#END
