
#######################################################################
#
#                 Cambridge Crystallographic Data Centre
#                                CCDC 
#
#######################################################################
#
# If this CIF has been generated from an entry in the Cambridge 
# Structural Database, then it will include bibliographic, chemical, 
# crystal, experimental, refinement or atomic coordinate data resulting 
# from the CCDC's data processing and validation procedures.
#
#######################################################################

data_FILYEG
_symmetry_cell_setting           monoclinic
_symmetry_space_group_name_H-M   'P 21/c'
_symmetry_Int_Tables_number      14
_space_group_name_Hall           '-P 2ybc'
loop_
_symmetry_equiv_pos_site_id
_symmetry_equiv_pos_as_xyz
1 x,y,z
2 -x,1/2+y,1/2-z
3 -x,-y,-z
4 x,1/2-y,1/2+z
_cell_length_a                   10.806(3)
_cell_length_b                   28.5540(14)
_cell_length_c                   24.3290(15)
_cell_angle_alpha                90
_cell_angle_beta                 93.658(5)
_cell_angle_gamma                90
_cell_volume                     7491.53
loop_
_atom_site_label
_atom_site_type_symbol
_atom_site_fract_x
_atom_site_fract_y
_atom_site_fract_z
C1 C -0.4518(9) 0.1430(4) 0.5639(4)
C2 C -0.5167(10) 0.1822(4) 0.5907(4)
C3 C -0.6099(13) 0.1744(4) 0.6262(5)
H1 H -0.6313 0.1439 0.6352
C4 C -0.6699(14) 0.2108(5) 0.6478(6)
H2 H -0.7344 0.2052 0.6704
C5 C -0.6378(13) 0.2554(5) 0.6370(5)
H3 H -0.6814 0.2799 0.6518
C6 C -0.5429(11) 0.2650(4) 0.6048(5)
C7 C -0.5054(12) 0.3135(4) 0.5928(5)
C8 C -0.4718(10) 0.3565(4) 0.4365(4)
C9 C -0.5430(10) 0.3184(4) 0.4078(4)
C10 C -0.6374(13) 0.3264(5) 0.3678(5)
H4 H -0.6581 0.3569 0.3574
C11 C -0.6992(14) 0.2899(5) 0.3441(6)
H5 H -0.7630 0.2956 0.3175
C12 C -0.6697(12) 0.2435(4) 0.3587(5)
H6 H -0.7182 0.2190 0.3442
C13 C -0.5729(9) 0.2345(3) 0.3932(4)
C14 C -0.5364(10) 0.1863(4) 0.4083(4)
C15 C -0.5070(11) 0.2714(4) 0.4185(5)
H7 H -0.4387 0.2652 0.4426
C16 C -0.7069(10) 0.0475(4) 0.5041(4)
C17 C -0.8091(11) 0.0398(4) 0.5363(4)
C18 C -0.9284(9) 0.0566(4) 0.5215(4)
H8 H -0.9405 0.0747 0.4898
C19 C -1.0272(10) 0.0475(4) 0.5517(4)
O1 O -0.4520(7) 0.0076(3) 0.6060(3)
C20 C -1.0164(11) 0.0198(5) 0.5982(5)
H9 H -1.0850 0.0114 0.6171
C21 C -0.8926(14) 0.0048(5) 0.6157(6)
H10 H -0.8813 -0.0127 0.6478
C22 C -0.7930(12) 0.0150(4) 0.5877(5)
H11 H -0.7142 0.0060 0.6014
C23 C -0.4342(10) -0.0130(4) 0.6487(4)
C24 C -0.4459(14) 0.0134(4) 0.7008(5)
C25 C -0.472(2) 0.0612(5) 0.7003(6)
H12 H -0.4846 0.0769 0.6670
C26 C -0.4784(15) 0.0852(6) 0.7498(6)
H13 H -0.4724 0.1177 0.7512
C27 C -0.4947(14) 0.0584(5) 0.7985(6)
H14 H -0.5280 0.0721 0.8289
C28 C -0.4609(14) 0.0122(4) 0.7998(4)
C29 C -0.4620(10) -0.0141(4) 0.8520(4)
C30 C -0.4431(15) -0.0106(4) 0.7508(5)
H15 H -0.4290 -0.0427 0.7512
C31 C -0.4816(12) 0.2284(4) 0.5813(5)
H16 H -0.4165 0.2346 0.5592
C32 C -0.0478(11) 0.4534(4) 0.4482(4)
C33 C -0.1633(9) 0.4416(4) 0.4672(4)
C34 C -0.0484(12) 0.4818(5) 0.4027(5)
H17 H -0.1221 0.4911 0.3841
C35 C 0.0714(12) 0.4966(6) 0.3849(5)
H18 H 0.0724 0.5138 0.3525
C36 C 0.1816(11) 0.4872(5) 0.4122(4)
H19 H 0.2564 0.4971 0.3993
C37 C 0.0670(8) 0.4436(3) 0.4773(4)
H20 H 0.0671 0.4244 0.5082
C38 C 0.2917(11) 0.4529(4) 0.4946(5)
C39 C -1.1573(9) 0.0613(4) 0.5323(4)
O2 O -1.2476(6) 0.0479(2) 0.5543(3)
O3 O -0.4816(7) 0.0064(3) 0.8950(3)
O4 O -0.7161(7) 0.0768(3) 0.4649(3)
O5 O -0.6106(6) 0.0214(2) 0.5113(3)
O6 O -0.4990(7) 0.1030(2) 0.5663(3)
O7 O -0.3605(8) 0.1534(3) 0.5404(4)
O8 O -0.4328(10) 0.1815(4) 0.4328(5)
O9 O -0.6059(8) 0.1541(3) 0.3962(4)
O10 O -0.5170(7) 0.3971(2) 0.4317(3)
O11 O -0.3779(8) 0.3461(3) 0.4614(4)
O12 O -0.2634(7) 0.4526(3) 0.4438(3)
O13 O -0.1582(7) 0.4077(3) 0.5066(3)
O14 O -0.4042(10) 0.3189(3) 0.5715(5)
O15 O -0.5781(9) 0.3445(3) 0.5996(4)
O16 O 0.3854(6) 0.4789(2) 0.4875(3)
O17 O 0.2923(7) 0.4217(2) 0.5328(3)
O18 O -0.4392(9) -0.0569(3) 0.8486(3)
O19 O -0.4084(6) 0.4234(2) 0.5424(2)
O20 O -0.4186(6) 0.0763(2) 0.4567(3)
O21 O -0.4066(9) -0.0558(3) 0.6534(3)
Co1 Co -0.43782(12) 0.45492(4) 0.46562(5)
Co2 Co -0.42827(12) 0.04517(4) 0.53349(5)
Co3 Co -0.55845(13) 0.41065(4) 0.58015(5)
Co4 Co -0.58070(13) 0.08870(4) 0.41781(5)
Co5 Co -0.29020(14) 0.36609(5) 0.53673(6)
Co6 Co -0.30214(14) 0.13449(5) 0.46344(6)
O22 O -1.1612(7) 0.0929(3) 0.4916(3)
C40 C 0.1763(10) 0.4609(4) 0.4623(4)
O23 O -0.1623(13) 0.1873(4) 0.4653(5)
O24 O -0.1575(11) 0.3133(4) 0.5298(5)
O25 O -0.2136(12) 0.3815(4) 0.6179(5)
O26 O -0.2583(12) 0.1194(5) 0.3792(5)
O2_2 O -0.2476(6) 0.0479(2) 0.5543(3)
O3C O -0.4816(7) 0.4936(3) 0.3950(3)
O5B O -0.3894(6) -0.0214(2) 0.4887(3)
O16_2 O -0.6146(6) 0.4789(2) 0.4875(3)
O16B O -0.3854(6) 0.5211(2) 0.5125(3)
O17_2 O -0.7077(7) 0.4217(2) 0.5328(3)
O18A O -0.5608(9) 0.4431(3) 0.6514(3)
O21B O -0.5934(9) 0.0558(3) 0.3466(3)
Co1_2 Co 0.56218(12) 0.45492(4) 0.46562(5)
Co1B Co 0.43782(12) 0.54508(4) 0.53438(5)
Co1C Co -0.43782(12) 0.04508(4) 0.96562(5)
Co2_2 Co -1.42827(12) 0.04517(4) 0.53349(5)
Co2B Co -0.57173(12) -0.04517(4) 0.46651(5)
Co3_2 Co 0.44155(13) 0.41065(4) 0.58015(5)
Co3A Co -0.44155(13) -0.08935(4) 0.91985(5)
Co4B Co -0.41930(13) -0.08870(4) 0.58219(5)
Co6_2 Co -1.30214(14) 0.13449(5) 0.46344(6)
O22_2 O -0.1612(7) 0.0929(3) 0.4916(3)
loop_
_geom_bond_atom_site_label_1
_geom_bond_atom_site_label_2
_geom_bond_site_symmetry_1
_geom_bond_site_symmetry_2
C1 C2 1_555 1_555
C2 C3 1_555 1_555
C3 H1 1_555 1_555
C4 C3 1_555 1_555
H2 C4 1_555 1_555
C5 C4 1_555 1_555
H3 C5 1_555 1_555
C6 C5 1_555 1_555
C7 C6 1_555 1_555
C8 C9 1_555 1_555
C9 C10 1_555 1_555
C10 H4 1_555 1_555
C11 C10 1_555 1_555
H5 C11 1_555 1_555
C12 C11 1_555 1_555
H6 C12 1_555 1_555
C13 C12 1_555 1_555
C14 C13 1_555 1_555
C15 C9 1_555 1_555
H7 C15 1_555 1_555
C16 C17 1_555 1_555
C17 C18 1_555 1_555
C18 H8 1_555 1_555
C19 C18 1_555 1_555
O1 C23 1_555 1_555
C20 C19 1_555 1_555
H9 C20 1_555 1_555
C21 C20 1_555 1_555
H10 C21 1_555 1_555
C22 C17 1_555 1_555
H11 C22 1_555 1_555
C23 C24 1_555 1_555
C24 C25 1_555 1_555
C25 H12 1_555 1_555
C26 C25 1_555 1_555
H13 C26 1_555 1_555
C27 C26 1_555 1_555
H14 C27 1_555 1_555
C28 C27 1_555 1_555
C29 C28 1_555 1_555
C30 C24 1_555 1_555
H15 C30 1_555 1_555
C31 C2 1_555 1_555
H16 C31 1_555 1_555
C32 C33 1_555 1_555
C33 O12 1_555 1_555
C34 C32 1_555 1_555
H17 C34 1_555 1_555
C35 C34 1_555 1_555
H18 C35 1_555 1_555
C36 C35 1_555 1_555
H19 C36 1_555 1_555
C37 C32 1_555 1_555
H20 C37 1_555 1_555
C38 O16 1_555 1_555
C39 C19 1_555 1_555
O2 C39 1_555 1_555
O3 C29 1_555 1_555
O4 C16 1_555 1_555
O5 C16 1_555 1_555
O6 C1 1_555 1_555
O7 C1 1_555 1_555
O8 C14 1_555 1_555
O9 C14 1_555 1_555
O10 C8 1_555 1_555
O11 C8 1_555 1_555
O12 Co1 1_555 1_555
O13 C33 1_555 1_555
O14 C7 1_555 1_555
O15 C7 1_555 1_555
O16 Co1_2 1_555 1_555
O17 C38 1_555 1_555
O18 C29 1_555 1_555
O19 Co1 1_555 1_555
O20 Co2 1_555 1_555
O21 C23 1_555 1_555
Co1 O10 1_555 1_555
Co2 O1 1_555 1_555
Co3 O15 1_555 1_555
Co4 O4 1_555 1_555
Co5 O11 1_555 1_555
Co6 O7 1_555 1_555
O22 C39 1_555 1_555
C40 C36 1_555 1_555
O23 Co6 1_555 1_555
O24 Co5 1_555 1_555
O25 Co5 1_555 1_555
O26 Co6 1_555 1_555
O2_2 Co2 1_555 1_555
O3C Co1 1_555 1_555
O5B Co2 1_555 1_555
O16_2 Co1 1_555 1_555
O16B Co1 1_555 1_555
O17_2 Co3 1_555 1_555
O18A Co3 1_555 1_555
O21B Co4 1_555 1_555
Co1B O16 1_555 1_555
Co1C O3 1_555 1_555
Co2_2 O2 1_555 1_555
Co2B O5 1_555 1_555
Co3_2 O17 1_555 1_555
Co3A O18 1_555 1_555
Co4B O21 1_555 1_555
Co6_2 O22 1_555 1_555
O22_2 Co6 1_555 1_555
C6 C31 1_555 1_555
C13 C15 1_555 1_555
C21 C22 1_555 1_555
C28 C30 1_555 1_555
C37 C40 1_555 1_555
C38 C40 1_555 1_555
O5 Co2 1_555 1_555
O6 Co2 1_555 1_555
O8 Co6 1_555 1_555
O9 Co4 1_555 1_555
O13 Co5 1_555 1_555
O14 Co5 1_555 1_555
O19 Co3 1_555 1_555
O19 Co5 1_555 1_555
O20 Co4 1_555 1_555
O20 Co6 1_555 1_555
O5B Co2B 1_555 1_555

#END
