
#######################################################################
#
#                 Cambridge Crystallographic Data Centre
#                                CCDC 
#
#######################################################################
#
# If this CIF has been generated from an entry in the Cambridge 
# Structural Database, then it will include bibliographic, chemical, 
# crystal, experimental, refinement or atomic coordinate data resulting 
# from the CCDC's data processing and validation procedures.
#
#######################################################################

data_FIMXUW
_symmetry_cell_setting           monoclinic
_symmetry_space_group_name_H-M   'C 2/c'
_symmetry_Int_Tables_number      15
_space_group_name_Hall           '-C 2yn'
loop_
_symmetry_equiv_pos_site_id
_symmetry_equiv_pos_as_xyz
1 x,y,z
2 -x,y,1/2-z
3 1/2+x,1/2+y,z
4 1/2-x,1/2+y,1/2-z
5 -x,-y,-z
6 x,-y,1/2+z
7 1/2-x,1/2-y,-z
8 1/2+x,1/2-y,1/2+z
_cell_length_a                   27.0959(17)
_cell_length_b                   10.5672(3)
_cell_length_c                   18.1032(11)
_cell_angle_alpha                90
_cell_angle_beta                 120.402(9)
_cell_angle_gamma                90
_cell_volume                     4470.7
loop_
_atom_site_label
_atom_site_type_symbol
_atom_site_fract_x
_atom_site_fract_y
_atom_site_fract_z
La1 La 0.168044(17) 0.06998(3) 0.13416(2)
La2 La 0.177017(18) -0.23476(3) 0.28530(3)
O1 O 0.1883(3) -0.1106(5) 0.4094(4)
O2 O 0.1677(3) -0.0265(5) 0.5008(3)
O3 O 0.2184(2) -0.0199(4) 0.2888(3)
O4 O 0.2985(2) 0.0171(5) 0.4113(3)
O5 O 0.2389(2) 0.2310(4) 0.2449(3)
O6 O 0.3068(2) 0.3363(4) 0.3534(3)
O7 O 0.2275(2) 0.5312(4) 0.3197(3)
O8 O 0.1798(3) 0.5835(4) 0.3827(4)
O9 O 0.1032(2) 0.1352(5) 0.1921(3)
O10 O 0.1040(2) -0.0722(4) 0.1836(3)
O11 O 0.0823(3) -0.2651(6) 0.2662(6)
O12 O 0.0019(4) -0.2556(11) 0.1413(9)
O13 O 0.0670(3) -0.0013(11) 0.0099(4)
H1 H 0.0674 0.0785 0.0159
H2 H 0.0896 -0.0368 0.0574
O14 O 0.2165(2) 0.2563(4) 0.0810(3)
H3 H 0.2079 0.2372 0.0302
H4 H 0.1958 0.3224 0.0635
O15 O 0.1078(4) 0.2643(9) 0.0664(7)
H5 H 0.0928 0.3081 0.0893
H6 H 0.0998 0.2691 0.0146
O16 O 0.1276(3) -0.3841(6) 0.1553(4)
H7 H 0.1042 -0.4399 0.1526
H8 H 0.1308 -0.4210 0.1162
C1 C 0.1851(3) 0.1146(6) 0.4172(4)
C2 C 0.1587(3) 0.2125(6) 0.4339(4)
C3 C 0.1643(3) 0.3364(6) 0.4147(4)
C4 C 0.1974(3) 0.3651(6) 0.3783(4)
C5 C 0.2238(3) 0.2680(6) 0.3598(4)
C6 C 0.2174(3) 0.1415(6) 0.3786(4)
C7 C 0.1799(3) -0.0166(6) 0.4435(4)
C8 C 0.2474(3) 0.0390(6) 0.3592(4)
C9 C 0.2589(3) 0.2842(5) 0.3181(4)
C10 C 0.2023(3) 0.5015(6) 0.3598(4)
C11 C 0.0208(4) 0.1350(8) 0.2391(6)
C12 C 0.0406(3) 0.0242(7) 0.2249(4)
C13 C 0.0196(3) -0.0902(7) 0.2361(5)
C14 C 0.0854(3) 0.0294(7) 0.1986(4)
C15 C 0.0367(5) -0.2139(10) 0.2133(9)
H9 H 0.1366 0.1950 0.4587
H10 H 0.1457 0.4008 0.4262
H11 H 0.0358 0.2114 0.2339
O9A O -0.1032(2) 0.1352(5) 0.3079(3)
O10A O -0.1040(2) -0.0722(4) 0.3164(3)
O11A O -0.0823(3) -0.2651(6) 0.2338(6)
O12A O -0.0019(4) -0.2556(11) 0.3587(9)
C11A C -0.0208(4) 0.1350(8) 0.2609(6)
C12A C -0.0406(3) 0.0242(7) 0.2751(4)
C13A C -0.0196(3) -0.0902(7) 0.2639(5)
C14A C -0.0854(3) 0.0294(7) 0.3014(4)
C15A C -0.0367(5) -0.2139(10) 0.2867(9)
H11A H -0.0358 0.2114 0.2661
La1A La -0.168044(17) 0.06998(3) 0.36584(2)
La2A La -0.177017(18) -0.23476(3) 0.21470(3)
O1A O -0.1883(3) -0.1106(5) 0.0906(4)
O2A O -0.1677(3) -0.0265(5) -0.0008(3)
O3A O -0.2184(2) -0.0199(4) 0.2112(3)
O4A O -0.2985(2) 0.0171(5) 0.0887(3)
O5A O -0.2389(2) 0.2310(4) 0.2551(3)
O6A O -0.3068(2) 0.3363(4) 0.1466(3)
O7A O -0.2275(2) 0.5312(4) 0.1803(3)
O8A O -0.1798(3) 0.5835(4) 0.1173(4)
O13A O -0.0670(3) -0.0013(11) 0.4901(4)
H1A H -0.0674 0.0785 0.4841
H2A H -0.0896 -0.0368 0.4426
O14A O -0.2165(2) 0.2563(4) 0.4190(3)
H3A H -0.2079 0.2372 0.4698
H4A H -0.1958 0.3224 0.4365
O15A O -0.1078(4) 0.2643(9) 0.4336(7)
H5A H -0.0928 0.3081 0.4107
H6A H -0.0998 0.2691 0.4854
O16A O -0.1276(3) -0.3841(6) 0.3447(4)
H7A H -0.1042 -0.4399 0.3474
H8A H -0.1308 -0.4210 0.3838
C1A C -0.1851(3) 0.1146(6) 0.0828(4)
C2A C -0.1587(3) 0.2125(6) 0.0661(4)
C3A C -0.1643(3) 0.3364(6) 0.0853(4)
C4A C -0.1974(3) 0.3651(6) 0.1217(4)
C5A C -0.2238(3) 0.2680(6) 0.1402(4)
C6A C -0.2174(3) 0.1415(6) 0.1214(4)
C7A C -0.1799(3) -0.0166(6) 0.0565(4)
C8A C -0.2474(3) 0.0390(6) 0.1408(4)
C9A C -0.2589(3) 0.2842(5) 0.1819(4)
C10A C -0.2023(3) 0.5015(6) 0.1402(4)
H9A H -0.1366 0.1950 0.0413
H10A H -0.1457 0.4008 0.0738
La1B La -0.331956(17) 0.56998(3) 0.13416(2)
La1C La 0.331956(17) 0.56998(3) 0.36584(2)
La1D La -0.168044(17) -0.06998(3) -0.13416(2)
La1E La 0.168044(17) -0.06998(3) 0.63416(2)
La2_2 La 0.177017(18) 0.76524(3) 0.28530(3)
La2A_2 La -0.177017(18) 0.76524(3) 0.21470(3)
La2B La -0.322983(18) 0.26524(3) 0.28530(3)
La2C La 0.322983(18) 0.26524(3) 0.21470(3)
O2D O -0.1677(3) 0.0265(5) 0.4992(3)
O2E O 0.1677(3) 0.0265(5) 0.0008(3)
O5B O -0.2611(2) -0.2690(4) 0.2449(3)
O5C O 0.2611(2) -0.2690(4) 0.2551(3)
O6B O -0.1932(2) -0.1637(4) 0.3534(3)
O6C O 0.1932(2) -0.1637(4) 0.1466(3)
O7_2 O 0.2275(2) -0.4688(4) 0.3197(3)
O7A_2 O -0.2275(2) -0.4688(4) 0.1803(3)
O7B O -0.2725(2) 0.0312(4) 0.3197(3)
O7C O 0.2725(2) 0.0312(4) 0.1803(3)
O8_2 O 0.1798(3) -0.4165(4) 0.3827(4)
O8A_2 O -0.1798(3) -0.4165(4) 0.1173(4)
O14B O -0.2835(2) -0.2437(4) 0.0810(3)
O14C O 0.2835(2) -0.2437(4) 0.4190(3)
O17 O 0.9054(3) 0.6126(7) 0.0711(5)
H12 H 0.8769 0.5908 0.0757
H13 H 0.9400 0.6808 0.0981
O18 O 0.0273(5) 0.7660(14) 0.0076(7)
H14 H 0.0094 0.7943 0.0316
H15 H 0.0267 0.6908 -0.0095
O19 O 0.9383(12) 0.5775(13) 0.8393(18)
H16 H 0.9530 0.5650 0.8081
H17 H 0.9282 0.6492 0.8320
O20 O 0.0000 0.533(2) 0.7500
H18 H 0.0242 0.4959 0.7957
H18A H -0.0242 0.4959 0.7043
H19? H 0.0242 0.4961 0.7958
loop_
_geom_bond_atom_site_label_1
_geom_bond_atom_site_label_2
_geom_bond_site_symmetry_1
_geom_bond_site_symmetry_2
La1 O3 1_555 1_555
La2 O1 1_555 1_555
O1 C7 1_555 1_555
O2 C7 1_555 1_555
O3 La2 1_555 1_555
O4 C8 1_555 1_555
O5 La1 1_555 1_555
O6 C9 1_555 1_555
O7 C10 1_555 1_555
O8 C10 1_555 1_555
O9 La1 1_555 1_555
O10 La1 1_555 1_555
O11 La2 1_555 1_555
O12 C15 1_555 1_555
O13 La1 1_555 1_555
H1 O13 1_555 1_555
H2 O13 1_555 1_555
O14 La1 1_555 1_555
H3 O14 1_555 1_555
H4 O14 1_555 1_555
O15 La1 1_555 1_555
H5 O15 1_555 1_555
H6 O15 1_555 1_555
O16 La2 1_555 1_555
H7 O16 1_555 1_555
H8 O16 1_555 1_555
C1 C2 1_555 1_555
C2 C3 1_555 1_555
C3 C4 1_555 1_555
C4 C5 1_555 1_555
C5 C6 1_555 1_555
C6 C1 1_555 1_555
C7 C1 1_555 1_555
C8 O3 1_555 1_555
C9 O5 1_555 1_555
C10 C4 1_555 1_555
C11 C12 1_555 1_555
C12 C13 1_555 1_555
C13 C15 1_555 1_555
C14 O9 1_555 1_555
C15 O11 1_555 1_555
H9 C2 1_555 1_555
H10 C3 1_555 1_555
H11 C11 1_555 1_555
O17 H12 1_555 1_555
H13 O17 1_555 1_555
O18 H14 1_555 1_555
H15 O18 1_555 1_555
O19 H16 1_555 1_555
H17 O19 1_555 1_555
O20 H18 1_555 1_555
O9A C14A 1_555 1_555
O10A C14A 1_555 1_555
O11A C15A 1_555 1_555
O12A C15A 1_555 1_555
C11A C11 1_555 1_555
C12A C11A 1_555 1_555
C13A C13 1_555 1_555
C14A C12A 1_555 1_555
C15A C13A 1_555 1_555
H11A C11A 1_555 1_555
La1A O9A 1_555 1_555
La2A O10A 1_555 1_555
O1A La2A 1_555 1_555
O2A C7A 1_555 1_555
O3A La1A 1_555 1_555
O4A C8A 1_555 1_555
O5A La1A 1_555 1_555
O6A C9A 1_555 1_555
O7A C10A 1_555 1_555
O8A C10A 1_555 1_555
O13A La1A 1_555 1_555
H1A O13A 1_555 1_555
H2A O13A 1_555 1_555
O14A La1A 1_555 1_555
H3A O14A 1_555 1_555
H4A O14A 1_555 1_555
O15A La1A 1_555 1_555
H5A O15A 1_555 1_555
H6A O15A 1_555 1_555
O16A La2A 1_555 1_555
H7A O16A 1_555 1_555
H8A O16A 1_555 1_555
C1A C2A 1_555 1_555
C2A C3A 1_555 1_555
C3A C4A 1_555 1_555
C4A C5A 1_555 1_555
C5A C6A 1_555 1_555
C6A C1A 1_555 1_555
C7A O1A 1_555 1_555
C8A O3A 1_555 1_555
C9A O5A 1_555 1_555
C10A C4A 1_555 1_555
H9A C2A 1_555 1_555
H10A C3A 1_555 1_555
La1B O6A 1_555 1_555
La1C O6 1_555 1_555
La1D O2A 1_555 1_555
La1E O2 1_555 1_555
La2_2 O7 1_555 1_555
La2A_2 O7A 1_555 1_555
La2B O5A 1_555 1_555
La2C O5 1_555 1_555
O2D La1A 1_555 1_555
O2E La1 1_555 1_555
O5B La2A 1_555 1_555
O5C La2 1_555 1_555
O6B La1A 1_555 1_555
O6C La1 1_555 1_555
O7_2 La2 1_555 1_555
O7A_2 La2A 1_555 1_555
O7B La1A 1_555 1_555
O7C La1 1_555 1_555
O8_2 La2 1_555 1_555
O8A_2 La2A 1_555 1_555
O14B La2A 1_555 1_555
O14C La2 1_555 1_555
H18A O20 1_555 1_555
La2 O10 1_555 1_555
La2 O6C 1_555 1_555
O6 La2C 1_555 1_555
O7 La1C 1_555 1_555
O8 La2_2 1_555 1_555
O10 C14 1_555 1_555
O14 La2C 1_555 1_555
C5 C9 1_555 1_555
C6 C8 1_555 1_555
C12 C14 1_555 1_555
O10A La1A 1_555 1_555
O11A La2A 1_555 1_555
C12A C13A 1_555 1_555
La2A O3A 1_555 1_555
La2A O6B 1_555 1_555
O6A La2B 1_555 1_555
O7A La1B 1_555 1_555
O8A La2A_2 1_555 1_555
O14A La2B 1_555 1_555
C1A C7A 1_555 1_555
C5A C9A 1_555 1_555
C6A C8A 1_555 1_555
La2B O7B 1_555 1_555
La2C O7C 1_555 1_555

#END
