
#######################################################################
#
#                 Cambridge Crystallographic Data Centre
#                                CCDC 
#
#######################################################################
#
# If this CIF has been generated from an entry in the Cambridge 
# Structural Database, then it will include bibliographic, chemical, 
# crystal, experimental, refinement or atomic coordinate data resulting 
# from the CCDC's data processing and validation procedures.
#
#######################################################################

data_FIMYAD
_symmetry_cell_setting           monoclinic
_symmetry_space_group_name_H-M   'P 2/c'
_symmetry_Int_Tables_number      13
_space_group_name_Hall           '-P 2yc'
loop_
_symmetry_equiv_pos_site_id
_symmetry_equiv_pos_as_xyz
1 x,y,z
2 -x,y,1/2-z
3 -x,-y,-z
4 x,-y,1/2+z
_cell_length_a                   12.243(2)
_cell_length_b                   9.5530(19)
_cell_length_c                   18.947(4)
_cell_angle_alpha                90
_cell_angle_beta                 101.88(3)
_cell_angle_gamma                90
_cell_volume                     2168.53
loop_
_atom_site_label
_atom_site_type_symbol
_atom_site_fract_x
_atom_site_fract_y
_atom_site_fract_z
Ni1 Ni 0.5000 0.0000 0.0000
N1 N 0.6696(3) 0.0323(5) 0.0128(2)
H1 H 0.6838 0.1270 0.0216
N2 N 0.5040(4) -0.0001(4) 0.1088(2)
H2 H 0.5066 0.0924 0.1245
N3 N 0.7080(4) -0.0213(5) 0.1420(3)
C1 C 0.6955(4) -0.0019(5) -0.0573(3)
H3 H 0.6983 -0.1047 -0.0632
H4 H 0.7691 0.0375 -0.0606
C2 C 0.7368(4) -0.0487(6) 0.0737(3)
H5 H 0.7267 -0.1498 0.0628
H6 H 0.8167 -0.0264 0.0772
C3 C 0.6014(4) -0.0747(6) 0.1516(3)
H7 H 0.5983 -0.0683 0.2033
H8 H 0.5961 -0.1749 0.1380
C4 C 0.3955(4) -0.0604(6) 0.1161(3)
H9 H 0.3804 -0.0381 0.1642
H10 H 0.3970 -0.1635 0.1109
C5 C 0.7390(6) 0.1162(8) 0.1705(4)
H11 H 0.6930 0.1862 0.1391
H12 H 0.8180 0.1333 0.1681
C6 C 0.7265(12) 0.1388(14) 0.2439(7)
H13 H 0.7733 0.0855 0.2804
C7 C 0.6591(15) 0.223(2) 0.2641(11)
H14 H 0.6105 0.2782 0.2296
H15 H 0.6570 0.2301 0.3138
Ni2 Ni 1.0000 0.5000 0.0000
N4 N 1.0278(3) 0.7073(4) 0.0275(2)
H16 H 1.1017 0.7273 0.0263
N5 N 1.0735(3) 0.4293(4) 0.1018(2)
H17 H 1.1505 0.4299 0.1054
N6 N 1.0776(3) 0.6625(5) 0.1572(2)
C8 C 0.9564(4) 0.7860(5) -0.0319(3)
H18 H 0.9822 0.8842 -0.0317
H19 H 0.8782 0.7862 -0.0253
C9 C 1.0109(4) 0.7425(5) 0.1007(3)
H20 H 1.0278 0.8430 0.1099
H21 H 0.9313 0.7280 0.1020
C10 C 1.0484(4) 0.5166(5) 0.1610(3)
H22 H 0.9676 0.5098 0.1605
H23 H 1.0891 0.4780 0.2075
C11 C 1.0376(4) 0.2825(5) 0.1033(3)
H24 H 0.9602 0.2783 0.1112
H25 H 1.0868 0.2322 0.1434
C12 C 1.1975(4) 0.6925(7) 0.1684(3)
H26 H 1.2082 0.7946 0.1637
H27 H 1.2283 0.6453 0.1303
C13 C 1.2607(5) 0.6453(8) 0.2406(3)
H28 H 1.2319 0.6665 0.2822
C14 C 1.3549(6) 0.5754(10) 0.2483(4)
H29 H 1.3849 0.5533 0.2072
H30 H 1.3930 0.5469 0.2949
O1 O 0.4803(3) 0.2184(4) -0.0093(2)
O2 O 0.5025(7) 0.3051(5) 0.1004(3)
O3 O 0.8442(2) 0.5213(3) 0.0300(2)
O4 O 0.7596(2) 0.3132(3) 0.00992(19)
C15 C 0.5051(9) 0.3125(7) 0.0343(4)
C16 C 0.5500(4) 0.4662(9) -0.0029(4)
H31 H 0.5574 0.4536 -0.0541
C17 C 0.6582(3) 0.5045(4) 0.0459(3)
H32 H 0.6550 0.4756 0.0956
H33 H 0.6660 0.6077 0.0459
C18 C 0.7613(3) 0.4403(4) 0.0264(2)
N1B N 0.3304(3) -0.0323(5) -0.0128(2)
H1B H 0.3162 -0.1270 -0.0216
N2B N 0.4960(4) 0.0001(4) -0.1088(2)
H2B H 0.4934 -0.0924 -0.1245
N3B N 0.2920(4) 0.0213(5) -0.1420(3)
C1B C 0.3045(4) 0.0019(5) 0.0573(3)
H3B H 0.3017 0.1047 0.0632
H4B H 0.2309 -0.0375 0.0606
C2B C 0.2632(4) 0.0487(6) -0.0737(3)
H5B H 0.2733 0.1498 -0.0628
H6B H 0.1833 0.0264 -0.0772
C3B C 0.3986(4) 0.0747(6) -0.1516(3)
H7B H 0.4017 0.0683 -0.2033
H8B H 0.4039 0.1749 -0.1380
C4B C 0.6045(4) 0.0604(6) -0.1161(3)
H9B H 0.6196 0.0381 -0.1642
H10B H 0.6030 0.1635 -0.1109
C5B C 0.2610(6) -0.1162(8) -0.1705(4)
H11B H 0.3070 -0.1862 -0.1391
H12B H 0.1820 -0.1333 -0.1681
C6B C 0.2735(12) -0.1388(14) -0.2439(7)
H13B H 0.2267 -0.0855 -0.2804
C7B C 0.3409(15) -0.223(2) -0.2641(11)
H14B H 0.3895 -0.2782 -0.2296
H15B H 0.3430 -0.2301 -0.3138
N4B N 0.9722(3) 0.2927(4) -0.0275(2)
H16B H 0.8983 0.2727 -0.0263
N5B N 0.9265(3) 0.5707(4) -0.1018(2)
H17B H 0.8495 0.5701 -0.1054
N6B N 0.9224(3) 0.3375(5) -0.1572(2)
C8B C 1.0436(4) 0.2140(5) 0.0319(3)
H18B H 1.0178 0.1158 0.0317
H19B H 1.1218 0.2138 0.0253
C9B C 0.9891(4) 0.2575(5) -0.1007(3)
H20B H 0.9722 0.1570 -0.1099
H21B H 1.0687 0.2720 -0.1020
C10B C 0.9516(4) 0.4834(5) -0.1610(3)
H22B H 1.0324 0.4902 -0.1605
H23B H 0.9109 0.5220 -0.2075
C11B C 0.9624(4) 0.7175(5) -0.1033(3)
H24B H 1.0398 0.7217 -0.1112
H25B H 0.9132 0.7678 -0.1434
C12B C 0.8025(4) 0.3075(7) -0.1684(3)
H26B H 0.7918 0.2054 -0.1637
H27B H 0.7717 0.3547 -0.1303
C13B C 0.7393(5) 0.3547(8) -0.2406(3)
H28B H 0.7681 0.3335 -0.2822
C14B C 0.6451(6) 0.4246(10) -0.2483(4)
H29B H 0.6151 0.4467 -0.2072
H30B H 0.6070 0.4531 -0.2949
O1B O 0.5197(3) 0.7816(4) 0.0093(2)
O2B O 0.4975(7) 0.6949(5) -0.1004(3)
O3B O 0.1558(2) 0.4787(3) -0.0300(2)
O4B O 0.2404(2) 0.6868(3) -0.00992(19)
C15B C 0.4949(9) 0.6875(7) -0.0343(4)
C16B C 0.4500(4) 0.5338(9) 0.0029(4)
H31B H 0.4426 0.5464 0.0541
C17B C 0.3418(3) 0.4955(4) -0.0459(3)
H32B H 0.3450 0.5244 -0.0956
H33B H 0.3340 0.3923 -0.0459
C18B C 0.2387(3) 0.5597(4) -0.0264(2)
Ni1_2 Ni 0.5000 1.0000 0.0000
Ni2_2 Ni 0.0000 0.5000 0.0000
O1B_2 O 0.5197(3) -0.2184(4) 0.0093(2)
O3B_2 O 1.1558(2) 0.4787(3) -0.0300(2)
O5 O 0.6942(10) 0.3213(16) 0.3693(9)
C19? C 0.7390(6) 0.1162(8) 0.1705(4)
H34? H 0.6898 0.1476 0.2029
H35? H 0.7358 0.1855 0.1313
C20? C 0.8726(15) 0.093(2) 0.2170(7)
H36? H 0.9091 0.1777 0.2341
H37? H 0.9038 -0.1035 0.2186
H38? H 1.0067 -0.0037 0.2601
C21? C 0.9325(18) -0.0133(18) 0.2332(9)
loop_
_geom_bond_atom_site_label_1
_geom_bond_atom_site_label_2
_geom_bond_site_symmetry_1
_geom_bond_site_symmetry_2
Ni1 N1 1_555 1_555
N1 H1 1_555 1_555
N2 Ni1 1_555 1_555
H2 N2 1_555 1_555
N3 C2 1_555 1_555
C1 N1 1_555 1_555
H3 C1 1_555 1_555
H4 C1 1_555 1_555
C2 N1 1_555 1_555
H5 C2 1_555 1_555
H6 C2 1_555 1_555
C3 N2 1_555 1_555
H7 C3 1_555 1_555
H8 C3 1_555 1_555
C4 N2 1_555 1_555
H9 C4 1_555 1_555
H10 C4 1_555 1_555
C5 N3 1_555 1_555
H11 C5 1_555 1_555
H12 C5 1_555 1_555
C6 C5 1_555 1_555
H13 C6 1_555 1_555
C7 C6 1_555 1_555
H14 C7 1_555 1_555
H15 C7 1_555 1_555
Ni2 N4 1_555 1_555
N4 H16 1_555 1_555
N5 Ni2 1_555 1_555
H17 N5 1_555 1_555
N6 C9 1_555 1_555
C8 N4 1_555 1_555
H18 C8 1_555 1_555
H19 C8 1_555 1_555
C9 N4 1_555 1_555
H20 C9 1_555 1_555
H21 C9 1_555 1_555
C10 N5 1_555 1_555
H22 C10 1_555 1_555
H23 C10 1_555 1_555
C11 N5 1_555 1_555
H24 C11 1_555 1_555
H25 C11 1_555 1_555
C12 N6 1_555 1_555
H26 C12 1_555 1_555
H27 C12 1_555 1_555
C13 C12 1_555 1_555
H28 C13 1_555 1_555
C14 C13 1_555 1_555
H29 C14 1_555 1_555
H30 C14 1_555 1_555
O1 Ni1 1_555 1_555
O2 C15 1_555 1_555
O3 Ni2 1_555 1_555
O4 C18 1_555 1_555
C15 O1 1_555 1_555
C16 C15 1_555 1_555
H31 C16 1_555 1_555
C17 C16 1_555 1_555
H32 C17 1_555 1_555
H33 C17 1_555 1_555
C18 O3 1_555 1_555
N1B Ni1 1_555 1_555
H1B N1B 1_555 1_555
N2B Ni1 1_555 1_555
H2B N2B 1_555 1_555
N3B C2B 1_555 1_555
C1B C4 1_555 1_555
H3B C1B 1_555 1_555
H4B C1B 1_555 1_555
C2B N1B 1_555 1_555
H5B C2B 1_555 1_555
H6B C2B 1_555 1_555
C3B N2B 1_555 1_555
H7B C3B 1_555 1_555
H8B C3B 1_555 1_555
C4B C1 1_555 1_555
H9B C4B 1_555 1_555
H10B C4B 1_555 1_555
C5B N3B 1_555 1_555
H11B C5B 1_555 1_555
H12B C5B 1_555 1_555
C6B C5B 1_555 1_555
H13B C6B 1_555 1_555
C7B C6B 1_555 1_555
H14B C7B 1_555 1_555
H15B C7B 1_555 1_555
N4B Ni2 1_555 1_555
H16B N4B 1_555 1_555
N5B Ni2 1_555 1_555
H17B N5B 1_555 1_555
N6B C9B 1_555 1_555
C8B C11 1_555 1_555
H18B C8B 1_555 1_555
H19B C8B 1_555 1_555
C9B N4B 1_555 1_555
H20B C9B 1_555 1_555
H21B C9B 1_555 1_555
C10B N5B 1_555 1_555
H22B C10B 1_555 1_555
H23B C10B 1_555 1_555
C11B C8 1_555 1_555
H24B C11B 1_555 1_555
H25B C11B 1_555 1_555
C12B N6B 1_555 1_555
H26B C12B 1_555 1_555
H27B C12B 1_555 1_555
C13B C12B 1_555 1_555
H28B C13B 1_555 1_555
C14B C13B 1_555 1_555
H29B C14B 1_555 1_555
H30B C14B 1_555 1_555
O1B C15B 1_555 1_555
O2B C15B 1_555 1_555
O3B C18B 1_555 1_555
O4B C18B 1_555 1_555
C15B C16B 1_555 1_555
C16B C16 1_555 1_555
H31B C16B 1_555 1_555
C17B C16B 1_555 1_555
H32B C17B 1_555 1_555
H33B C17B 1_555 1_555
C18B C17B 1_555 1_555
Ni1_2 O1B 1_555 1_555
Ni2_2 O3B 1_555 1_555
O1B_2 Ni1 1_555 1_555
O3B_2 Ni2 1_555 1_555
N3 C3 1_555 1_555
N6 C10 1_555 1_555
C17 C18 1_555 1_555
N1B C1B 1_555 1_555
N2B C4B 1_555 1_555
N3B C3B 1_555 1_555
N4B C8B 1_555 1_555
N5B C11B 1_555 1_555
N6B C10B 1_555 1_555

#END
