
#######################################################################
#
#                 Cambridge Crystallographic Data Centre
#                                CCDC 
#
#######################################################################
#
# If this CIF has been generated from an entry in the Cambridge 
# Structural Database, then it will include bibliographic, chemical, 
# crystal, experimental, refinement or atomic coordinate data resulting 
# from the CCDC's data processing and validation procedures.
#
#######################################################################

data_FIMYEH
_symmetry_cell_setting           triclinic
_symmetry_space_group_name_H-M   'P -1'
_symmetry_Int_Tables_number      2
_space_group_name_Hall           '-P 1'
loop_
_symmetry_equiv_pos_site_id
_symmetry_equiv_pos_as_xyz
1 x,y,z
2 -x,-y,-z
_cell_length_a                   12.276(3)
_cell_length_b                   9.7320(19)
_cell_length_c                   12.961(3)
_cell_angle_alpha                106.74(3)
_cell_angle_beta                 76.14(3)
_cell_angle_gamma                86.62(3)
_cell_volume                     1425.96
loop_
_atom_site_label
_atom_site_type_symbol
_atom_site_fract_x
_atom_site_fract_y
_atom_site_fract_z
Ni1 Ni 0.0000 1.0000 0.0000
N1 N -0.0144(3) 1.0753(4) 0.1685(3)
H1 H -0.0232 1.1759 0.1906
N2 N -0.1722(3) 1.0400(4) 0.0203(3)
H2 H -0.1913 1.1381 0.0318
N3 N -0.2217(3) 1.0736(4) 0.2221(4)
C1 C 0.0957(4) 1.0227(5) 0.1807(4)
H3 H 0.0990 0.9191 0.1759
H4 H 0.1049 1.0781 0.2545
C2 C -0.1126(4) 1.0296(6) 0.2373(5)
H5 H -0.1007 0.9227 0.2183
H6 H -0.1148 1.0710 0.3172
C3 C -0.2417(4) 1.0028(6) 0.1169(4)
H7 H -0.3227 1.0275 0.1224
H8 H -0.2269 0.8968 0.1018
C4 C -0.1895(4) 0.9580(5) -0.0884(4)
H9 H -0.2640 0.9942 -0.0946
H10 H -0.1881 0.8540 -0.0948
C5 C -0.2585(6) 1.2328(7) 0.2643(5)
H11 H -0.2119 1.2783 0.2132
H12 H -0.3383 1.2518 0.2632
C6 C -0.2491(11) 1.3009(11) 0.3784(8)
H13 H -0.2935 1.2691 0.4356
C7 C -0.1841(13) 1.4039(14) 0.4106(10)
H14 H -0.1379 1.4398 0.3568
H15 H -0.1845 1.4404 0.4871
Ni2 Ni 0.5000 0.5000 0.0000
N4 N 0.4122(3) 0.4949(4) 0.1552(4)
H16 H 0.3356 0.4983 0.1582
N5 N 0.4636(3) 0.7214(4) 0.0403(4)
H17 H 0.3901 0.7421 0.0363
N6 N 0.3978(3) 0.7613(5) 0.2421(4)
C8 C 0.4533(4) 0.3528(6) 0.1611(5)
H18 H 0.4007 0.3293 0.2226
H19 H 0.5291 0.3539 0.1752
C9 C 0.4263(4) 0.6161(6) 0.2487(5)
H20 H 0.3782 0.6088 0.3195
H21 H 0.5061 0.6048 0.2517
C10 C 0.4695(4) 0.8012(6) 0.1540(5)
H22 H 0.5488 0.7857 0.1575
H23 H 0.4493 0.9060 0.1673
C11 C 0.5403(4) 0.7604(6) -0.0482(5)
H24 H 0.6165 0.7629 -0.0353
H25 H 0.5122 0.8577 -0.0485
C12 C 0.2757(4) 0.8054(6) 0.2603(5)
H26 H 0.2459 0.7294 0.2096
H27 H 0.2656 0.8958 0.2410
C13 C 0.2094(6) 0.8295(8) 0.3774(6)
H28 H 0.2401 0.8794 0.4361
C14 C 0.1111(7) 0.7858(10) 0.4040(8)
H29 H 0.0785 0.7357 0.3469
H30 H 0.0721 0.8040 0.4803
O1 O -0.0125(2) 0.7950(3) 0.0204(3)
O2 O 0.0251(3) 0.6352(4) -0.1493(3)
O3 O 0.3523(2) 0.4610(4) -0.0543(3)
O4 O 0.2530(2) 0.6779(3) -0.0138(3)
C15 C 0.0188(4) 0.6707(5) -0.0471(5)
C16 C 0.0460(4) 0.5495(5) 0.0028(4)
H31 H 0.0451 0.5949 0.0828
C17 C 0.1640(3) 0.4648(5) -0.0622(5)
H32 H 0.1705 0.3732 -0.0438
H33 H 0.1696 0.4390 -0.1431
C18 C 0.2634(4) 0.5422(5) -0.0404(4)
N1A N 0.0144(3) 0.9247(4) -0.1685(3)
H1A H 0.0232 0.8241 -0.1906
N2A N 0.1722(3) 0.9600(4) -0.0203(3)
H2A H 0.1913 0.8619 -0.0318
N3A N 0.2217(3) 0.9264(4) -0.2221(4)
C1A C -0.0957(4) 0.9773(5) -0.1807(4)
H3A H -0.0990 1.0809 -0.1759
H4A H -0.1049 0.9219 -0.2545
C2A C 0.1126(4) 0.9704(6) -0.2373(5)
H5A H 0.1007 1.0773 -0.2183
H6A H 0.1148 0.9290 -0.3172
C3A C 0.2417(4) 0.9972(6) -0.1169(4)
H7A H 0.3227 0.9725 -0.1224
H8A H 0.2269 1.1032 -0.1018
C4A C 0.1895(4) 1.0420(5) 0.0884(4)
H9A H 0.2640 1.0058 0.0946
H10A H 0.1881 1.1460 0.0948
C5A C 0.2585(6) 0.7672(7) -0.2643(5)
H11A H 0.2119 0.7217 -0.2132
H12A H 0.3383 0.7482 -0.2632
C6A C 0.2491(11) 0.6991(11) -0.3784(8)
H13A H 0.2935 0.7309 -0.4356
C7A C 0.1841(13) 0.5961(14) -0.4106(10)
H14A H 0.1379 0.5602 -0.3568
H15A H 0.1845 0.5596 -0.4871
N4A N 0.5878(3) 0.5051(4) -0.1552(4)
H16A H 0.6644 0.5017 -0.1582
N5A N 0.5364(3) 0.2786(4) -0.0403(4)
H17A H 0.6099 0.2579 -0.0363
N6A N 0.6022(3) 0.2387(5) -0.2421(4)
C8A C 0.5467(4) 0.6472(6) -0.1611(5)
H18A H 0.5993 0.6707 -0.2226
H19A H 0.4709 0.6461 -0.1752
C9A C 0.5737(4) 0.3839(6) -0.2487(5)
H20A H 0.6218 0.3912 -0.3195
H21A H 0.4939 0.3952 -0.2517
C10A C 0.5305(4) 0.1988(6) -0.1540(5)
H22A H 0.4512 0.2143 -0.1575
H23A H 0.5507 0.0940 -0.1673
C11A C 0.4597(4) 0.2396(6) 0.0482(5)
H24A H 0.3835 0.2371 0.0353
H25A H 0.4878 0.1423 0.0485
C12A C 0.7243(4) 0.1946(6) -0.2603(5)
H26A H 0.7541 0.2706 -0.2096
H27A H 0.7344 0.1042 -0.2410
C13A C 0.7906(6) 0.1705(8) -0.3774(6)
H28A H 0.7599 0.1206 -0.4361
C14A C 0.8889(7) 0.2142(10) -0.4040(8)
H29A H 0.9215 0.2643 -0.3469
H30A H 0.9279 0.1960 -0.4803
O1A O 0.0125(2) 0.2050(3) -0.0204(3)
O2A O -0.0251(3) 0.3648(4) 0.1493(3)
O3A O -0.3523(2) 0.5390(4) 0.0543(3)
O4A O -0.2530(2) 0.3221(3) 0.0138(3)
C15A C -0.0188(4) 0.3293(5) 0.0471(5)
C16A C -0.0460(4) 0.4505(5) -0.0028(4)
H31A H -0.0451 0.4051 -0.0828
C17A C -0.1640(3) 0.5352(5) 0.0622(5)
H32A H -0.1705 0.6268 0.0438
H33A H -0.1696 0.5610 0.1431
C18A C -0.2634(4) 0.4578(5) 0.0404(4)
Ni1_2 Ni 0.0000 0.0000 0.0000
Ni2_2 Ni -0.5000 0.5000 0.0000
O1A_2 O 0.0125(2) 1.2050(3) -0.0204(3)
O3A_2 O 0.6477(2) 0.5390(4) 0.0543(3)
O5 O 0.8280(3) 0.5680(4) 0.7804(4)
C19? C -0.2585(6) 1.2328(7) 0.2643(5)
H34? H -0.2545 1.2738 0.2021
H35? H -0.2124 1.2836 0.3125
C20? C -0.3884(16) 1.242(3) 0.335(2)
H36? H -0.4148 1.3432 0.3653
C21? C -0.483(3) 1.176(5) 0.376(4)
H37? H -0.4768 1.0733 0.3564
H38? H -0.5520 1.2340 0.4217
loop_
_geom_bond_atom_site_label_1
_geom_bond_atom_site_label_2
_geom_bond_site_symmetry_1
_geom_bond_site_symmetry_2
Ni1 N1 1_555 1_555
N1 H1 1_555 1_555
N2 Ni1 1_555 1_555
H2 N2 1_555 1_555
N3 C2 1_555 1_555
C1 N1 1_555 1_555
H3 C1 1_555 1_555
H4 C1 1_555 1_555
C2 N1 1_555 1_555
H5 C2 1_555 1_555
H6 C2 1_555 1_555
C3 N2 1_555 1_555
H7 C3 1_555 1_555
H8 C3 1_555 1_555
C4 N2 1_555 1_555
H9 C4 1_555 1_555
H10 C4 1_555 1_555
C5 N3 1_555 1_555
H11 C5 1_555 1_555
H12 C5 1_555 1_555
C6 C5 1_555 1_555
H13 C6 1_555 1_555
C7 C6 1_555 1_555
H14 C7 1_555 1_555
H15 C7 1_555 1_555
Ni2 N4 1_555 1_555
N4 H16 1_555 1_555
N5 Ni2 1_555 1_555
H17 N5 1_555 1_555
N6 C9 1_555 1_555
C8 N4 1_555 1_555
H18 C8 1_555 1_555
H19 C8 1_555 1_555
C9 N4 1_555 1_555
H20 C9 1_555 1_555
H21 C9 1_555 1_555
C10 N5 1_555 1_555
H22 C10 1_555 1_555
H23 C10 1_555 1_555
C11 N5 1_555 1_555
H24 C11 1_555 1_555
H25 C11 1_555 1_555
C12 N6 1_555 1_555
H26 C12 1_555 1_555
H27 C12 1_555 1_555
C13 C12 1_555 1_555
H28 C13 1_555 1_555
C14 C13 1_555 1_555
H29 C14 1_555 1_555
H30 C14 1_555 1_555
O1 Ni1 1_555 1_555
O2 C15 1_555 1_555
O3 Ni2 1_555 1_555
O4 C18 1_555 1_555
C15 O1 1_555 1_555
C16 C15 1_555 1_555
H31 C16 1_555 1_555
C17 C16 1_555 1_555
H32 C17 1_555 1_555
H33 C17 1_555 1_555
C18 O3 1_555 1_555
N1A Ni1 1_555 1_555
H1A N1A 1_555 1_555
N2A Ni1 1_555 1_555
H2A N2A 1_555 1_555
N3A C2A 1_555 1_555
C1A C4 1_555 1_555
H3A C1A 1_555 1_555
H4A C1A 1_555 1_555
C2A N1A 1_555 1_555
H5A C2A 1_555 1_555
H6A C2A 1_555 1_555
C3A N2A 1_555 1_555
H7A C3A 1_555 1_555
H8A C3A 1_555 1_555
C4A C1 1_555 1_555
H9A C4A 1_555 1_555
H10A C4A 1_555 1_555
C5A N3A 1_555 1_555
H11A C5A 1_555 1_555
H12A C5A 1_555 1_555
C6A C5A 1_555 1_555
H13A C6A 1_555 1_555
C7A C6A 1_555 1_555
H14A C7A 1_555 1_555
H15A C7A 1_555 1_555
N4A Ni2 1_555 1_555
H16A N4A 1_555 1_555
N5A Ni2 1_555 1_555
H17A N5A 1_555 1_555
N6A C9A 1_555 1_555
C8A C11 1_555 1_555
H18A C8A 1_555 1_555
H19A C8A 1_555 1_555
C9A N4A 1_555 1_555
H20A C9A 1_555 1_555
H21A C9A 1_555 1_555
C10A N5A 1_555 1_555
H22A C10A 1_555 1_555
H23A C10A 1_555 1_555
C11A C8 1_555 1_555
H24A C11A 1_555 1_555
H25A C11A 1_555 1_555
C12A N6A 1_555 1_555
H26A C12A 1_555 1_555
H27A C12A 1_555 1_555
C13A C12A 1_555 1_555
H28A C13A 1_555 1_555
C14A C13A 1_555 1_555
H29A C14A 1_555 1_555
H30A C14A 1_555 1_555
O1A C15A 1_555 1_555
O2A C15A 1_555 1_555
O3A C18A 1_555 1_555
O4A C18A 1_555 1_555
C15A C16A 1_555 1_555
C16A C16 1_555 1_555
H31A C16A 1_555 1_555
C17A C16A 1_555 1_555
H32A C17A 1_555 1_555
H33A C17A 1_555 1_555
C18A C17A 1_555 1_555
Ni1_2 O1A 1_555 1_555
Ni2_2 O3A 1_555 1_555
O1A_2 Ni1 1_555 1_555
O3A_2 Ni2 1_555 1_555
N3 C3 1_555 1_555
N6 C10 1_555 1_555
C17 C18 1_555 1_555
N1A C1A 1_555 1_555
N2A C4A 1_555 1_555
N3A C3A 1_555 1_555
N4A C8A 1_555 1_555
N5A C11A 1_555 1_555
N6A C10A 1_555 1_555

#END
