
#######################################################################
#
#                 Cambridge Crystallographic Data Centre
#                                CCDC 
#
#######################################################################
#
# If this CIF has been generated from an entry in the Cambridge 
# Structural Database, then it will include bibliographic, chemical, 
# crystal, experimental, refinement or atomic coordinate data resulting 
# from the CCDC's data processing and validation procedures.
#
#######################################################################

data_FINQUQ
_symmetry_cell_setting           triclinic
_symmetry_space_group_name_H-M   'P -1'
_symmetry_Int_Tables_number      2
_space_group_name_Hall           '-P 1'
loop_
_symmetry_equiv_pos_site_id
_symmetry_equiv_pos_as_xyz
1 x,y,z
2 -x,-y,-z
_cell_length_a                   12.0117(11)
_cell_length_b                   13.9360(12)
_cell_length_c                   22.602(2)
_cell_angle_alpha                77.088(2)
_cell_angle_beta                 74.6570(10)
_cell_angle_gamma                75.5240(10)
_cell_volume                     3482.28
loop_
_atom_site_label
_atom_site_type_symbol
_atom_site_fract_x
_atom_site_fract_y
_atom_site_fract_z
Ag1 Ag 1.15688(4) 0.83232(4) 0.49661(2)
Ag2 Ag 0.67206(4) 1.34899(5) -0.19661(2)
Ag3 Ag 0.77503(4) 0.61959(4) 0.32621(2)
Ag4 Ag 0.29237(4) 0.48321(4) 0.35355(2)
Ag5 Ag 0.61537(6) 0.33214(5) 0.56481(3)
Ag6 Ag 0.63065(4) 1.07594(3) 0.06057(2)
Ag7 Ag 0.56522(4) 0.43681(3) 0.41625(2)
Mo1 Mo 0.66156(4) 0.79565(4) -0.16804(2)
Mo2 Mo 0.86010(5) 0.57744(4) -0.16539(3)
Mo3 Mo 1.05703(5) 1.03887(4) -0.25511(2)
Mo4 Mo 1.17602(5) 0.57733(4) -0.18277(3)
Mo5 Mo 1.27257(4) 0.79339(4) -0.24756(3)
Mo6 Mo 0.82789(4) 0.72579(4) -0.30204(2)
Mo7 Mo 0.77087(4) 1.03414(4) -0.23754(2)
Mo8 Mo 1.15324(5) 0.68660(4) -0.32783(3)
Mo9 Mo 0.78952(5) 0.91391(4) -0.07691(2)
Mo10 Mo 0.95141(5) 0.68008(4) -0.05113(2)
Mo11 Mo 0.97314(5) 0.94466(4) -0.35617(2)
Mo12 Mo 1.08481(5) 0.88031(4) -0.10269(2)
Si1 Si 0.96480(14) 0.80401(12) -0.20603(7)
O1 O 0.9648(4) 0.5989(3) 0.0150(2)
O2 O 0.7432(10) 0.2554(8) 0.6349(5)
O3 O 1.2483(4) 0.4591(3) -0.1616(2)
O4 O 0.4484(11) 0.3410(8) 0.3303(5)
O5 O 0.7794(4) 0.3422(4) 0.3996(2)
O6 O 0.6744(4) 0.9678(3) -0.0253(2)
O7 O 1.4107(4) 0.8088(4) -0.2553(2)
O8 O 0.9728(4) 0.9885(4) -0.4322(2)
O9 O 0.5126(4) 0.8252(3) -0.1504(2)
O10 O 0.8247(4) 0.4652(3) -0.1310(2)
O11 O 0.6932(4) 0.9324(3) -0.21894(19)
O12 O 1.1340(4) 1.1311(3) -0.2712(2)
O13 O 1.2040(4) 0.5728(3) -0.2754(2)
O14 O 1.0645(4) 0.7623(3) -0.0451(2)
O15 O 1.0538(4) 0.9890(3) -0.17099(19)
O16 O 0.8287(4) 0.7786(3) -0.0212(2)
O17 O 0.8743(4) 0.6239(3) -0.0896(2)
O18 O 1.2852(4) 0.7448(3) -0.3193(2)
O19 O 0.7863(4) 1.0025(3) -0.14888(19)
O20 O 0.9046(4) 1.1069(3) -0.24482(19)
O21 O 0.8323(4) 0.5923(3) -0.2435(2)
O22 O 0.7034(4) 0.8362(3) -0.1073(2)
O23 O 0.6643(4) 1.1390(3) -0.2342(2)
O24 O 0.8631(4) 0.8491(3) -0.3368(2)
O25 O 0.9466(3) 0.9156(3) -0.24870(19)
O26 O 0.6927(4) 0.6603(3) -0.1418(2)
O27 O 0.9536(4) 0.8151(3) -0.13423(19)
O28 O 1.0948(3) 0.7387(3) -0.23227(19)
O29 O 0.8223(4) 1.0394(3) -0.3228(2)
O30 O 1.0035(4) 0.6729(3) -0.3198(2)
O31 O 1.0991(4) 0.6192(3) -0.1099(2)
O32 O 1.2953(4) 0.6485(3) -0.2039(2)
O33 O 0.7936(4) 0.6893(4) -0.3602(2)
O34 O 0.6794(4) 0.7680(3) -0.2542(2)
O35 O 1.0547(4) 1.0311(3) -0.34143(19)
O36 O 1.1919(4) 0.9198(3) -0.26844(19)
O37 O 1.0901(4) 0.8340(3) -0.35784(19)
O38 O 1.0204(4) 0.5495(3) -0.1851(2)
O39 O 0.8641(4) 0.7465(3) -0.20914(19)
O40 O 0.9183(4) 0.9408(3) -0.0580(2)
O41 O 0.8469(4) 1.0659(3) 0.0657(2)
O42 O 1.2053(4) 0.8171(3) -0.1579(2)
N1 N 1.5104(5) 1.2636(4) 0.5268(3)
N2 N 1.4455(5) 1.2430(4) 0.4500(4)
N3 N 0.6695(5) 1.2239(4) -0.0655(2)
N4 N 0.7425(4) 0.5784(4) 0.4396(2)
N5 N 1.2618(5) 0.9338(4) 0.4988(3)
N6 N 1.0551(5) 1.1872(4) -0.0758(2)
N7 N 0.8616(4) 1.4160(4) -0.3126(2)
N8 N 0.2952(6) 1.6294(4) -0.0598(3)
N9 N 1.0416(5) 0.7435(4) 0.4900(3)
N10 N 0.6109(5) 1.2101(4) -0.0067(2)
N11 N 1.4612(5) 1.1833(4) 0.5482(4)
N12 N 0.7436(5) 0.5197(4) 0.5391(2)
N13 N 0.5246(5) 1.2887(4) 0.0058(2)
N14 N 0.6217(5) 1.3153(4) -0.0928(2)
N15 N 1.5008(5) 1.2995(4) 0.4677(4)
N16 N 0.4564(5) 0.5633(4) 0.3068(2)
N17 N 0.5404(4) 0.5595(4) 0.3349(2)
N18 N 0.8524(4) 1.3632(4) -0.2543(2)
N19 N 0.6692(5) 0.5137(4) 0.4624(3)
N20 N 1.0362(4) 1.3801(4) -0.2947(2)
N21 N 0.6710(5) 0.4782(4) 0.5215(2)
N22 N 0.6052(4) 0.6293(4) 0.3030(2)
N23 N 0.4637(5) 0.6343(4) 0.2556(2)
N24 N 0.9714(4) 1.4261(4) -0.3371(2)
N25 N 0.6231(5) 0.9362(4) 0.1250(2)
C1 C 0.2650(7) 1.5524(5) -0.0172(3)
H1 H 0.1908 1.5602 0.0094
H2 H 0.9829 0.8370 0.4183
H3 H 0.8647 1.2058 -0.1569
H4 H 1.2638 0.9983 0.4107
H5 H 0.9387 0.5444 0.5595
H6 H 0.6748 0.9707 0.1926
H7 H 1.2767 0.8923 0.5870
H8 H 0.4206 1.6801 -0.1295
H9 H 1.0770 0.6335 0.5590
H10 H 0.9188 1.1205 -0.0642
H11 H 1.3523 1.1290 0.4093
H12 H 0.5710 0.8742 0.0687
H13 H 0.3216 1.4062 0.0196
H14 H 0.6508 0.8251 0.2645
H15 H 1.3631 1.0230 0.5908
H16 H 0.5572 1.5281 -0.1261
H17 H 0.8428 0.7527 0.4138
H18 H 1.1340 1.3544 -0.1935
H19 H 1.1816 1.2688 -0.1000
H20 H 0.5433 0.7260 0.1361
C2 C 0.9726(7) 0.7762(5) 0.4475(4)
C3 C 0.9618(5) 1.3416(4) -0.2441(3)
C4 C 0.5329(5) 1.3531(5) -0.0478(3)
C5 C 0.9307(5) 1.2182(4) -0.1459(3)
C6 C 1.2845(7) 1.0031(6) 0.4478(4)
C7 C 0.9460(5) 0.6044(4) 0.5299(3)
C8 C 0.6462(7) 0.9197(5) 0.1815(3)
C9 C 0.4521(6) 1.4502(5) -0.0535(3)
C10 C 1.2915(6) 0.9416(5) 0.5505(3)
C11 C 0.4010(8) 1.6223(5) -0.0996(4)
C12 C 1.0274(5) 0.6581(5) 0.5296(3)
C13 C 0.9621(6) 1.1682(5) -0.0912(3)
C14 C 1.3362(7) 1.0811(6) 0.4468(4)
C15 C 0.7865(5) 0.5812(4) 0.4880(3)
C16 C 0.5859(6) 0.8637(5) 0.1096(3)
C17 C 0.3423(6) 1.4610(5) -0.0120(3)
C18 C 1.3653(6) 1.0904(5) 0.5001(4)
C19 C 0.5552(5) 0.6741(4) 0.2547(3)
C20 C 0.6316(6) 0.8340(5) 0.2247(3)
C21 C 0.9949(5) 1.2876(4) -0.1858(3)
C22 C 1.4230(6) 1.1723(5) 0.4996(4)
C23 C 0.8741(5) 0.6381(4) 0.4868(3)
C24 C 1.3430(6) 1.0188(5) 0.5532(4)
C25 C 0.4815(7) 1.5331(5) -0.0976(4)
C26 C 0.8895(6) 0.7267(5) 0.4445(3)
C27 C 1.0889(5) 1.3059(4) -0.1675(3)
C28 C 0.5884(5) 0.7613(4) 0.2089(3)
C29 C 1.1171(5) 1.2554(5) -0.1126(3)
C30 C 0.5685(5) 0.7759(5) 0.1493(3)
Ag2A Ag 0.32794(4) 0.65101(5) 0.19661(2)
Ag3A Ag 1.22497(4) 1.38041(4) -0.32621(2)
Ag4A Ag 0.70763(4) 0.51679(4) 0.64645(2)
Ag4A_2 Ag 0.70763(4) 1.51679(4) -0.35355(2)
Ag5_2 Ag 1.61537(6) 1.33214(5) 0.56481(3)
Ag6A Ag 0.36935(4) 0.92406(3) -0.06057(2)
Ag7_2 Ag 1.56522(4) 1.43681(3) 0.41625(2)
Mo8A Mo 0.84676(5) 0.31340(4) 0.32783(3)
Mo12A Mo 0.91519(5) 1.11969(4) 0.10269(2)
O5A O 1.2206(4) 0.6578(4) -0.3996(2)
O9A O 0.4874(4) 1.1748(3) 0.1504(2)
O41A O 1.1531(4) 0.9341(3) -0.0657(2)
N1_2 N 0.5104(5) 0.2636(4) 0.5268(3)
N7A N 0.1384(4) 0.5840(4) 0.3126(2)
N12A N 0.2564(5) 0.4803(4) 0.4609(2)
N15_2 N 0.5008(5) 0.2995(4) 0.4677(4)
N20A N 0.9638(4) 0.6199(4) 0.2947(2)
N23A N 0.5363(5) 1.3657(4) -0.2556(2)
loop_
_geom_bond_atom_site_label_1
_geom_bond_atom_site_label_2
_geom_bond_site_symmetry_1
_geom_bond_site_symmetry_2
Ag1 N5 1_555 1_555
Ag2 N14 1_555 1_555
Ag3 N4 1_555 1_555
Ag4 O4 1_555 1_555
Ag5 O2 1_555 1_555
Ag6 O6 1_555 1_555
Ag7 O5 1_555 1_555
Mo1 O9 1_555 1_555
Mo2 O10 1_555 1_555
Mo3 O12 1_555 1_555
Mo4 O3 1_555 1_555
Mo5 O7 1_555 1_555
Mo6 O21 1_555 1_555
Mo7 O11 1_555 1_555
Mo8 O13 1_555 1_555
Mo9 O6 1_555 1_555
Mo10 O1 1_555 1_555
Mo11 O8 1_555 1_555
Mo12 O14 1_555 1_555
Si1 O25 1_555 1_555
O5 Mo8A 1_555 1_555
O9 Ag6A 1_555 1_555
O11 Mo1 1_555 1_555
O13 Mo4 1_555 1_555
O14 Mo10 1_555 1_555
O15 Mo3 1_555 1_555
O16 Mo9 1_555 1_555
O17 Mo2 1_555 1_555
O18 Mo5 1_555 1_555
O19 Mo7 1_555 1_555
O20 Mo3 1_555 1_555
O21 Mo2 1_555 1_555
O22 Mo1 1_555 1_555
O23 Mo7 1_555 1_555
O24 Mo6 1_555 1_555
O25 Mo3 1_555 1_555
O26 Mo1 1_555 1_555
O27 Mo9 1_555 1_555
O28 Mo4 1_555 1_555
O29 Mo7 1_555 1_555
O30 Mo6 1_555 1_555
O31 Mo4 1_555 1_555
O32 Mo4 1_555 1_555
O33 Mo6 1_555 1_555
O34 Mo1 1_555 1_555
O35 Mo3 1_555 1_555
O36 Mo3 1_555 1_555
O37 Mo8 1_555 1_555
O38 Mo2 1_555 1_555
O39 Mo1 1_555 1_555
O40 Mo9 1_555 1_555
O41 Ag6 1_555 1_555
O42 Mo5 1_555 1_555
N1 N11 1_555 1_555
N2 N15 1_555 1_555
N3 N10 1_555 1_555
N4 N19 1_555 1_555
N5 C6 1_555 1_555
N6 C13 1_555 1_555
N7 N18 1_555 1_555
N8 C1 1_555 1_555
N9 Ag1 1_555 1_555
N10 Ag6 1_555 1_555
N11 C22 1_555 1_555
N12 N21 1_555 1_555
N13 N10 1_555 1_555
N14 N3 1_555 1_555
N15 N1 1_555 1_555
N16 Ag4 1_555 1_555
N17 Ag7 1_555 1_555
N18 Ag2 1_555 1_555
N19 Ag7 1_555 1_555
N20 N24 1_555 1_555
N21 Ag5 1_555 1_555
N22 Ag3 1_555 1_555
N23 N16 1_555 1_555
N24 N7 1_555 1_555
N25 Ag6 1_555 1_555
C1 H1 1_555 1_555
H2 C2 1_555 1_555
H3 C5 1_555 1_555
H4 C6 1_555 1_555
H5 C7 1_555 1_555
H6 C8 1_555 1_555
H7 C10 1_555 1_555
H8 C11 1_555 1_555
H9 C12 1_555 1_555
H10 C13 1_555 1_555
H11 C14 1_555 1_555
H12 C16 1_555 1_555
H13 C17 1_555 1_555
H14 C20 1_555 1_555
H15 C24 1_555 1_555
H16 C25 1_555 1_555
H17 C26 1_555 1_555
H18 C27 1_555 1_555
H19 C29 1_555 1_555
H20 C30 1_555 1_555
C2 N9 1_555 1_555
C3 N18 1_555 1_555
C4 N13 1_555 1_555
C5 C13 1_555 1_555
C6 C14 1_555 1_555
C7 C12 1_555 1_555
C8 N25 1_555 1_555
C9 C4 1_555 1_555
C10 N5 1_555 1_555
C11 N8 1_555 1_555
C12 N9 1_555 1_555
C14 C18 1_555 1_555
C15 N4 1_555 1_555
C16 N25 1_555 1_555
C17 C1 1_555 1_555
C18 C22 1_555 1_555
C19 N22 1_555 1_555
C20 C8 1_555 1_555
C21 C3 1_555 1_555
C22 N2 1_555 1_555
C23 C7 1_555 1_555
C24 C10 1_555 1_555
C25 C9 1_555 1_555
C26 C2 1_555 1_555
C27 C21 1_555 1_555
C28 C19 1_555 1_555
C29 N6 1_555 1_555
C30 C16 1_555 1_555
Ag2A N23 1_555 1_555
Ag3A N20 1_555 1_555
Ag4A N12 1_555 1_555
Ag4A_2 N7 1_555 1_555
Ag5_2 N1 1_555 1_555
Ag7_2 N15 1_555 1_555
Mo12A O41 1_555 1_555
O5A Mo8 1_555 1_555
O9A Ag6 1_555 1_555
O41A Mo12 1_555 1_555
N1_2 Ag5 1_555 1_555
N7A Ag4 1_555 1_555
N12A Ag4 1_555 1_555
N15_2 Ag7 1_555 1_555
N20A Ag3 1_555 1_555
N23A Ag2 1_555 1_555
Mo2 O26 1_555 1_555
Mo2 O39 1_555 1_555
Mo4 O38 1_555 1_555
Mo5 O28 1_555 1_555
Mo5 O32 1_555 1_555
Mo5 O36 1_555 1_555
Mo6 O34 1_555 1_555
Mo6 O39 1_555 1_555
Mo7 O20 1_555 1_555
Mo7 O25 1_555 1_555
Mo8 O18 1_555 1_555
Mo8 O28 1_555 1_555
Mo8 O30 1_555 1_555
Mo9 O19 1_555 1_555
Mo9 O22 1_555 1_555
Mo10 O16 1_555 1_555
Mo10 O17 1_555 1_555
Mo10 O27 1_555 1_555
Mo10 O31 1_555 1_555
Mo11 O24 1_555 1_555
Mo11 O25 1_555 1_555
Mo11 O29 1_555 1_555
Mo11 O35 1_555 1_555
Mo11 O37 1_555 1_555
Mo12 O15 1_555 1_555
Mo12 O27 1_555 1_555
Mo12 O40 1_555 1_555
Mo12 O42 1_555 1_555
Si1 O27 1_555 1_555
Si1 O28 1_555 1_555
Si1 O39 1_555 1_555
N12 C15 1_555 1_555
N14 C4 1_555 1_555
N16 N17 1_555 1_555
N17 N22 1_555 1_555
N19 N21 1_555 1_555
N20 C3 1_555 1_555
N23 C19 1_555 1_555
C5 C21 1_555 1_555
C9 C17 1_555 1_555
C11 C25 1_555 1_555
C15 C23 1_555 1_555
C18 C24 1_555 1_555
C20 C28 1_555 1_555
C23 C26 1_555 1_555
C27 C29 1_555 1_555
C28 C30 1_555 1_555
N1_2 N15_2 1_555 1_555

#END
