
#######################################################################
#
#                 Cambridge Crystallographic Data Centre
#                                CCDC 
#
#######################################################################
#
# If this CIF has been generated from an entry in the Cambridge 
# Structural Database, then it will include bibliographic, chemical, 
# crystal, experimental, refinement or atomic coordinate data resulting 
# from the CCDC's data processing and validation procedures.
#
#######################################################################

data_FIPFOB
_symmetry_cell_setting           triclinic
_symmetry_space_group_name_H-M   'P -1'
_symmetry_Int_Tables_number      2
_space_group_name_Hall           '-P 1'
loop_
_symmetry_equiv_pos_site_id
_symmetry_equiv_pos_as_xyz
1 x,y,z
2 -x,-y,-z
_cell_length_a                   9.597(2)
_cell_length_b                   9.793(2)
_cell_length_c                   12.860(3)
_cell_angle_alpha                81.378(4)
_cell_angle_beta                 77.077(4)
_cell_angle_gamma                87.944(4)
_cell_volume                     1164.7
loop_
_atom_site_label
_atom_site_type_symbol
_atom_site_fract_x
_atom_site_fract_y
_atom_site_fract_z
Ag1 Ag 0.54788(2) -0.204034(19) 0.382518(15)
O1 O 0.6180(2) -0.04093(19) 0.20850(15)
O2 O 0.6445(3) -0.2596(2) 0.20408(16)
N1 N 0.3966(2) -0.3711(2) 0.45782(16)
N2 N -0.3374(2) -1.0735(2) 0.46320(16)
C1 C 0.6587(3) -0.1383(3) 0.1604(2)
C2 C 0.7280(3) -0.1137(3) 0.0416(2)
H1 H 0.8202 -0.1599 0.0306
H2 H 0.6692 -0.1557 0.0028
C3 C 0.0079(2) -0.7430(2) 0.5507(2)
H3 H -0.0329 -0.6748 0.5031
H4 H 0.0770 -0.7972 0.5065
C4 C -0.1075(3) -0.8352(2) 0.6201(2)
H5 H -0.0653 -0.8996 0.6694
H6 H -0.1757 -0.7790 0.6631
C5 C 0.3465(2) -0.3877(2) 0.5632(2)
H7 H 0.3803 -0.3298 0.6031
C6 C 0.1937(2) -0.5706(2) 0.55987(19)
C7 C -0.1870(2) -0.9159(2) 0.56310(19)
C8 C -0.1598(2) -0.9078(2) 0.45329(19)
H8 H -0.0891 -0.8488 0.4102
C9 C -0.2950(2) -1.0021(2) 0.62084(19)
H9 H -0.3204 -1.0078 0.6955
C10 C -0.3659(2) -1.0799(2) 0.5696(2)
H10 H -0.4370 -1.1397 0.6109
C11 C 0.3474(3) -0.4572(2) 0.4038(2)
H11 H 0.3834 -0.4499 0.3298
C12 C 0.8075(3) 0.4600(3) -0.12990(19)
C13 C 0.2491(2) -0.4843(2) 0.61614(19)
H12 H 0.2191 -0.4929 0.6908
C14 C 0.9613(3) 0.6573(3) -0.1887(2)
H13 H 1.0521 0.6955 -0.2026
C15 C 0.7876(3) 0.3133(3) -0.08829(19)
C16 C -0.2364(2) -0.9864(2) 0.40697(19)
H14 H -0.2167 -0.9783 0.3321
C17 C 0.8695(3) 0.2472(3) -0.0208(2)
H15 H 0.9390 0.2969 -0.0025
C18 C 0.2474(3) -0.5551(2) 0.45102(19)
H16 H 0.2153 -0.6118 0.4093
C19 C 0.9413(3) 0.5200(3) -0.1511(2)
H17 H 1.0193 0.4655 -0.1393
C20 C 0.0816(3) -0.6714(3) 0.6187(2)
H18 H 0.0098 -0.6237 0.6662
H19 H 0.1246 -0.7412 0.6638
C21 C 0.6947(3) 0.5454(3) -0.1483(2)
H20 H 0.6034 0.5085 -0.1347
C22 C 0.6680(3) 0.0988(3) -0.0728(2)
H21 H 0.5996 0.0485 -0.0918
C23 C 0.7494(3) 0.0337(3) -0.00520(19)
C24 C 0.6848(3) 0.2355(3) -0.1128(2)
H22 H 0.6264 0.2772 -0.1572
C25 C 0.8513(3) 0.1112(3) 0.0198(2)
H23 H 0.9085 0.0696 0.0652
C26 C 0.8479(3) 0.7385(3) -0.2061(2)
H24 H 0.8614 0.8322 -0.2316
C27 C 0.7149(3) 0.6825(3) -0.1859(2)
H25 H 0.6377 0.7381 -0.1979
Ag1_2 Ag -0.45212(2) -1.204034(19) 0.382518(15)
N2_2 N 0.6626(2) -0.0735(2) 0.46320(16)
O3 O 0.6220(3) 0.2381(2) 0.23603(18)
H26 H 0.642(4) 0.175(4) 0.200(3)
H27 H 0.643(3) 0.309(4) 0.188(3)
O4 O 0.6962(3) 0.5055(2) 0.1222(2)
H28 H 0.689(4) 0.572(4) 0.146(3)
H29 H 0.710(4) 0.520(4) 0.067(3)
loop_
_geom_bond_atom_site_label_1
_geom_bond_atom_site_label_2
_geom_bond_site_symmetry_1
_geom_bond_site_symmetry_2
Ag1 O1 1_555 1_555
O1 C1 1_555 1_555
O2 Ag1 1_555 1_555
N1 Ag1 1_555 1_555
N2 C10 1_555 1_555
C1 O2 1_555 1_555
C2 C1 1_555 1_555
H1 C2 1_555 1_555
H2 C2 1_555 1_555
C3 H3 1_555 1_555
H4 C3 1_555 1_555
C4 C3 1_555 1_555
H5 C4 1_555 1_555
H6 C4 1_555 1_555
C5 N1 1_555 1_555
H7 C5 1_555 1_555
C6 C13 1_555 1_555
C7 C4 1_555 1_555
C8 C7 1_555 1_555
H8 C8 1_555 1_555
C9 C7 1_555 1_555
H9 C9 1_555 1_555
C10 C9 1_555 1_555
H10 C10 1_555 1_555
C11 N1 1_555 1_555
H11 C11 1_555 1_555
C12 C15 1_555 1_555
C13 C5 1_555 1_555
H12 C13 1_555 1_555
C14 H13 1_555 1_555
C15 C17 1_555 1_555
C16 N2 1_555 1_555
H14 C16 1_555 1_555
C17 H15 1_555 1_555
C18 C6 1_555 1_555
H16 C18 1_555 1_555
C19 C12 1_555 1_555
H17 C19 1_555 1_555
C20 C3 1_555 1_555
H18 C20 1_555 1_555
H19 C20 1_555 1_555
C21 C12 1_555 1_555
H20 C21 1_555 1_555
C22 H21 1_555 1_555
C23 C2 1_555 1_555
C24 C15 1_555 1_555
H22 C24 1_555 1_555
C25 C17 1_555 1_555
H23 C25 1_555 1_555
C26 C14 1_555 1_555
H24 C26 1_555 1_555
C27 C21 1_555 1_555
H25 C27 1_555 1_555
O3 H26 1_555 1_555
H27 O3 1_555 1_555
O4 H28 1_555 1_555
H29 O4 1_555 1_555
Ag1_2 N2 1_555 1_555
N2_2 Ag1 1_555 1_555
C6 C20 1_555 1_555
C8 C16 1_555 1_555
C11 C18 1_555 1_555
C14 C19 1_555 1_555
C22 C23 1_555 1_555
C22 C24 1_555 1_555
C23 C25 1_555 1_555
C26 C27 1_555 1_555

#END
