
#######################################################################
#
#                 Cambridge Crystallographic Data Centre
#                                CCDC 
#
#######################################################################
#
# If this CIF has been generated from an entry in the Cambridge 
# Structural Database, then it will include bibliographic, chemical, 
# crystal, experimental, refinement or atomic coordinate data resulting 
# from the CCDC's data processing and validation procedures.
#
#######################################################################

data_FIPWUY
_symmetry_cell_setting           monoclinic
_symmetry_space_group_name_H-M   'P 21'
_symmetry_Int_Tables_number      4
_space_group_name_Hall           'P 2yb'
loop_
_symmetry_equiv_pos_site_id
_symmetry_equiv_pos_as_xyz
1 x,y,z
2 -x,1/2+y,-z
_cell_length_a                   9.198(3)
_cell_length_b                   9.330(3)
_cell_length_c                   9.636(3)
_cell_angle_alpha                90
_cell_angle_beta                 118.480(11)
_cell_angle_gamma                90
_cell_volume                     726.863
loop_
_atom_site_label
_atom_site_type_symbol
_atom_site_fract_x
_atom_site_fract_y
_atom_site_fract_z
Zn1 Zn 1.08399(13) 0.55921(16) 0.86288(10)
N1 N 0.3270(12) 0.5791(14) -0.0654(10)
H1 H 0.3649 0.4912 -0.0700
H2 H 0.3369 0.6331 -0.1378
O1 O 0.9933(10) 0.5064(7) 0.6434(8)
C1 C 1.006(2) 0.3051(17) 0.0027(17)
H3 H 0.9648 0.2564 -0.0929
N2 N 1.0050(11) 0.2501(9) 0.1282(9)
O2 O 1.0118(18) 0.2734(11) 0.6709(11)
C2 C 1.0977(15) 0.3525(13) 0.4089(13)
H4 H 1.1727 0.4285 0.4706
H5 H 1.1488 0.2620 0.4569
N3 N 0.8423(12) 0.4876(9) 0.3243(9)
H6 H 0.8942 0.5679 0.3438
C3 C 1.1139(15) 0.4664(11) 0.1774(11)
H7 H 1.1620 0.5520 0.2276
C4 C 0.9369(14) 0.3684(10) 0.4175(11)
H8 H 0.8714 0.2809 0.3758
C5 C 0.9851(13) 0.3817(13) 0.5917(10)
O3 O 0.6133(13) 0.3727(13) 0.1696(15)
C6 C 0.6916(18) 0.4909(16) 0.2165(17)
N4 N 1.0712(12) 0.4341(10) 0.0236(10)
C7 C 1.0767(14) 0.3576(11) 0.2446(10)
C8 C 0.617(2) 0.6346(17) 0.139(2)
H9 H 0.6693 0.7114 0.2146
H10 H 0.6366 0.6506 0.0503
C9 C 0.4364(19) 0.6366(17) 0.0841(16)
H11 H 0.4175 0.5859 0.1619
H12 H 0.4047 0.7356 0.0850
Zn1_2 Zn 0.08399(13) 0.55921(16) -0.13712(10)
Zn1_3 Zn 1.08399(13) 0.55921(16) -0.13712(10)
Zn1A Zn 0.91601(13) 0.05921(16) 0.13712(10)
N1_2 N 1.3270(12) 0.5791(14) 0.9346(10)
N2A N 0.9950(11) 0.7501(9) 0.8718(9)
N4_2 N 1.0712(12) 0.4341(10) 1.0236(10)
loop_
_geom_bond_atom_site_label_1
_geom_bond_atom_site_label_2
_geom_bond_site_symmetry_1
_geom_bond_site_symmetry_2
Zn1 O1 1_555 1_555
N1 H1 1_555 1_555
H2 N1 1_555 1_555
O1 C5 1_555 1_555
C1 H3 1_555 1_555
N2 C1 1_555 1_555
O2 C5 1_555 1_555
C2 H4 1_555 1_555
H5 C2 1_555 1_555
N3 H6 1_555 1_555
C3 H7 1_555 1_555
C4 C2 1_555 1_555
H8 C4 1_555 1_555
C5 C4 1_555 1_555
O3 C6 1_555 1_555
C6 N3 1_555 1_555
N4 C1 1_555 1_555
C7 N2 1_555 1_555
C8 C6 1_555 1_555
H9 C8 1_555 1_555
H10 C8 1_555 1_555
C9 N1 1_555 1_555
H11 C9 1_555 1_555
H12 C9 1_555 1_555
Zn1_2 N1 1_555 1_555
Zn1_3 N4 1_555 1_555
Zn1A N2 1_555 1_555
N1_2 Zn1 1_555 1_555
N2A Zn1 1_555 1_555
N4_2 Zn1 1_555 1_555
C2 C7 1_555 1_555
N3 C4 1_555 1_555
C3 N4 1_555 1_555
C3 C7 1_555 1_555
C8 C9 1_555 1_555

#END
