
#######################################################################
#
#                 Cambridge Crystallographic Data Centre
#                                CCDC 
#
#######################################################################
#
# If this CIF has been generated from an entry in the Cambridge 
# Structural Database, then it will include bibliographic, chemical, 
# crystal, experimental, refinement or atomic coordinate data resulting 
# from the CCDC's data processing and validation procedures.
#
#######################################################################

data_FIQKIB
_symmetry_cell_setting           orthorhombic
_symmetry_space_group_name_H-M   'I 2 2 2'
_symmetry_Int_Tables_number      23
_space_group_name_Hall           'I 2 2'
loop_
_symmetry_equiv_pos_site_id
_symmetry_equiv_pos_as_xyz
1 x,y,z
2 -x,-y,z
3 x,-y,-z
4 -x,y,-z
5 1/2+x,1/2+y,1/2+z
6 1/2-x,1/2-y,1/2+z
7 1/2+x,1/2-y,1/2-z
8 1/2-x,1/2+y,1/2-z
_cell_length_a                   10.024(2)
_cell_length_b                   18.725(5)
_cell_length_c                   24.813(7)
_cell_angle_alpha                90
_cell_angle_beta                 90
_cell_angle_gamma                90
_cell_volume                     4657.39
loop_
_atom_site_label
_atom_site_type_symbol
_atom_site_fract_x
_atom_site_fract_y
_atom_site_fract_z
N4 N 0.5000 0.4286(7) 0.5000
O7 O 0.508(2) 0.3706(6) 0.5066(7)
O8 O 0.5106(16) 0.4749(8) 0.5343(6)
O9 O 0.4817(15) 0.4414(9) 0.4530(6)
N4A N 0.5000 0.5714(7) 0.5000
O7A O 0.492(2) 0.6294(6) 0.5066(7)
O8A O 0.4894(16) 0.5251(8) 0.5343(6)
O9A O 0.5183(15) 0.5586(9) 0.4530(6)
O7B O 0.508(2) 0.6294(6) 0.4934(7)
O8B O 0.5106(16) 0.5251(8) 0.4657(6)
O9B O 0.4817(15) 0.5586(9) 0.5470(6)
O7C O 0.492(2) 0.3706(6) 0.4934(7)
O8C O 0.4894(16) 0.4749(8) 0.4657(6)
O9C O 0.5183(15) 0.4414(9) 0.5470(6)
O10 O 0.6472(10) 0.3726(5) 0.0704(4)
O11 O 0.209(4) 0.400(2) 0.1786(16)
O12 O 0.435(3) 0.3998(18) 0.1467(13)
O13 O 0.303(3) 0.1091(15) 0.2957(12)
O14 O 0.5000 0.0000 0.2157(14)
Rh1 Rh 0.30612(4) 0.17106(2) 0.113149(14)
Ag1 Ag 0.37512(4) 0.21471(2) -0.037161(16)
Ag2 Ag 0.5000 0.07838(3) 0.0000
S1 S 0.32003(13) 0.26256(7) 0.05059(5)
S2 S 0.29342(12) 0.08266(6) 0.04771(4)
S3 S 0.53499(12) 0.16002(7) 0.11771(5)
O1 O -0.1545(11) 0.2289(6) 0.0895(5)
O2 O -0.1035(11) 0.3443(6) 0.0927(5)
O3 O 0.225(2) -0.0316(10) 0.2282(8)
O4 O 0.1297(9) -0.0883(5) 0.1629(4)
H1 H 0.1278 -0.1217 0.1855
O5 O 0.3702(11) 0.3040(6) 0.2759(5)
O6 O 0.5890(9) 0.3123(5) 0.2632(4)
H2 H 0.6459 0.2944 0.2423
N1 N 0.0994(4) 0.1894(3) 0.11081(18)
H3 H 0.0605 0.1601 0.0856
H4 H 0.0624 0.1793 0.1439
N2 N 0.2770(6) 0.0875(3) 0.16821(17)
H5 H 0.3583 0.0727 0.1813
H6 H 0.2273 0.1038 0.1968
N3 N 0.3279(5) 0.2430(2) 0.17712(17)
H7 H 0.3268 0.2889 0.1638
H8 H 0.2568 0.2381 0.2003
C1 C 0.1427(5) 0.2809(3) 0.0436(2)
H9 H 0.1289 0.3316 0.0337
H10 H 0.1043 0.2507 0.0147
C2 C 0.0742(6) 0.2649(3) 0.0968(2)
H11 H 0.1129 0.2962 0.1254
C3 C -0.0747(6) 0.2798(4) 0.0921(2)
C4 C 0.2856(5) 0.0056(3) 0.09357(18)
H12 H 0.2409 -0.0350 0.0755
H13 H 0.3769 -0.0094 0.1038
C5 C 0.2086(6) 0.0271(3) 0.1430(2)
H14 H 0.1163 0.0418 0.1324
C6 C 0.2009(9) -0.0354(4) 0.1821(2)
C7 C 0.5672(6) 0.2293(3) 0.1679(2)
H15 H 0.6513 0.2188 0.1873
H16 H 0.5767 0.2762 0.1499
C8 C 0.4527(6) 0.2315(3) 0.2072(2)
H17 H 0.4467 0.1833 0.2244
C9 C 0.4699(6) 0.2857(4) 0.2521(2)
Rh1C Rh -0.30612(4) 0.17106(2) -0.113149(14)
Ag1C Ag -0.37512(4) 0.21471(2) 0.037161(16)
S1C S -0.32003(13) 0.26256(7) -0.05059(5)
S2C S -0.29342(12) 0.08266(6) -0.04771(4)
S3C S -0.53499(12) 0.16002(7) -0.11771(5)
O1C O 0.1545(11) 0.2289(6) -0.0895(5)
O2C O 0.1035(11) 0.3443(6) -0.0927(5)
O3C O -0.225(2) -0.0316(10) -0.2282(8)
O4C O -0.1297(9) -0.0883(5) -0.1629(4)
H1C H -0.1278 -0.1217 -0.1855
O5C O -0.3702(11) 0.3040(6) -0.2759(5)
O6C O -0.5890(9) 0.3123(5) -0.2632(4)
H2C H -0.6459 0.2944 -0.2423
N1C N -0.0994(4) 0.1894(3) -0.11081(18)
H3C H -0.0605 0.1601 -0.0856
H4C H -0.0624 0.1793 -0.1439
N2C N -0.2770(6) 0.0875(3) -0.16821(17)
H5C H -0.3583 0.0727 -0.1813
H6C H -0.2273 0.1038 -0.1968
N3C N -0.3279(5) 0.2430(2) -0.17712(17)
H7C H -0.3268 0.2889 -0.1638
H8C H -0.2568 0.2381 -0.2003
C1C C -0.1427(5) 0.2809(3) -0.0436(2)
H9C H -0.1289 0.3316 -0.0337
H10C H -0.1043 0.2507 -0.0147
C2C C -0.0742(6) 0.2649(3) -0.0968(2)
H11C H -0.1129 0.2962 -0.1254
C3C C 0.0747(6) 0.2798(4) -0.0921(2)
C4C C -0.2856(5) 0.0056(3) -0.09357(18)
H12C H -0.2409 -0.0350 -0.0755
H13C H -0.3769 -0.0094 -0.1038
C5C C -0.2086(6) 0.0271(3) -0.1430(2)
H14C H -0.1163 0.0418 -0.1324
C6C C -0.2009(9) -0.0354(4) -0.1821(2)
C7C C -0.5672(6) 0.2293(3) -0.1679(2)
H15C H -0.6513 0.2188 -0.1873
H16C H -0.5767 0.2762 -0.1499
C8C C -0.4527(6) 0.2315(3) -0.2072(2)
H17C H -0.4467 0.1833 -0.2244
C9C C -0.4699(6) 0.2857(4) -0.2521(2)
Ag1_2 Ag -0.62488(4) 0.21471(2) -0.037161(16)
Ag1C_2 Ag 0.62488(4) 0.21471(2) 0.037161(16)
Ag2_2 Ag -0.5000 0.07838(3) 0.0000
S2C_2 S 0.70658(12) 0.08266(6) -0.04771(4)
S3_2 S -0.46501(12) 0.16002(7) 0.11771(5)
S3C_2 S 0.46501(12) 0.16002(7) -0.11771(5)
O15? O -0.1595(14) 0.2411(7) 0.1013(6)
O16? O -0.0948(10) 0.3501(5) 0.0765(4)
H18? H -0.1770 0.3582 0.0740
O17? O 0.2931(9) -0.0452(5) 0.2164(3)
O18? O 0.1092(11) -0.0759(6) 0.1761(4)
O19? O 0.3684(8) 0.3249(5) 0.2609(4)
H19? H 0.3852 0.3534 0.2861
O20? O 0.5758(14) 0.2918(8) 0.2770(6)
O21? O 0.1020(18) 0.3848(9) 0.1990(7)
O22? O 0.552(4) 0.426(2) 0.1770(16)
O23? O 0.228(4) 0.115(2) 0.2893(16)
loop_
_geom_bond_atom_site_label_1
_geom_bond_atom_site_label_2
_geom_bond_site_symmetry_1
_geom_bond_site_symmetry_2
Rh1 S1 1_555 1_555
Ag1 S1 1_555 1_555
Ag2 S2 1_555 1_555
S1 C1 1_555 1_555
S2 Rh1 1_555 1_555
S3 Rh1 1_555 1_555
O1 C3 1_555 1_555
O2 C3 1_555 1_555
O3 C6 1_555 1_555
O4 H1 1_555 1_555
O5 C9 1_555 1_555
O6 H2 1_555 1_555
N1 Rh1 1_555 1_555
H3 N1 1_555 1_555
H4 N1 1_555 1_555
N2 Rh1 1_555 1_555
H5 N2 1_555 1_555
H6 N2 1_555 1_555
N3 Rh1 1_555 1_555
H7 N3 1_555 1_555
H8 N3 1_555 1_555
C1 H9 1_555 1_555
H10 C1 1_555 1_555
C2 N1 1_555 1_555
H11 C2 1_555 1_555
C3 C2 1_555 1_555
C4 S2 1_555 1_555
H12 C4 1_555 1_555
H13 C4 1_555 1_555
C5 N2 1_555 1_555
H14 C5 1_555 1_555
C6 O4 1_555 1_555
C7 S3 1_555 1_555
H15 C7 1_555 1_555
H16 C7 1_555 1_555
C8 N3 1_555 1_555
H17 C8 1_555 1_555
C9 O6 1_555 1_555
N4 O7 1_555 1_555
O7 O9C 1_555 1_555
O8 N4 1_555 1_555
O9 N4 1_555 1_555
Rh1C S1C 1_555 1_555
Ag1C O1 1_555 1_555
S1C Ag1C 1_555 1_555
S2C Rh1C 1_555 1_555
S3C Rh1C 1_555 1_555
O1C Ag1 1_555 1_555
O2C C3C 1_555 1_555
O3C C6C 1_555 1_555
O4C H1C 1_555 1_555
O5C C9C 1_555 1_555
O6C H2C 1_555 1_555
N1C Rh1C 1_555 1_555
H3C N1C 1_555 1_555
H4C N1C 1_555 1_555
N2C Rh1C 1_555 1_555
H5C N2C 1_555 1_555
H6C N2C 1_555 1_555
N3C Rh1C 1_555 1_555
H7C N3C 1_555 1_555
H8C N3C 1_555 1_555
C1C S1C 1_555 1_555
H9C C1C 1_555 1_555
H10C C1C 1_555 1_555
C2C N1C 1_555 1_555
H11C C2C 1_555 1_555
C3C O1C 1_555 1_555
C4C S2C 1_555 1_555
H12C C4C 1_555 1_555
H13C C4C 1_555 1_555
C5C N2C 1_555 1_555
H14C C5C 1_555 1_555
C6C O4C 1_555 1_555
C7C S3C 1_555 1_555
H15C C7C 1_555 1_555
H16C C7C 1_555 1_555
C8C N3C 1_555 1_555
H17C C8C 1_555 1_555
C9C O6C 1_555 1_555
Ag1_2 S3C 1_555 1_555
Ag1C_2 S3 1_555 1_555
Ag2_2 S2C 1_555 1_555
S2C_2 Ag2 1_555 1_555
S3_2 Ag1C 1_555 1_555
S3C_2 Ag1 1_555 1_555
N4A O7A 1_555 1_555
O7A O9B 1_555 1_555
O8A O8 1_555 1_555
O9A N4A 1_555 1_555
O7B N4A 1_555 1_555
O8B O9 1_555 1_555
O9B O8 1_555 1_555
O7C N4 1_555 1_555
O8C N4 1_555 1_555
O9C N4 1_555 1_555
C1 C2 1_555 1_555
C4 C5 1_555 1_555
C5 C6 1_555 1_555
C7 C8 1_555 1_555
C8 C9 1_555 1_555
O8 O8C 1_555 1_555
O8 O9C 1_555 1_555
O9 O7C 1_555 1_555
O9 O8C 1_555 1_555
C1C C2C 1_555 1_555
C2C C3C 1_555 1_555
C4C C5C 1_555 1_555
C5C C6C 1_555 1_555
C7C C8C 1_555 1_555
C8C C9C 1_555 1_555
N4A O8A 1_555 1_555
N4A O8B 1_555 1_555
N4A O9B 1_555 1_555
O8A O8B 1_555 1_555
O8A O9B 1_555 1_555
O8A O9C 1_555 1_555
O9A O7B 1_555 1_555
O9A O8B 1_555 1_555
O9A O8C 1_555 1_555
O8B O8C 1_555 1_555

#END
