
#######################################################################
#
#                 Cambridge Crystallographic Data Centre
#                                CCDC 
#
#######################################################################
#
# If this CIF has been generated from an entry in the Cambridge 
# Structural Database, then it will include bibliographic, chemical, 
# crystal, experimental, refinement or atomic coordinate data resulting 
# from the CCDC's data processing and validation procedures.
#
#######################################################################

data_FIRNAX01
_symmetry_cell_setting           trigonal
_symmetry_space_group_name_H-M   'P 31 2 1'
_symmetry_Int_Tables_number      152
_space_group_name_Hall           'P 31 2"'
loop_
_symmetry_equiv_pos_site_id
_symmetry_equiv_pos_as_xyz
1 x,y,z
2 -y,x-y,1/3+z
3 -x+y,-x,2/3+z
4 y,x,-z
5 -x,-x+y,1/3-z
6 x-y,-y,2/3-z
_cell_length_a                   15.698(2)
_cell_length_b                   15.698(2)
_cell_length_c                   18.557(4)
_cell_angle_alpha                90
_cell_angle_beta                 90
_cell_angle_gamma                120
_cell_volume                     3960.29
loop_
_atom_site_label
_atom_site_type_symbol
_atom_site_fract_x
_atom_site_fract_y
_atom_site_fract_z
Ni1 Ni 0.82207(3) 1.0000 0.8333
F1 F 0.9342(7) 1.3263(4) 0.8012(4)
O1 O 0.95410(19) 1.0000 0.8333
O2 O 0.87951(14) 1.12354(14) 0.76961(9)
O3 O 1.0301(2) 1.1557(2) 0.7482(2)
N1 N 0.77705(17) 0.91006(16) 0.74018(11)
N2 N 0.60452(16) 0.63956(18) 0.55820(12)
N3 N 0.7524(2) 0.7524(2) 0.5000
N4 N 0.3119(2) 0.3119(2) 0.5000
C1 C 0.6934(2) 0.8239(2) 0.73922(15)
H1 H 0.6544 0.8050 0.7804
C2 C 0.6614(2) 0.7613(2) 0.68086(15)
H2 H 0.6020 0.7023 0.6824
C3 C 0.7200(2) 0.7886(2) 0.61994(14)
C4 C 0.8078(2) 0.8762(2) 0.62075(16)
H3 H 0.8497 0.8954 0.5812
C5 C 0.8326(2) 0.9348(2) 0.68093(15)
H4 H 0.8911 0.9948 0.6804
C6 C 0.6893(2) 0.7226(2) 0.55524(15)
C7 C 0.3755(4) 0.3375(2) 0.44516(17)
H5 H 0.3592 0.2943 0.4065
C8 C 0.4625(4) 0.4235(2) 0.44330(17)
H6 H 0.5044 0.4385 0.4040
C9 C 0.4882(2) 0.4882(2) 0.5000
C10 C 0.5831(2) 0.5831(2) 0.5000
C11 C 0.9636(2) 1.1739(2) 0.74381(17)
C12 C 0.9817(3) 1.2651(3) 0.70147(19)
C13 C 0.9646(5) 1.3330(4) 0.7346(3)
C14 C 0.9782(7) 1.4184(5) 0.7013(4)
H7 H 0.9593 1.4594 0.7236
F1D F 1.0658(7) 1.3921(8) 0.5321(4)
O2D O 1.12049(14) 1.24403(20) 0.56372(9)
O3D O 0.9699(2) 1.1256(3) 0.5851(2)
C11D C 1.0364(2) 1.2103(3) 0.58952(17)
C12D C 1.0183(3) 1.2834(4) 0.63186(19)
C13D C 1.0354(5) 1.3684(6) 0.5987(3)
C14D C 1.0218(7) 1.4402(9) 0.6320(4)
H7D H 1.0407 1.5001 0.6097
N1C N 0.91006(16) 0.77705(17) 0.25982(11)
N2C N 0.63956(18) 0.60452(16) 0.44180(12)
C1C C 0.8239(2) 0.6934(2) 0.26078(15)
H1C H 0.8050 0.6544 0.2196
C2C C 0.7613(2) 0.6614(2) 0.31914(15)
H2C H 0.7023 0.6020 0.3176
C3C C 0.7886(2) 0.7200(2) 0.38006(14)
C4C C 0.8762(2) 0.8078(2) 0.37925(16)
H3C H 0.8954 0.8497 0.4188
C5C C 0.9348(2) 0.8326(2) 0.31907(15)
H4C H 0.9948 0.8911 0.3196
C6C C 0.7226(2) 0.6893(2) 0.44476(15)
C7C C 0.3375(2) 0.3755(4) 0.55484(17)
H5C H 0.2943 0.3592 0.5935
C8C C 0.4235(2) 0.4625(4) 0.55670(17)
H6C H 0.4385 0.5044 0.5960
Ni1A Ni 1.0000 0.82207(3) 0.1666
Ni1B Ni 0.17793(3) 0.17793(3) 0.5000
Ni1B_2 Ni 1.17793(3) 1.17793(3) 0.5000
O2E O 0.75597(20) 0.87646(14) 0.89706(9)
N1E N 0.86699(23) 1.08994(16) 0.92649(11)
N4A N 0.6881(2) 1.0000(3) 0.8333
loop_
_geom_bond_atom_site_label_1
_geom_bond_atom_site_label_2
_geom_bond_site_symmetry_1
_geom_bond_site_symmetry_2
Ni1 O1 1_555 1_555
F1 C13 1_555 1_555
O2 Ni1 1_555 1_555
O3 C11 1_555 1_555
N1 Ni1 1_555 1_555
N2 C6 1_555 1_555
N3 C6 1_555 1_555
N4 C7 1_555 1_555
C1 N1 1_555 1_555
H1 C1 1_555 1_555
C2 C1 1_555 1_555
H2 C2 1_555 1_555
C3 C2 1_555 1_555
C4 C3 1_555 1_555
H3 C4 1_555 1_555
C5 N1 1_555 1_555
H4 C5 1_555 1_555
C6 C3 1_555 1_555
C7 H5 1_555 1_555
C8 C7 1_555 1_555
H6 C8 1_555 1_555
C9 C8 1_555 1_555
C10 N2 1_555 1_555
C11 O2 1_555 1_555
C12 C11 1_555 1_555
C13 C12 1_555 1_555
C14 C13 1_555 1_555
H7 C14 1_555 1_555
F1D C13D 1_555 1_555
O2D C11D 1_555 1_555
O3D C11D 1_555 1_555
C11D C12D 1_555 1_555
C12D C12 1_555 1_555
C13D C12D 1_555 1_555
C14D C14 1_555 1_555
H7D C14D 1_555 1_555
N1C C1C 1_555 1_555
N2C C10 1_555 1_555
C1C H1C 1_555 1_555
C2C C1C 1_555 1_555
H2C C2C 1_555 1_555
C3C C2C 1_555 1_555
C4C C3C 1_555 1_555
H3C C4C 1_555 1_555
C5C N1C 1_555 1_555
H4C C5C 1_555 1_555
C6C N3 1_555 1_555
C7C N4 1_555 1_555
H5C C7C 1_555 1_555
C8C C9 1_555 1_555
H6C C8C 1_555 1_555
Ni1A N1C 1_555 1_555
Ni1B N4 1_555 1_555
Ni1B_2 O2D 1_555 1_555
O2E Ni1 1_555 1_555
N1E Ni1 1_555 1_555
N4A Ni1 1_555 1_555
C4 C5 1_555 1_555
C9 C10 1_555 1_555
C13D C14D 1_555 1_555
N2C C6C 1_555 1_555
C3C C6C 1_555 1_555
C4C C5C 1_555 1_555
C7C C8C 1_555 1_555

#END
