
#######################################################################
#
#                 Cambridge Crystallographic Data Centre
#                                CCDC 
#
#######################################################################
#
# If this CIF has been generated from an entry in the Cambridge 
# Structural Database, then it will include bibliographic, chemical, 
# crystal, experimental, refinement or atomic coordinate data resulting 
# from the CCDC's data processing and validation procedures.
#
#######################################################################

data_FIRNUR
_symmetry_cell_setting           trigonal
_symmetry_space_group_name_H-M   'P 32 2 1'
_symmetry_Int_Tables_number      154
_space_group_name_Hall           'P 32 2"'
loop_
_symmetry_equiv_pos_site_id
_symmetry_equiv_pos_as_xyz
1 x,y,z
2 -y,x-y,2/3+z
3 -x+y,-x,1/3+z
4 y,x,-z
5 -x,-x+y,2/3-z
6 x-y,-y,1/3-z
_cell_length_a                   15.673(3)
_cell_length_b                   15.673(3)
_cell_length_c                   18.532(4)
_cell_angle_alpha                90
_cell_angle_beta                 90
_cell_angle_gamma                120
_cell_volume                     3942.37
loop_
_atom_site_label
_atom_site_type_symbol
_atom_site_fract_x
_atom_site_fract_y
_atom_site_fract_z
Ni1 Ni 0.82237(7) 0.82237(7) 0.5000
O1 O 0.8803(3) 0.7548(4) 0.4368(2)
O2 O 1.0302(5) 0.8748(5) 0.4165(4)
O3 O 0.9565(4) 0.9565(4) 0.5000
N1 N 0.3089(5) 1.0000 0.1667
N2 N 0.7782(4) 0.8679(5) 0.4068(3)
N3 N 0.7524(5) 1.0000 0.1667
N4 N 0.6039(4) 0.9649(6) 0.2251(3)
N5 N 0.963(3) 0.4827(17) 0.4060(19)
H1 H 0.9390 0.4667 0.4507
H2 H 0.9561 0.4309 0.3866
C1 C 0.3363(5) 0.9629(7) 0.2178(4)
H3 H 0.2913 0.9335 0.2552
C2 C 0.4249(5) 0.9606(7) 0.2249(4)
H4 H 0.4392 0.9348 0.2654
C3 C 0.4890(6) 1.0000 0.1667
C4 C 0.6934(6) 0.8719(6) 0.4067(4)
H5 H 0.6547 0.8542 0.4481
C5 C 0.6638(5) 0.9016(6) 0.3470(4)
H6 H 0.6046 0.9017 0.3479
C6 C 0.7190(6) 0.9305(7) 0.2872(4)
C7 C 0.8077(6) 0.9318(7) 0.2899(4)
H7 H 0.8521 0.9579 0.2518
C8 C 0.8295(6) 0.8945(6) 0.3487(4)
H8 H 0.8852 0.8878 0.3467
C9 C 0.6883(6) 0.9662(7) 0.2236(4)
C10 C 0.5862(6) 1.0000 0.1667
C11 C 0.9628(6) 0.7872(6) 0.4091(5)
C12 C 0.9799(7) 0.7160(7) 0.3686(5)
C13 C 0.9630(10) 0.6359(7) 0.4064(6)
H9 H 0.9386 0.6262 0.4532
C14 C 0.9825(14) 0.5696(11) 0.3742(9)
O1D O 1.1197(3) 0.8745(5) 0.2299(2)
O2D O 0.9698(5) 0.8446(7) 0.2502(4)
N5D N 1.037(3) 0.5197(34) 0.2607(19)
H1D H 1.0610 0.5277 0.2160
H2D H 1.0439 0.4748 0.2801
C11D C 1.0372(6) 0.8244(8) 0.2576(5)
C12D C 1.0201(7) 0.7361(10) 0.2981(5)
C13D C 1.0370(10) 0.6729(12) 0.2603(6)
H9D H 1.0614 0.6876 0.2135
C14D C 1.0175(14) 0.5871(18) 0.2925(9)
N2E N 0.9103(6) 1.1321(5) -0.0735(3)
N4E N 0.6390(7) 1.0351(6) 0.1082(3)
C1E C 0.3734(9) 1.0371(7) 0.1155(4)
H3E H 0.3578 1.0665 0.0781
C2E C 0.4643(9) 1.0394(7) 0.1084(4)
H4E H 0.5044 1.0652 0.0679
C4E C 0.8215(8) 1.1281(6) -0.0734(4)
H5E H 0.8005 1.1458 -0.1148
C5E C 0.7622(8) 1.0984(6) -0.0137(4)
H6E H 0.7029 1.0983 -0.0146
C6E C 0.7885(9) 1.0695(7) 0.0461(4)
C7E C 0.8759(9) 1.0682(7) 0.0434(4)
H7E H 0.8942 1.0421 0.0815
C8E C 0.9350(8) 1.1055(6) -0.0154(4)
H8E H 0.9974 1.1122 -0.0134
C9E C 0.7221(9) 1.0338(7) 0.1097(4)
Ni1A Ni 0.17763(7) 1.00000(10) 0.1667
Ni1A_2 Ni 1.17763(7) 1.00000(10) 0.1667
Ni1B Ni 1.00000(10) 1.17763(7) -0.1667
O1C O 0.7548(4) 0.8803(3) 0.5632(2)
N1B N 0.6911(5) 0.6911(5) 0.5000
N2C N 0.8679(5) 0.7782(4) 0.5932(3)
loop_
_geom_bond_atom_site_label_1
_geom_bond_atom_site_label_2
_geom_bond_site_symmetry_1
_geom_bond_site_symmetry_2
Ni1 O1 1_555 1_555
O1 C11 1_555 1_555
O2 C11 1_555 1_555
O3 Ni1 1_555 1_555
N1 C1 1_555 1_555
N2 Ni1 1_555 1_555
N3 C9 1_555 1_555
N4 C9 1_555 1_555
N5 H1 1_555 1_555
H2 N5 1_555 1_555
C1 H3 1_555 1_555
C2 C1 1_555 1_555
H4 C2 1_555 1_555
C3 C2 1_555 1_555
C4 N2 1_555 1_555
H5 C4 1_555 1_555
C5 C4 1_555 1_555
H6 C5 1_555 1_555
C6 C5 1_555 1_555
C7 C6 1_555 1_555
H7 C7 1_555 1_555
C8 N2 1_555 1_555
H8 C8 1_555 1_555
C9 C6 1_555 1_555
C10 N4 1_555 1_555
C11 C12 1_555 1_555
C12 C13 1_555 1_555
C13 H9 1_555 1_555
C14 N5 1_555 1_555
O1D C11D 1_555 1_555
O2D C11D 1_555 1_555
N5D H1D 1_555 1_555
H2D N5D 1_555 1_555
C11D C12D 1_555 1_555
C12D C12 1_555 1_555
C13D C12D 1_555 1_555
H9D C13D 1_555 1_555
C14D C14 1_555 1_555
N2E C4E 1_555 1_555
N4E C10 1_555 1_555
C1E N1 1_555 1_555
H3E C1E 1_555 1_555
C2E C3 1_555 1_555
H4E C2E 1_555 1_555
C4E H5E 1_555 1_555
C5E C4E 1_555 1_555
H6E C5E 1_555 1_555
C6E C5E 1_555 1_555
C7E C6E 1_555 1_555
H7E C7E 1_555 1_555
C8E N2E 1_555 1_555
H8E C8E 1_555 1_555
C9E N3 1_555 1_555
Ni1A N1 1_555 1_555
Ni1A_2 O1D 1_555 1_555
Ni1B N2E 1_555 1_555
O1C Ni1 1_555 1_555
N1B Ni1 1_555 1_555
N2C Ni1 1_555 1_555
C3 C10 1_555 1_555
C7 C8 1_555 1_555
C13 C14 1_555 1_555
N5D C14D 1_555 1_555
C13D C14D 1_555 1_555
N4E C9E 1_555 1_555
C1E C2E 1_555 1_555
C6E C9E 1_555 1_555
C7E C8E 1_555 1_555

#END
