
#######################################################################
#
#                 Cambridge Crystallographic Data Centre
#                                CCDC 
#
#######################################################################
#
# If this CIF has been generated from an entry in the Cambridge 
# Structural Database, then it will include bibliographic, chemical, 
# crystal, experimental, refinement or atomic coordinate data resulting 
# from the CCDC's data processing and validation procedures.
#
#######################################################################

data_FIRNOL
_symmetry_cell_setting           trigonal
_symmetry_space_group_name_H-M   'P 32 2 1'
_symmetry_Int_Tables_number      154
_space_group_name_Hall           'P 32 2"'
loop_
_symmetry_equiv_pos_site_id
_symmetry_equiv_pos_as_xyz
1 x,y,z
2 -y,x-y,2/3+z
3 -x+y,-x,1/3+z
4 y,x,-z
5 -x,-x+y,2/3-z
6 x-y,-y,1/3-z
_cell_length_a                   15.638(2)
_cell_length_b                   15.638(2)
_cell_length_c                   18.499(4)
_cell_angle_alpha                90
_cell_angle_beta                 90
_cell_angle_gamma                120
_cell_volume                     3917.79
loop_
_atom_site_label
_atom_site_type_symbol
_atom_site_fract_x
_atom_site_fract_y
_atom_site_fract_z
Ni1 Ni 1.0000 0.82381(5) 0.8333
O1 O 0.8752(3) 0.7562(3) 0.89737(17)
O2 O 0.8424(4) 0.8741(4) 0.9195(3)
O3 O 1.0000 0.9573(3) 0.8333
O4 O 0.528(3) 0.454(3) 0.8637(17)
O5 O 0.461(2) 0.4037(19) 0.9690(15)
N1 N 0.9082(3) 0.7786(3) 0.74101(19)
N2 N 0.7516(4) 0.7516(4) 0.5000
N3 N 0.6373(3) 0.6044(3) 0.5588(2)
N4 N 0.3104(4) 0.3104(4) 0.5000
N5 N 0.526(2) 0.4634(16) 0.9292(17)
C1 C 0.8242(4) 0.6945(4) 0.7396(3)
H1 H 0.8055 0.6544 0.7804
C2 C 0.7631(4) 0.6634(4) 0.6804(3)
H2 H 0.7053 0.6024 0.6812
C3 C 0.7867(4) 0.7216(4) 0.6206(2)
C4 C 0.8744(4) 0.8097(4) 0.6227(3)
H3 H 0.8947 0.8513 0.5827
C5 C 0.9313(4) 0.8360(4) 0.6830(3)
H4 H 0.9891 0.8969 0.6838
C6 C 0.7220(4) 0.6898(4) 0.5569(2)
C7 C 0.5829(5) 0.5829(5) 0.5000
C8 C 0.3380(4) 0.3729(6) 0.4450(3)
H5 H 0.2954 0.3561 0.4058
C9 C 0.4240(4) 0.4594(6) 0.4421(3)
H6 H 0.4399 0.4995 0.4014
C10 C 0.4882(4) 0.4882(4) 0.5000
C11 C 0.8261(5) 0.7892(5) 0.9239(3)
C12 C 0.7366(5) 0.7153(5) 0.9654(4)
C13 C 0.6712(7) 0.6310(7) 0.9278(6)
H7 H 0.6833 0.6214 0.8801
C14 C 0.5862(8) 0.5609(9) 0.9641(8)
O1C O 0.7562(3) 0.8752(3) 1.10263(17)
O2C O 0.8741(4) 0.8424(4) 1.0805(3)
O4C O 0.454(3) 0.528(3) 1.1363(17)
O5C O 0.4037(19) 0.461(2) 1.0310(15)
N5C N 0.4634(16) 0.526(2) 1.0708(17)
C11C C 0.7892(5) 0.8261(5) 1.0761(3)
C12C C 0.7153(5) 0.7366(5) 1.0346(4)
C13C C 0.6310(7) 0.6712(7) 1.0722(6)
H7C H 0.6214 0.6833 1.1199
C14C C 0.5609(9) 0.5862(8) 1.0359(8)
N1C N 0.7786(3) 0.9082(3) 0.25899(19)
N3C N 0.6044(3) 0.6373(3) 0.4412(2)
C1C C 0.6945(4) 0.8242(4) 0.2604(3)
H1C H 0.6544 0.8055 0.2196
C2C C 0.6634(4) 0.7631(4) 0.3196(3)
H2C H 0.6024 0.7053 0.3188
C3C C 0.7216(4) 0.7867(4) 0.3794(2)
C4C C 0.8097(4) 0.8744(4) 0.3773(3)
H3C H 0.8513 0.8947 0.4173
C5C C 0.8360(4) 0.9313(4) 0.3170(3)
H4C H 0.8969 0.9891 0.3162
C6C C 0.6898(4) 0.7220(4) 0.4431(2)
C8C C 0.3729(6) 0.3380(4) 0.5550(3)
H5C H 0.3561 0.2954 0.5942
C9C C 0.4594(6) 0.4240(4) 0.5579(3)
H6C H 0.4995 0.4399 0.5986
Ni1A Ni 0.17619(5) 0.17619(5) 0.5000
Ni1B Ni 0.82381(5) 1.0000 0.1666
Ni1B_2 Ni 0.82381(5) 1.0000 1.1666
O1D O 1.1248(3) 0.8810(4) 0.76930(17)
N1D N 1.0918(3) 0.8704(4) 0.92566(19)
N4B N 1.0000(6) 0.6896(4) 0.8333
loop_
_geom_bond_atom_site_label_1
_geom_bond_atom_site_label_2
_geom_bond_site_symmetry_1
_geom_bond_site_symmetry_2
Ni1 O1 1_555 1_555
O1 C11 1_555 1_555
O2 C11 1_555 1_555
O3 Ni1 1_555 1_555
O4 N5 1_555 1_555
O5 N5 1_555 1_555
N1 Ni1 1_555 1_555
N2 C6 1_555 1_555
N3 C6 1_555 1_555
N4 C8 1_555 1_555
N5 C14 1_555 1_555
C1 N1 1_555 1_555
H1 C1 1_555 1_555
C2 C1 1_555 1_555
H2 C2 1_555 1_555
C3 C2 1_555 1_555
C4 C3 1_555 1_555
H3 C4 1_555 1_555
C5 N1 1_555 1_555
H4 C5 1_555 1_555
C6 C3 1_555 1_555
C7 N3 1_555 1_555
C8 H5 1_555 1_555
C9 C8 1_555 1_555
H6 C9 1_555 1_555
C10 C7 1_555 1_555
C11 C12 1_555 1_555
C12 C13 1_555 1_555
C13 H7 1_555 1_555
C14 C13 1_555 1_555
O1C C11C 1_555 1_555
O2C C11C 1_555 1_555
O4C N5C 1_555 1_555
O5C N5C 1_555 1_555
N5C C14C 1_555 1_555
C11C C12C 1_555 1_555
C12C C12 1_555 1_555
C13C C12C 1_555 1_555
H7C C13C 1_555 1_555
C14C C14 1_555 1_555
N1C C1C 1_555 1_555
N3C C7 1_555 1_555
C1C H1C 1_555 1_555
C2C C1C 1_555 1_555
H2C C2C 1_555 1_555
C3C C2C 1_555 1_555
C4C C3C 1_555 1_555
H3C C4C 1_555 1_555
C5C N1C 1_555 1_555
H4C C5C 1_555 1_555
C6C N2 1_555 1_555
C8C N4 1_555 1_555
H5C C8C 1_555 1_555
C9C C10 1_555 1_555
H6C C9C 1_555 1_555
Ni1A N4 1_555 1_555
Ni1B N1C 1_555 1_555
Ni1B_2 O1C 1_555 1_555
O1D Ni1 1_555 1_555
N1D Ni1 1_555 1_555
N4B Ni1 1_555 1_555
C4 C5 1_555 1_555
C9 C10 1_555 1_555
C13C C14C 1_555 1_555
N3C C6C 1_555 1_555
C3C C6C 1_555 1_555
C4C C5C 1_555 1_555
C8C C9C 1_555 1_555

#END
