
#######################################################################
#
#                 Cambridge Crystallographic Data Centre
#                                CCDC 
#
#######################################################################
#
# If this CIF has been generated from an entry in the Cambridge 
# Structural Database, then it will include bibliographic, chemical, 
# crystal, experimental, refinement or atomic coordinate data resulting 
# from the CCDC's data processing and validation procedures.
#
#######################################################################

data_FITHIA
_symmetry_cell_setting           tetragonal
_symmetry_space_group_name_H-M   'I -4 2 d'
_symmetry_Int_Tables_number      122
_space_group_name_Hall           'I -4 2bw'
loop_
_symmetry_equiv_pos_site_id
_symmetry_equiv_pos_as_xyz
1 x,y,z
2 y,-x,-z
3 x,1/2-y,1/4-z
4 -x,-y,z
5 1/2-y,-x,3/4+z
6 -y,x,-z
7 -x,1/2+y,1/4-z
8 1/2+y,x,3/4+z
9 1/2+x,1/2+y,1/2+z
10 1/2+y,1/2-x,1/2-z
11 1/2+x,-y,3/4-z
12 1/2-x,1/2-y,1/2+z
13 -y,1/2-x,1/4+z
14 1/2-y,1/2+x,1/2-z
15 1/2-x,y,3/4-z
16 y,1/2+x,1/4+z
_cell_length_a                   23.995(4)
_cell_length_b                   23.995(4)
_cell_length_c                   3.9498(9)
_cell_angle_alpha                90
_cell_angle_beta                 90
_cell_angle_gamma                90
_cell_volume                     2274.14
loop_
_atom_site_label
_atom_site_type_symbol
_atom_site_fract_x
_atom_site_fract_y
_atom_site_fract_z
Cl1 Cl 0.7500 0.85834(16) -0.1250
O5 O 0.7880(4) 0.9028(4) -0.070(4)
O6 O 0.7023(4) 0.8691(6) -0.008(4)
O5N O 0.7120(4) 0.9028(4) -0.180(4)
O6N O 0.7977(4) 0.8691(6) -0.242(4)
Sc1 Sc 0.5000 0.5000 -0.5000
O1 O 0.44664(16) 0.42893(11) -0.4386(10)
O2 O 0.5000 0.5000 -1.0000
N1 N 0.44706(15) 0.38055(11) -0.2773(9)
C1 C 0.39812(18) 0.35438(15) -0.2199(13)
H1 H 0.3642 0.3715 -0.2867
C2 C 0.39714(18) 0.30305(18) -0.0653(11)
H2 H 0.3625 0.2847 -0.0317
C3 C 0.49496(18) 0.35783(16) -0.1741(10)
H3 H 0.5291 0.3771 -0.2094
C4 C 0.49505(16) 0.30651(15) -0.0163(11)
H4 H 0.5294 0.2906 0.0537
C5 C 0.44581(17) 0.27764(14) 0.0421(9)
Sc1_2 Sc 0.5000 0.5000 -1.5000
Sc1B Sc 0.5000 0.0000 0.7500
Sc1D Sc 0.0000 0.5000 -1.7500
O1B O 0.44664(16) 0.07107(11) 0.6886(10)
O1A O 0.42893(11) 0.55336(16) -0.5614(10)
O1D O 0.07107(11) 0.55336(16) -1.6886(10)
O1C O 0.55336(16) 0.57107(11) -0.4386(10)
O1E O 0.57107(11) 0.44664(16) -0.5614(10)
O2_2 O 0.5000 0.5000 0.0000
N1B N 0.44706(15) 0.11945(11) 0.5273(9)
N1A N 0.38055(11) 0.55294(15) -0.7227(9)
N1D N 0.11945(11) 0.55294(15) -1.5273(9)
C1B C 0.39812(18) 0.14562(15) 0.4699(13)
C1A C 0.35438(15) 0.60188(18) -0.7801(13)
C1D C 0.14562(15) 0.60188(18) -1.4699(13)
H1B H 0.3642 0.1285 0.5367
H1A H 0.3715 0.6358 -0.7133
H1D H 0.1285 0.6358 -1.5367
C2B C 0.39714(18) 0.19695(18) 0.3153(11)
C2A C 0.30305(18) 0.60286(18) -0.9347(11)
C2D C 0.19695(18) 0.60286(18) -1.3153(11)
H2B H 0.3625 0.2153 0.2817
H2A H 0.2847 0.6375 -0.9683
H2D H 0.2153 0.6375 -1.2817
C3B C 0.49496(18) 0.14217(16) 0.4241(10)
C3A C 0.35783(16) 0.50504(18) -0.8259(10)
C3D C 0.14217(16) 0.50504(18) -1.4241(10)
H3B H 0.5291 0.1229 0.4594
H3A H 0.3771 0.4709 -0.7906
H3D H 0.1229 0.4709 -1.4594
C4B C 0.49505(16) 0.19349(15) 0.2663(11)
C4A C 0.30651(15) 0.50495(16) -0.9837(11)
C4D C 0.19349(15) 0.50495(16) -1.2663(11)
H4B H 0.5294 0.2094 0.1963
H4A H 0.2906 0.4706 -1.0537
H4D H 0.2094 0.4706 -1.1963
C5B C 0.44581(17) 0.22236(14) 0.2079(9)
C5A C 0.27764(14) 0.55419(17) -1.0421(9)
C5D C 0.22236(14) 0.55419(17) -1.2079(9)
O3? O 0.7782(5) 0.8057(7) -0.041(10)
O4? O 0.7474(7) 0.8721(4) -0.504(4)
loop_
_geom_bond_atom_site_label_1
_geom_bond_atom_site_label_2
_geom_bond_site_symmetry_1
_geom_bond_site_symmetry_2
Sc1 O1 1_555 1_555
O1 N1 1_555 1_555
O2 Sc1 1_555 1_555
N1 C1 1_555 1_555
C1 H1 1_555 1_555
C2 C1 1_555 1_555
H2 C2 1_555 1_555
C3 N1 1_555 1_555
H3 C3 1_555 1_555
C4 C3 1_555 1_555
H4 C4 1_555 1_555
C5 C2 1_555 1_555
Cl1 O5 1_555 1_555
O5 O6N 1_555 1_555
O6 Cl1 1_555 1_555
Sc1_2 O2 1_555 1_555
Sc1B O1B 1_555 1_555
Sc1D O1D 1_555 1_555
O1B N1B 1_555 1_555
O1A Sc1 1_555 1_555
O1D N1D 1_555 1_555
O1C Sc1 1_555 1_555
O1E Sc1 1_555 1_555
O2_2 Sc1 1_555 1_555
N1B C1B 1_555 1_555
N1A O1A 1_555 1_555
N1D C1D 1_555 1_555
C1B H1B 1_555 1_555
C1A N1A 1_555 1_555
C1D H1D 1_555 1_555
H1A C1A 1_555 1_555
C2B C1B 1_555 1_555
C2A C1A 1_555 1_555
C2D C1D 1_555 1_555
H2B C2B 1_555 1_555
H2A C2A 1_555 1_555
H2D C2D 1_555 1_555
C3B N1B 1_555 1_555
C3A N1A 1_555 1_555
C3D N1D 1_555 1_555
H3B C3B 1_555 1_555
H3A C3A 1_555 1_555
H3D C3D 1_555 1_555
C4B C3B 1_555 1_555
C4A C3A 1_555 1_555
C4D C3D 1_555 1_555
H4B C4B 1_555 1_555
H4A C4A 1_555 1_555
H4D C4D 1_555 1_555
C5B C5 1_555 1_555
C5A C2A 1_555 1_555
C5D C2D 1_555 1_555
O5N Cl1 1_555 1_555
O6N Cl1 1_555 1_555
C4 C5 1_555 1_555
O6 O5N 1_555 1_555
C2B C5B 1_555 1_555
C4B C5B 1_555 1_555
C4A C5A 1_555 1_555
C4D C5D 1_555 1_555
C5A C5D 1_555 1_555

#END
