
#######################################################################
#
#                 Cambridge Crystallographic Data Centre
#                                CCDC 
#
#######################################################################
#
# If this CIF has been generated from an entry in the Cambridge 
# Structural Database, then it will include bibliographic, chemical, 
# crystal, experimental, refinement or atomic coordinate data resulting 
# from the CCDC's data processing and validation procedures.
#
#######################################################################

data_FIVNAZ
_symmetry_cell_setting           monoclinic
_symmetry_space_group_name_H-M   'C 2/c'
_symmetry_Int_Tables_number      15
_space_group_name_Hall           '-C 2yn'
loop_
_symmetry_equiv_pos_site_id
_symmetry_equiv_pos_as_xyz
1 x,y,z
2 1/2+x,1/2+y,z
3 -x,y,1/2-z
4 1/2-x,1/2+y,1/2-z
5 -x,-y,-z
6 1/2-x,1/2-y,-z
7 x,-y,1/2+z
8 1/2+x,1/2-y,1/2+z
_cell_length_a                   12.034(4)
_cell_length_b                   11.186(3)
_cell_length_c                   8.165(3)
_cell_angle_alpha                90
_cell_angle_beta                 129.32(2)
_cell_angle_gamma                90
_cell_volume                     850.292
loop_
_atom_site_label
_atom_site_type_symbol
_atom_site_fract_x
_atom_site_fract_y
_atom_site_fract_z
Ho1 Ho 0.00000 0.06649(1) 0.25000
F1 F 0.00000 0.00000 0.00000
O1 O -0.20536(22) 0.15094(19) 0.19730(32)
O2 O -0.10566(22) 0.22707(18) 0.00307(34)
O3 O -0.18318(29) -0.07757(25) 0.05076(44)
C1 C -0.27896(28) 0.22799(23) 0.05642(41)
H1 H -0.2697 -0.08968 0.02957
H2 H -0.18838 -0.10936 -0.04664
F1B F 0.00000 0.00000 0.50000
O1B O 0.20536(22) 0.15094(19) 0.30270(32)
O2B O 0.10566(22) 0.22707(18) 0.49693(34)
O3B O 0.18318(29) -0.07757(25) 0.44924(44)
Ho1D Ho 0.00000 -0.06649(1) -0.25000
O2E O -0.39434(22) 0.27293(18) -0.00307(34)
C1E C -0.22104(28) 0.27201(23) -0.05642(41)
H1B H 0.2697 -0.08968 0.47043
H2B H 0.18838 -0.10936 0.54664
Ho1E Ho -0.50000 0.43351(1) -0.25000
O1E O -0.29464(22) 0.34906(19) -0.19730(32)
O4 O -0.05006(33) 0.39936(27) 0.53964(53)
H3 H -0.01269 0.33360 0.52063
H4 H -0.04593 0.38914 0.64363
loop_
_geom_bond_atom_site_label_1
_geom_bond_atom_site_label_2
_geom_bond_site_symmetry_1
_geom_bond_site_symmetry_2
Ho1 F1 1_555 1_555
F1 Ho1D 1_555 1_555
O1 Ho1 1_555 1_555
O2 Ho1 1_555 1_555
O3 Ho1 1_555 1_555
C1 O1 1_555 1_555
H1 O3 1_555 1_555
H2 O3 1_555 1_555
O4 H3 1_555 1_555
H4 O4 1_555 1_555
F1B Ho1 1_555 1_555
O1B Ho1 1_555 1_555
O2B Ho1 1_555 1_555
O3B Ho1 1_555 1_555
O2E C1 1_555 1_555
C1E O2 1_555 1_555
H1B O3B 1_555 1_555
H2B O3B 1_555 1_555
Ho1E O2E 1_555 1_555
O1E C1E 1_555 1_555
C1 C1E 1_555 1_555
Ho1E O1E 1_555 1_555

#END
