
#######################################################################
#
#                 Cambridge Crystallographic Data Centre
#                                CCDC 
#
#######################################################################
#
# If this CIF has been generated from an entry in the Cambridge 
# Structural Database, then it will include bibliographic, chemical, 
# crystal, experimental, refinement or atomic coordinate data resulting 
# from the CCDC's data processing and validation procedures.
#
#######################################################################

data_FIZPOV
_symmetry_cell_setting           monoclinic
_symmetry_space_group_name_H-M   'P 21/c'
_symmetry_Int_Tables_number      14
_space_group_name_Hall           '-P 2ybc'
loop_
_symmetry_equiv_pos_site_id
_symmetry_equiv_pos_as_xyz
1 x,y,z
2 -x,1/2+y,1/2-z
3 -x,-y,-z
4 x,1/2-y,1/2+z
_cell_length_a                   11.078(5)
_cell_length_b                   16.012(6)
_cell_length_c                   23.804(9)
_cell_angle_alpha                90
_cell_angle_beta                 95.333(9)
_cell_angle_gamma                90
_cell_volume                     4204.1
loop_
_atom_site_label
_atom_site_type_symbol
_atom_site_fract_x
_atom_site_fract_y
_atom_site_fract_z
Zn1 Zn -0.04730(6) 0.48228(3) 0.15296(2)
Zn2 Zn 0.15349(9) 0.34211(5) 0.24084(3)
S1 S 0.4296(5) 0.2949(4) 0.2909(3)
O1 O 0.3434(9) 0.3316(6) 0.2472(4)
O2 O 0.1561(6) 0.3316(4) 0.3308(2)
O3 O 0.1733(7) 0.2100(5) 0.2465(3)
O4 O 0.1526(5) 0.1686(3) 0.65738(18)
O5 O 0.0752(4) 0.0616(3) 0.60483(17)
O6 O 0.0364(4) 0.8464(2) 0.26529(17)
O7 O 0.1500(4) 0.8860(2) 0.34180(19)
O8 O 0.1801(4) 0.4671(2) 0.24693(18)
O9 O 0.0381(4) 0.5519(2) 0.20811(15)
O10 O 0.1314(4) 0.0521(2) 0.40342(16)
O11 O 0.1999(7) 0.1604(4) 0.3622(2)
C1 C 0.3010(5) 0.4932(3) 0.4381(2)
H1 H 0.2311 0.5049 0.4147
C2 C 0.3080(5) 0.4216(3) 0.4657(2)
H2 H 0.2442 0.3840 0.4600
C3 C 0.4103(5) 0.3998(3) 0.5041(2)
C4 C 0.4974(5) 0.5393(3) 0.4841(2)
C5 C 0.3986(5) 0.5547(3) 0.44289(19)
C6 C 0.3959(5) 0.6294(3) 0.4121(2)
C7 C 0.4874(5) 0.6866(3) 0.4249(2)
H3 H 0.4859 0.7359 0.4041
C8 C 0.4180(5) 0.3248(3) 0.5329(2)
C9 C 0.3294(5) 0.2562(3) 0.5232(2)
C10 C 0.2975(5) 0.2237(3) 0.4702(2)
H4 H 0.3289 0.2472 0.4389
C11 C 0.2180(6) 0.1555(3) 0.4630(2)
C12 C 0.1663(5) 0.1237(3) 0.5094(2)
H5 H 0.1116 0.0796 0.5048
C13 C 0.1954(5) 0.1568(3) 0.5615(2)
C14 C 0.2770(5) 0.2232(3) 0.5683(2)
H6 H 0.2963 0.2456 0.6041
C15 C 0.3000(5) 0.6476(3) 0.3648(2)
C16 C 0.2525(5) 0.7268(3) 0.3580(2)
H7 H 0.2762 0.7682 0.3841
C17 C 0.1678(5) 0.7456(3) 0.3116(2)
C18 C 0.1294(5) 0.6847(3) 0.2755(2)
H8 H 0.0698 0.6964 0.2464
C19 C 0.1765(5) 0.6050(3) 0.2807(2)
C20 C 0.2660(5) 0.5872(3) 0.3248(2)
H9 H 0.3026 0.5349 0.3271
C21 C 0.1289(5) 0.5349(3) 0.2422(2)
C22 C 0.1361(6) 0.1278(4) 0.6118(3)
C23 C 0.1148(6) 0.8320(3) 0.3054(2)
C24 C 0.1844(7) 0.1205(4) 0.4044(3)
C25 C 0.5525(16) 0.2648(13) 0.2628(9)
H10 H 0.5317 0.2226 0.2349
H11 H 0.6097 0.2424 0.2917
H12 H 0.5880 0.3117 0.2454
C26 C 0.499(2) 0.362(2) 0.3391(10)
H13 H 0.4395 0.3883 0.3601
H14 H 0.5412 0.4045 0.3198
H15 H 0.5561 0.3323 0.3644
O4B O 0.8474(5) 0.8314(3) 0.34262(18)
O5B O 0.9248(4) 0.9384(3) 0.39517(17)
O6B O 0.9636(4) 0.1536(2) 0.73471(17)
O7B O 0.8500(4) 0.1140(2) 0.65820(19)
O8B O 0.8199(4) 0.5329(2) 0.75307(18)
O9B O 0.9619(4) 0.4481(2) 0.79189(15)
O10B O 0.8686(4) 0.9479(2) 0.59658(16)
O11B O 0.8001(7) 0.8396(4) 0.6378(2)
C1B C 0.6990(5) 0.5068(3) 0.5619(2)
H1B H 0.7689 0.4951 0.5853
C2B C 0.6920(5) 0.5784(3) 0.5343(2)
H2B H 0.7558 0.6160 0.5400
C3B C 0.5897(5) 0.6002(3) 0.4959(2)
C4B C 0.5026(5) 0.4607(3) 0.5159(2)
C5B C 0.6014(5) 0.4453(3) 0.55711(19)
C6B C 0.6041(5) 0.3706(3) 0.5879(2)
C7B C 0.5126(5) 0.3134(3) 0.5751(2)
H3B H 0.5141 0.2641 0.5959
C8B C 0.5820(5) 0.6752(3) 0.4671(2)
C9B C 0.6706(5) 0.7438(3) 0.4768(2)
C10B C 0.7025(5) 0.7763(3) 0.5298(2)
H4B H 0.6711 0.7528 0.5611
C11B C 0.7820(6) 0.8445(3) 0.5370(2)
C12B C 0.8337(5) 0.8763(3) 0.4906(2)
H5B H 0.8884 0.9204 0.4952
C13B C 0.8046(5) 0.8432(3) 0.4385(2)
C14B C 0.7230(5) 0.7768(3) 0.4317(2)
H6B H 0.7037 0.7544 0.3959
C15B C 0.7000(5) 0.3524(3) 0.6352(2)
C16B C 0.7475(5) 0.2732(3) 0.6420(2)
H7B H 0.7238 0.2318 0.6159
C17B C 0.8322(5) 0.2544(3) 0.6884(2)
C18B C 0.8706(5) 0.3153(3) 0.7245(2)
H8B H 0.9302 0.3036 0.7536
C19B C 0.8235(5) 0.3950(3) 0.7193(2)
C20B C 0.7340(5) 0.4128(3) 0.6752(2)
H9B H 0.6974 0.4651 0.6729
C21B C 0.8711(5) 0.4651(3) 0.7578(2)
C22B C 0.8639(6) 0.8722(4) 0.3882(3)
C23B C 0.8852(6) 0.1680(3) 0.6946(2)
C24B C 0.8156(7) 0.8795(4) 0.5956(3)
Zn1B Zn 1.04730(6) 0.51772(3) 0.84704(2)
Zn2B Zn 0.84651(9) 0.65789(5) 0.75916(3)
S1B S 0.5704(5) 0.7051(4) 0.7091(3)
O1B O 0.6566(9) 0.6684(6) 0.7528(4)
O2B O 0.8439(6) 0.6684(4) 0.6692(2)
O3B O 0.8267(7) 0.7900(5) 0.7535(3)
C25B C 0.4475(16) 0.7352(13) 0.7372(9)
H10B H 0.4683 0.7774 0.7651
H11B H 0.3903 0.7576 0.7083
H12B H 0.4120 0.6883 0.7546
C26B C 0.501(2) 0.638(2) 0.6609(10)
H13B H 0.5605 0.6117 0.6399
H14B H 0.4588 0.5955 0.6802
H15B H 0.4439 0.6677 0.6356
Zn1A Zn 0.04730(6) -0.01772(3) 0.34704(2)
Zn1A_2 Zn 0.04730(6) 0.98228(3) 0.34704(2)
Zn1A_3 Zn 1.04730(6) 0.98228(3) 0.34704(2)
Zn1C Zn -0.04730(6) 0.01772(3) 0.65296(2)
Zn1C_2 Zn 0.95270(6) 0.01772(3) 0.65296(2)
Zn1C_3 Zn 0.95270(6) 1.01772(3) 0.65296(2)
Zn2A Zn -0.15349(9) 0.84211(5) 0.25916(3)
Zn2A_2 Zn 0.84651(9) 0.84211(5) 0.25916(3)
Zn2C Zn 0.15349(9) 0.15789(5) 0.74084(3)
Zn2C_2 Zn 1.15349(9) 0.15789(5) 0.74084(3)
O4A O 0.8474(5) 0.6686(3) 0.84262(18)
O4C O 0.1526(5) 0.3314(3) 0.15738(18)
O5A O 0.9248(4) 0.5616(3) 0.89517(17)
O5C O 0.0752(4) 0.4384(3) 0.10483(17)
O6A O -0.0364(4) 0.3464(2) 0.23471(17)
O6C O 1.0364(4) 0.6536(2) 0.76529(17)
O7A O -0.1500(4) 0.3860(2) 0.15820(19)
O7C O 1.1500(4) 0.6140(2) 0.84180(19)
O10A O -0.1314(4) 0.5521(2) 0.09658(16)
O10C O 1.1314(4) 0.4479(2) 0.90342(16)
loop_
_geom_bond_atom_site_label_1
_geom_bond_atom_site_label_2
_geom_bond_site_symmetry_1
_geom_bond_site_symmetry_2
Zn1 O9 1_555 1_555
Zn2 O1 1_555 1_555
S1 O1 1_555 1_555
O2 Zn2 1_555 1_555
O3 Zn2 1_555 1_555
O4 C22 1_555 1_555
O5 C22 1_555 1_555
O6 C23 1_555 1_555
O7 C23 1_555 1_555
O8 Zn2 1_555 1_555
O9 C21 1_555 1_555
O10 C24 1_555 1_555
O11 C24 1_555 1_555
C1 H1 1_555 1_555
C2 C1 1_555 1_555
H2 C2 1_555 1_555
C3 C2 1_555 1_555
C4 C5 1_555 1_555
C5 C1 1_555 1_555
C6 C5 1_555 1_555
C7 C6 1_555 1_555
H3 C7 1_555 1_555
C8 C3 1_555 1_555
C9 C8 1_555 1_555
C10 C9 1_555 1_555
H4 C10 1_555 1_555
C11 C10 1_555 1_555
C12 C11 1_555 1_555
H5 C12 1_555 1_555
C13 C12 1_555 1_555
C14 C9 1_555 1_555
H6 C14 1_555 1_555
C15 C6 1_555 1_555
C16 C15 1_555 1_555
H7 C16 1_555 1_555
C17 C16 1_555 1_555
C18 C17 1_555 1_555
H8 C18 1_555 1_555
C19 C18 1_555 1_555
C20 C15 1_555 1_555
H9 C20 1_555 1_555
C21 O8 1_555 1_555
C22 C13 1_555 1_555
C23 C17 1_555 1_555
C24 C11 1_555 1_555
C25 S1 1_555 1_555
H10 C25 1_555 1_555
H11 C25 1_555 1_555
H12 C25 1_555 1_555
C26 S1 1_555 1_555
H13 C26 1_555 1_555
H14 C26 1_555 1_555
H15 C26 1_555 1_555
O4B C22B 1_555 1_555
O5B C22B 1_555 1_555
O6B C23B 1_555 1_555
O7B C23B 1_555 1_555
O8B C21B 1_555 1_555
O9B C21B 1_555 1_555
O10B C24B 1_555 1_555
O11B C24B 1_555 1_555
C1B H1B 1_555 1_555
C2B C1B 1_555 1_555
H2B C2B 1_555 1_555
C3B C4 1_555 1_555
C4B C3 1_555 1_555
C5B C1B 1_555 1_555
C6B C5B 1_555 1_555
C7B C8 1_555 1_555
H3B C7B 1_555 1_555
C8B C7 1_555 1_555
C9B C8B 1_555 1_555
C10B C9B 1_555 1_555
H4B C10B 1_555 1_555
C11B C10B 1_555 1_555
C12B C11B 1_555 1_555
H5B C12B 1_555 1_555
C13B C12B 1_555 1_555
C14B C9B 1_555 1_555
H6B C14B 1_555 1_555
C15B C6B 1_555 1_555
C16B C15B 1_555 1_555
H7B C16B 1_555 1_555
C17B C16B 1_555 1_555
C18B C17B 1_555 1_555
H8B C18B 1_555 1_555
C19B C18B 1_555 1_555
C20B C15B 1_555 1_555
H9B C20B 1_555 1_555
C21B C19B 1_555 1_555
C22B C13B 1_555 1_555
C23B C17B 1_555 1_555
C24B C11B 1_555 1_555
Zn1B O9B 1_555 1_555
Zn2B O8B 1_555 1_555
S1B O1B 1_555 1_555
O1B Zn2B 1_555 1_555
O2B Zn2B 1_555 1_555
O3B Zn2B 1_555 1_555
C25B S1B 1_555 1_555
H10B C25B 1_555 1_555
H11B C25B 1_555 1_555
H12B C25B 1_555 1_555
C26B S1B 1_555 1_555
H13B C26B 1_555 1_555
H14B C26B 1_555 1_555
H15B C26B 1_555 1_555
Zn1A O10 1_555 1_555
Zn1A_2 O7 1_555 1_555
Zn1A_3 O5B 1_555 1_555
Zn1C O5 1_555 1_555
Zn1C_2 O7B 1_555 1_555
Zn1C_3 O10B 1_555 1_555
Zn2A O6 1_555 1_555
Zn2A_2 O4B 1_555 1_555
Zn2C O4 1_555 1_555
Zn2C_2 O6B 1_555 1_555
O4A Zn2B 1_555 1_555
O4C Zn2 1_555 1_555
O5A Zn1B 1_555 1_555
O5C Zn1 1_555 1_555
O6A Zn2 1_555 1_555
O6C Zn2B 1_555 1_555
O7A Zn1 1_555 1_555
O7C Zn1B 1_555 1_555
O10A Zn1 1_555 1_555
O10C Zn1B 1_555 1_555
C4 C4B 1_555 1_555
C13 C14 1_555 1_555
C19 C20 1_555 1_555
C19 C21 1_555 1_555
C2B C3B 1_555 1_555
C3B C8B 1_555 1_555
C4B C5B 1_555 1_555
C6B C7B 1_555 1_555
C13B C14B 1_555 1_555
C19B C20B 1_555 1_555

#END
