
#######################################################################
#
#                 Cambridge Crystallographic Data Centre
#                                CCDC 
#
#######################################################################
#
# If this CIF has been generated from an entry in the Cambridge 
# Structural Database, then it will include bibliographic, chemical, 
# crystal, experimental, refinement or atomic coordinate data resulting 
# from the CCDC's data processing and validation procedures.
#
#######################################################################

data_FOBJAJ
_symmetry_cell_setting           monoclinic
_symmetry_space_group_name_H-M   'P 21/c'
_symmetry_Int_Tables_number      14
_space_group_name_Hall           '-P 2ybc'
loop_
_symmetry_equiv_pos_site_id
_symmetry_equiv_pos_as_xyz
1 x,y,z
2 -x,1/2+y,1/2-z
3 -x,-y,-z
4 x,1/2-y,1/2+z
_cell_length_a                   11.15780(10)
_cell_length_b                   15.5651(2)
_cell_length_c                   16.1486(2)
_cell_angle_alpha                90
_cell_angle_beta                 103.75
_cell_angle_gamma                90
_cell_volume                     2724.19
loop_
_atom_site_label
_atom_site_type_symbol
_atom_site_fract_x
_atom_site_fract_y
_atom_site_fract_z
La1 La 0.685213(8) 0.483003(5) 0.039889(5)
O1 O 0.74910(13) 0.42070(8) 0.20107(8)
C1 C 0.88452(17) 0.29901(11) 0.23840(11)
O2 O 0.79037(13) 0.34333(8) 0.09809(8)
O3 O 0.85373(16) 0.43266(11) -0.03926(11)
H1 H 0.9215(16) 0.4304(18) -0.0148(14)
H2 H 0.828(2) 0.4073(16) -0.0817(12)
C2 C 0.85613(18) 0.21340(11) 0.23467(11)
H3 H 0.7857 0.1939 0.1961
O4 O 1.09173(15) 0.03419(9) 0.37773(11)
C3 C 0.93253(17) 0.15485(11) 0.28859(11)
H4 H 0.9119 0.0969 0.2847
O5 O 1.21067(16) 0.12925(9) 0.45393(11)
C4 C 1.03734(16) 0.18059(11) 0.34721(11)
O6 O 0.48767(11) 0.41431(7) 0.05981(7)
C5 C 1.06916(16) 0.27051(11) 0.35445(11)
O7 O 0.32871(12) 0.44556(8) 0.11272(8)
C6 C 1.17395(18) 0.30374(12) 0.41399(12)
H5 H 1.2237 0.2668 0.4527
O8 O 0.40452(13) 0.07990(9) 0.36408(8)
C7 C 1.2026(2) 0.38930(14) 0.41518(14)
H6 H 1.2710 0.4100 0.4549
O9 O 0.59695(12) 0.12197(8) 0.42092(8)
C8 C 1.12913(19) 0.44614(12) 0.35677(13)
H7 H 1.1510 0.5038 0.3569
C9 C 1.02651(18) 0.41760(12) 0.30021(12)
H8 H 0.9782 0.4563 0.2627
C10 C 0.99189(16) 0.32957(11) 0.29750(10)
C11 C 1.11807(17) 0.11085(11) 0.39608(11)
C12 C 0.80197(17) 0.35878(11) 0.17701(11)
C13 C 0.44972(15) 0.32708(10) 0.17566(10)
C14 C 0.42628(18) 0.34164(11) 0.25443(11)
H9 H 0.3979 0.3953 0.2665
C15 C 0.44433(17) 0.27704(11) 0.31695(10)
H10 H 0.4299 0.2889 0.3702
C16 C 0.48293(15) 0.19675(11) 0.30027(10)
C17 C 0.50699(15) 0.17842(10) 0.21973(11)
C18 C 0.54217(19) 0.09473(11) 0.19996(12)
H11 H 0.5520 0.0517 0.2410
C19 C 0.5618(2) 0.07660(14) 0.12165(14)
H12 H 0.5855 0.0216 0.1097
C20 C 0.5461(2) 0.14115(13) 0.05879(13)
H13 H 0.5582 0.1280 0.0052
C21 C 0.51354(19) 0.22274(12) 0.07556(12)
H14 H 0.5056 0.2647 0.0336
C22 C 0.49161(16) 0.24437(10) 0.15610(10)
C23 C 0.42069(16) 0.40009(10) 0.11238(10)
C24 C 0.49582(17) 0.12665(10) 0.36734(10)
La1A La 0.314787(8) -0.016997(5) 0.460111(5)
La1A_2 La 1.314787(8) -0.016997(5) 0.460111(5)
La1B La 0.314787(8) 0.516997(5) -0.039889(5)
La1C La 0.685213(8) 0.016997(5) 0.539889(5)
O4A O 0.90827(15) 0.53419(9) 0.12227(11)
O5A O 0.78933(16) 0.62925(9) 0.04607(11)
O6B O 0.51233(11) 0.58569(7) -0.05981(7)
O7B O 0.67129(12) 0.55444(8) -0.11272(8)
O8A O 0.59548(13) 0.57990(9) 0.13592(8)
O9C O 0.59695(12) 0.37803(8) -0.07908(8)
O10 O 1.06874(16) 0.38801(10) 0.09723(13)
H15 H 1.039(2) 0.3567(15) 0.1112(18)
H16 H 1.1303(19) 0.4050(17) 0.0912(19)
N1 N 1.09556(15) 0.07508(10) 0.10683(10)
H17 H 1.0797 0.0243 0.0862
N2 N 1.08492(15) 0.21154(10) 0.12621(10)
H18 H 1.0602 0.2640 0.1203
N3 N 0.88034(15) 0.08968(10) -0.04606(10)
N4 N 0.84473(16) 0.21770(11) -0.00112(11)
H19 H 0.8530 0.2636 0.0293
C25 C 1.1914(2) 0.09676(14) 0.17372(14)
H20 H 1.2498 0.0594 0.2054
C26 C 1.18522(19) 0.18238(15) 0.18515(15)
H21 H 1.2392 0.2153 0.2256
C27 C 1.03142(17) 0.14517(11) 0.07910(11)
C28 C 0.92141(17) 0.14951(11) 0.01162(11)
C29 C 0.7742(2) 0.12215(14) -0.09800(13)
H22 H 0.7251 0.0941 -0.1448
C30 C 0.75246(19) 0.20103(14) -0.07028(13)
H23 H 0.6867 0.2370 -0.0941
loop_
_geom_bond_atom_site_label_1
_geom_bond_atom_site_label_2
_geom_bond_site_symmetry_1
_geom_bond_site_symmetry_2
La1 O1 1_555 1_555
O1 C12 1_555 1_555
C1 C2 1_555 1_555
O2 La1 1_555 1_555
O3 La1 1_555 1_555
H1 O3 1_555 1_555
H2 O3 1_555 1_555
C2 H3 1_555 1_555
O4 C11 1_555 1_555
C3 C2 1_555 1_555
H4 C3 1_555 1_555
O5 C11 1_555 1_555
C4 C3 1_555 1_555
O6 La1 1_555 1_555
C5 C4 1_555 1_555
O7 C23 1_555 1_555
C6 C5 1_555 1_555
H5 C6 1_555 1_555
O8 C24 1_555 1_555
C7 C6 1_555 1_555
H6 C7 1_555 1_555
O9 C24 1_555 1_555
C8 C7 1_555 1_555
H7 C8 1_555 1_555
C9 C8 1_555 1_555
H8 C9 1_555 1_555
C10 C1 1_555 1_555
C11 C4 1_555 1_555
C12 C1 1_555 1_555
C13 C14 1_555 1_555
C14 H9 1_555 1_555
C15 C14 1_555 1_555
H10 C15 1_555 1_555
C16 C15 1_555 1_555
C17 C16 1_555 1_555
C18 C17 1_555 1_555
H11 C18 1_555 1_555
C19 C18 1_555 1_555
H12 C19 1_555 1_555
C20 C19 1_555 1_555
H13 C20 1_555 1_555
C21 C20 1_555 1_555
H14 C21 1_555 1_555
C22 C13 1_555 1_555
C23 O6 1_555 1_555
C24 C16 1_555 1_555
O10 H15 1_555 1_555
H16 O10 1_555 1_555
N1 H17 1_555 1_555
N2 H18 1_555 1_555
N3 C28 1_555 1_555
N4 H19 1_555 1_555
C25 N1 1_555 1_555
H20 C25 1_555 1_555
C26 N2 1_555 1_555
H21 C26 1_555 1_555
C27 N1 1_555 1_555
C28 N4 1_555 1_555
C29 N3 1_555 1_555
H22 C29 1_555 1_555
C30 N4 1_555 1_555
H23 C30 1_555 1_555
La1A O8 1_555 1_555
La1A_2 O4 1_555 1_555
La1B O6 1_555 1_555
La1C O9 1_555 1_555
O4A La1 1_555 1_555
O5A La1 1_555 1_555
O6B La1 1_555 1_555
O7B La1 1_555 1_555
O8A La1 1_555 1_555
O9C La1 1_555 1_555
O2 C12 1_555 1_555
O5 La1A_2 1_555 1_555
C5 C10 1_555 1_555
O7 La1B 1_555 1_555
C9 C10 1_555 1_555
C13 C23 1_555 1_555
C17 C22 1_555 1_555
C21 C22 1_555 1_555
N2 C27 1_555 1_555
C25 C26 1_555 1_555
C27 C28 1_555 1_555
C29 C30 1_555 1_555
La1B O6B 1_555 1_555

#END
