
#######################################################################
#
#                 Cambridge Crystallographic Data Centre
#                                CCDC 
#
#######################################################################
#
# If this CIF has been generated from an entry in the Cambridge 
# Structural Database, then it will include bibliographic, chemical, 
# crystal, experimental, refinement or atomic coordinate data resulting 
# from the CCDC's data processing and validation procedures.
#
#######################################################################

data_FOFTUR
_symmetry_cell_setting           triclinic
_symmetry_space_group_name_H-M   'P -1'
_symmetry_Int_Tables_number      2
_space_group_name_Hall           '-P 1'
loop_
_symmetry_equiv_pos_site_id
_symmetry_equiv_pos_as_xyz
1 x,y,z
2 -x,-y,-z
_cell_length_a                   16.3187(10)
_cell_length_b                   17.0365(9)
_cell_length_c                   18.9426(11)
_cell_angle_alpha                88.412(2)
_cell_angle_beta                 70.681(2)
_cell_angle_gamma                62.5920(10)
_cell_volume                     4362.86
loop_
_atom_site_label
_atom_site_type_symbol
_atom_site_fract_x
_atom_site_fract_y
_atom_site_fract_z
Cd1 Cd 0.67246(4) 0.63001(4) 0.44488(4)
Cd2 Cd 0.76104(4) 0.71682(4) 0.26259(4)
Cd3 Cd 0.85101(5) 0.80512(5) 0.07699(4)
O1 O 0.7784(4) 0.6822(4) 0.3782(3)
O2 O 0.7884(5) 0.5731(5) 0.2464(5)
O3 O 0.6938(4) 0.7419(5) 0.4994(4)
O4 O 0.7390(5) 0.8592(5) 0.2813(4)
O5 O 1.5964(4) 0.7803(4) 0.3130(4)
O6 O 1.5740(4) 0.6778(4) 0.3793(4)
O7 O 0.7136(5) 1.4865(4) 0.3920(5)
O8 O 0.7856(4) 1.4985(4) 0.4685(4)
O9 O 0.7436(5) 0.7512(5) 0.1476(4)
O10 O 0.8313(6) 0.6924(6) 0.0309(4)
O11 O 0.8450(7) -0.0579(7) 0.0463(10)
O12 O 0.7195(8) -0.0575(7) 0.1174(11)
O13 O -0.0744(4) 0.6585(4) 0.2055(4)
O14 O -0.0628(4) 0.7750(5) 0.1553(4)
N1 N 0.5468(6) 0.6541(6) 0.5531(4)
N2 N 0.0000(7) 0.7445(8) 0.9770(5)
C1 C 0.5138(8) 0.5952(9) 0.5706(7)
H1 H 0.5450 0.5416 0.5362
C2 C 0.4365(8) 0.6079(10) 0.6361(7)
H2 H 0.4155 0.5638 0.6464
C3 C 0.3906(9) 0.6850(11) 0.6859(6)
C4 C 0.4285(11) 0.7437(13) 0.6697(8)
H3 H 0.4030 0.7962 0.7038
C5 C 0.5043(10) 0.7228(11) 0.6025(8)
H4 H 0.5281 0.7648 0.5911
C6 C 0.3047(9) 0.7077(13) 0.7576(7)
H5 H 0.2781 0.7639 0.7871
C7 C 0.2629(8) 0.6598(12) 0.7838(7)
H6 H 0.2921 0.6018 0.7566
C8 C 0.1736(8) 0.6862(11) 0.8523(7)
C9 C 0.1367(8) 0.6326(10) 0.8802(7)
H7 H 0.1703 0.5717 0.8580
C10 C 0.0481(8) 0.6655(10) 0.9424(7)
H8 H 0.0225 0.6257 0.9599
C11 C 0.0361(13) 0.8015(14) 0.9517(9)
H9 H 0.0027 0.8614 0.9763
C12 C 0.1226(13) 0.7708(14) 0.8893(9)
H10 H 0.1474 0.8111 0.8715
C13 C 0.7595(6) 0.7333(6) 0.4348(5)
C14 C 0.8139(5) 0.7844(5) 0.4295(5)
C15 C 0.9056(6) 0.7547(5) 0.3703(5)
H11 H 0.9307 0.7041 0.3341
C16 C 0.9593(6) 0.7998(6) 0.3650(5)
H12 H 1.0238 0.7765 0.3279
C17 C 0.9208(6) 0.8773(5) 0.4125(5)
C18 C 0.8274(6) 0.9089(6) 0.4704(5)
H13 H 0.8000 0.9624 0.5039
C19 C 0.7756(6) 0.8613(6) 0.4782(5)
H14 H 0.7131 0.8822 0.5176
C20 C 0.9778(6) 0.9265(5) 0.4061(5)
C21 C 1.0785(6) 0.8823(5) 0.3914(5)
H15 H 1.1124 0.8189 0.3848
C22 C 1.1312(6) 0.9287(6) 0.3859(6)
C23 C 1.0809(6) 1.0218(6) 0.3922(5)
H16 H 1.1161 1.0541 0.3893
C24 C 0.9802(6) 1.0690(6) 0.4028(6)
C25 C 0.9287(6) 1.0199(6) 0.4113(5)
H17 H 0.8597 1.0505 0.4207
C26 C 1.2378(6) 0.8818(6) 0.3758(6)
C27 C 1.2739(6) 0.8088(6) 0.4121(6)
H18 H 1.2301 0.7893 0.4435
C28 C 1.3736(6) 0.7635(7) 0.4032(6)
H19 H 1.3983 0.7122 0.4269
C29 C 1.4371(6) 0.7950(7) 0.3585(5)
C30 C 1.4009(7) 0.8684(7) 0.3245(7)
H20 H 1.4438 0.8897 0.2949
C31 C 1.3013(6) 0.9124(7) 0.3329(6)
H21 H 1.2768 0.9637 0.3090
C32 C 1.5452(6) 0.7466(6) 0.3497(5)
C33 C 0.9280(6) 1.1663(6) 0.4090(5)
C34 C 0.9542(6) 1.2199(6) 0.4414(5)
H22 H 1.0089 1.1921 0.4577
C35 C 0.9035(7) 1.3112(6) 0.4501(6)
H23 H 0.9194 1.3460 0.4762
C36 C 0.8279(7) 1.3535(6) 0.4206(6)
C37 C 0.8031(7) 1.2997(6) 0.3882(6)
H24 H 0.7506 1.3267 0.3694
C38 C 0.8529(7) 1.2076(6) 0.3826(6)
H25 H 0.8342 1.1726 0.3599
C39 C 0.7717(7) 1.4510(6) 0.4299(6)
C40 C 0.7679(7) 0.6992(7) 0.0899(6)
C41 C 0.7101(7) 0.6496(7) 0.0949(6)
C42 C 0.7478(7) 0.5770(8) 0.0411(6)
H26 H 0.8093 0.5587 0.0010
C43 C 0.6948(7) 0.5303(7) 0.0458(6)
H27 H 0.7236 0.4776 0.0110
C44 C 0.6036(7) 0.5587(7) 0.0990(5)
C45 C 0.5655(7) 0.6336(8) 0.1526(6)
H28 H 0.5027 0.6536 0.1916
C46 C 0.6174(7) 0.6770(8) 0.1490(6)
H29 H 0.5892 0.7285 0.1851
C47 C 0.5479(7) 0.5084(7) 0.1005(5)
C48 C 0.5957(6) 0.4168(6) 0.0902(6)
H30 H 0.6650 0.3857 0.0792
C49 C 0.5461(7) 0.3679(7) 0.0953(6)
C50 C 0.4471(6) 0.4142(6) 0.1074(5)
H31 H 0.4127 0.3813 0.1097
C51 C 0.3948(6) 0.5064(6) 0.1162(5)
C52 C 0.4480(6) 0.5536(7) 0.1131(5)
H32 H 0.4145 0.6171 0.1199
C53 C 0.5989(6) 0.2687(6) 0.0922(6)
C54 C 0.6973(8) 0.2181(8) 0.0464(8)
H33 H 0.7306 0.2459 0.0136
C55 C 0.7482(7) 0.1254(7) 0.0480(8)
H34 H 0.8173 0.0924 0.0207
C56 C 0.6997(7) 0.0836(7) 0.0880(7)
C57 C 0.6028(9) 0.1330(8) 0.1337(9)
H35 H 0.5681 0.1043 0.1630
C58 C 0.5565(8) 0.2231(8) 0.1371(8)
H36 H 0.4910 0.2564 0.1725
C59 C 0.7563(7) -0.0176(7) 0.0826(8)
C60 C 0.2868(6) 0.5567(6) 0.1315(5)
C61 C 0.2261(6) 0.5183(6) 0.1629(5)
H37 H 0.2543 0.4597 0.1755
C62 C 0.1281(6) 0.5627(6) 0.1758(6)
H38 H 0.0886 0.5349 0.1975
C63 C 0.0846(6) 0.6481(6) 0.1579(5)
C64 C 0.1422(6) 0.6876(7) 0.1254(5)
H39 H 0.1134 0.7454 0.1114
C65 C 0.2410(7) 0.6434(7) 0.1134(6)
H40 H 0.2798 0.6718 0.0921
C66 C -0.0260(6) 0.6971(6) 0.1732(5)
Cd1_2 Cd 0.67246(4) 1.63001(4) 0.44488(4)
Cd1_3 Cd 1.67246(4) 0.63001(4) 0.44488(4)
Cd2_2 Cd -0.23896(4) 0.71682(4) 0.26259(4)
Cd2_3 Cd 1.76104(4) 0.71682(4) 0.26259(4)
Cd3_2 Cd -0.14899(5) 0.80512(5) 0.07699(4)
Cd3_3 Cd -0.14899(5) 0.80512(5) 1.07699(4)
Cd3_4 Cd 0.85101(5) -0.19488(5) 0.07699(4)
O5_2 O 0.5964(4) 0.7803(4) 0.3130(4)
O6_2 O 0.5740(4) 0.6778(4) 0.3793(4)
O7_2 O 0.7136(5) 0.4865(4) 0.3920(5)
O8_2 O 0.7856(4) 0.4985(4) 0.4685(4)
O11_2 O 0.8450(7) 0.9421(7) 0.0463(10)
O12_2 O 0.7195(8) 0.9425(7) 0.1174(11)
O13_2 O 0.9256(4) 0.6585(4) 0.2055(4)
O14_2 O 0.9372(4) 0.7750(5) 0.1553(4)
N2_2 N 1.0000(7) 0.7445(8) -0.0230(5)
Cl1 Cl 0.0343(9) 0.9266(7) 1.2162(6)
Cl2 Cl -0.1689(7) 1.0347(6) 1.2382(5)
Cl3 Cl -0.0134(5) 0.9959(5) 1.0958(4)
C67 C -0.0546(17) 0.9591(14) 1.1754(12)
H41 H -0.0583 0.9049 1.1615
Cl4 Cl -0.3406(6) 0.4180(6) 0.6674(5)
Cl5 Cl -0.1570(4) 0.4037(5) 0.6470(3)
Cl6 Cl -0.3301(4) 0.5736(4) 0.6902(3)
C68 C -0.2678(12) 0.4687(13) 0.6372(9)
H42 H -0.2567 0.4751 0.5827
C69 C 0.4103(6) 1.1246(6) 0.3329(6)
H43 H 0.3701 1.1755 0.3711
C70 C 0.5019(7) 1.0605(8) 0.3333(8)
H44 H 0.5243 1.0675 0.3718
N3 N 0.5607(6) 0.9861(6) 0.2774(8)
C71 C 0.5279(7) 0.9758(6) 0.2210(8)
H45 H 0.5681 0.9250 0.1828
C72 C 0.4363(8) 1.0400(6) 0.2206(6)
H46 H 0.4139 1.0329 0.1820
C73 C 0.3775(5) 1.1144(5) 0.2765(6)
C74 C 0.2808(6) 1.1844(7) 0.2704(8)
H47 H 0.2626 1.1682 0.2327
C75 C 0.2210(7) 1.2616(7) 0.3086(10)
H48 H 0.2395 1.2827 0.3435
C76 C 0.1262(7) 1.3196(8) 0.3022(9)
C77 C 0.0842(9) 1.3021(6) 0.2558(8)
H49 H 0.1136 1.2437 0.2293
C78 C -0.0008(9) 1.3702(9) 0.2481(8)
H50 H -0.0295 1.3583 0.2164
N4 N -0.0437(7) 1.4557(7) 0.2869(8)
C79 C -0.0017(9) 1.4732(6) 0.3333(8)
H51 H -0.0311 1.5316 0.3598
C80 C 0.0833(9) 1.4051(9) 0.3410(8)
H52 H 0.1120 1.4170 0.3727
loop_
_geom_bond_atom_site_label_1
_geom_bond_atom_site_label_2
_geom_bond_site_symmetry_1
_geom_bond_site_symmetry_2
Cd1 O1 1_555 1_555
Cd2 O1 1_555 1_555
Cd3 O9 1_555 1_555
O1 C13 1_555 1_555
O2 Cd2 1_555 1_555
O3 Cd1 1_555 1_555
O4 Cd2 1_555 1_555
O5 C32 1_555 1_555
O6 C32 1_555 1_555
O7 C39 1_555 1_555
O8 C39 1_555 1_555
O9 Cd2 1_555 1_555
O10 Cd3 1_555 1_555
O11 C59 1_555 1_555
O12 C59 1_555 1_555
O13 C66 1_555 1_555
O14 C66 1_555 1_555
N1 Cd1 1_555 1_555
N2 C10 1_555 1_555
C1 N1 1_555 1_555
H1 C1 1_555 1_555
C2 C1 1_555 1_555
H2 C2 1_555 1_555
C3 C2 1_555 1_555
C4 C3 1_555 1_555
H3 C4 1_555 1_555
C5 N1 1_555 1_555
H4 C5 1_555 1_555
C6 C3 1_555 1_555
H5 C6 1_555 1_555
C7 C6 1_555 1_555
H6 C7 1_555 1_555
C8 C7 1_555 1_555
C9 C8 1_555 1_555
H7 C9 1_555 1_555
C10 C9 1_555 1_555
H8 C10 1_555 1_555
C11 N2 1_555 1_555
H9 C11 1_555 1_555
C12 C8 1_555 1_555
H10 C12 1_555 1_555
C13 O3 1_555 1_555
C14 C13 1_555 1_555
C15 C14 1_555 1_555
H11 C15 1_555 1_555
C16 C15 1_555 1_555
H12 C16 1_555 1_555
C17 C16 1_555 1_555
C18 C17 1_555 1_555
H13 C18 1_555 1_555
C19 C14 1_555 1_555
H14 C19 1_555 1_555
C20 C17 1_555 1_555
C21 C20 1_555 1_555
H15 C21 1_555 1_555
C22 C21 1_555 1_555
C23 C22 1_555 1_555
H16 C23 1_555 1_555
C24 C23 1_555 1_555
C25 C20 1_555 1_555
H17 C25 1_555 1_555
C26 C22 1_555 1_555
C27 C26 1_555 1_555
H18 C27 1_555 1_555
C28 C27 1_555 1_555
H19 C28 1_555 1_555
C29 C28 1_555 1_555
C30 C29 1_555 1_555
H20 C30 1_555 1_555
C31 C26 1_555 1_555
H21 C31 1_555 1_555
C32 C29 1_555 1_555
C33 C24 1_555 1_555
C34 C33 1_555 1_555
H22 C34 1_555 1_555
C35 C34 1_555 1_555
H23 C35 1_555 1_555
C36 C35 1_555 1_555
C37 C36 1_555 1_555
H24 C37 1_555 1_555
C38 C33 1_555 1_555
H25 C38 1_555 1_555
C39 C36 1_555 1_555
C40 O9 1_555 1_555
C41 C40 1_555 1_555
C42 C41 1_555 1_555
H26 C42 1_555 1_555
C43 C42 1_555 1_555
H27 C43 1_555 1_555
C44 C43 1_555 1_555
C45 C44 1_555 1_555
H28 C45 1_555 1_555
C46 C41 1_555 1_555
H29 C46 1_555 1_555
C47 C44 1_555 1_555
C48 C47 1_555 1_555
H30 C48 1_555 1_555
C49 C48 1_555 1_555
C50 C49 1_555 1_555
H31 C50 1_555 1_555
C51 C50 1_555 1_555
C52 C47 1_555 1_555
H32 C52 1_555 1_555
C53 C49 1_555 1_555
C54 C53 1_555 1_555
H33 C54 1_555 1_555
C55 C54 1_555 1_555
H34 C55 1_555 1_555
C56 C55 1_555 1_555
C57 C56 1_555 1_555
H35 C57 1_555 1_555
C58 C53 1_555 1_555
H36 C58 1_555 1_555
C59 C56 1_555 1_555
C60 C51 1_555 1_555
C61 C60 1_555 1_555
H37 C61 1_555 1_555
C62 C61 1_555 1_555
H38 C62 1_555 1_555
C63 C62 1_555 1_555
C64 C63 1_555 1_555
H39 C64 1_555 1_555
C65 C60 1_555 1_555
H40 C65 1_555 1_555
C66 C63 1_555 1_555
Cl1 C67 1_555 1_555
Cl2 C67 1_555 1_555
Cl3 C67 1_555 1_555
C67 H41 1_555 1_555
Cl4 C68 1_555 1_555
Cl5 C68 1_555 1_555
Cl6 C68 1_555 1_555
C68 H42 1_555 1_555
C69 H43 1_555 1_555
C70 C69 1_555 1_555
H44 C70 1_555 1_555
N3 C70 1_555 1_555
C71 N3 1_555 1_555
H45 C71 1_555 1_555
C72 C71 1_555 1_555
H46 C72 1_555 1_555
C73 C69 1_555 1_555
C74 C73 1_555 1_555
H47 C74 1_555 1_555
C75 C74 1_555 1_555
H48 C75 1_555 1_555
C76 C75 1_555 1_555
C77 C76 1_555 1_555
H49 C77 1_555 1_555
C78 C77 1_555 1_555
H50 C78 1_555 1_555
N4 C78 1_555 1_555
C79 N4 1_555 1_555
H51 C79 1_555 1_555
C80 C76 1_555 1_555
H52 C80 1_555 1_555
Cd1_2 O7 1_555 1_555
Cd1_3 O6 1_555 1_555
Cd2_2 O13 1_555 1_555
Cd2_3 O5 1_555 1_555
Cd3_2 O14 1_555 1_555
Cd3_3 N2 1_555 1_555
Cd3_4 O11 1_555 1_555
O5_2 Cd2 1_555 1_555
O6_2 Cd1 1_555 1_555
O7_2 Cd1 1_555 1_555
O8_2 Cd1 1_555 1_555
O11_2 Cd3 1_555 1_555
O12_2 Cd3 1_555 1_555
O13_2 Cd2 1_555 1_555
O14_2 Cd3 1_555 1_555
N2_2 Cd3 1_555 1_555
O8 Cd1_2 1_555 1_555
O10 C40 1_555 1_555
O12 Cd3_4 1_555 1_555
C4 C5 1_555 1_555
C11 C12 1_555 1_555
C18 C19 1_555 1_555
C24 C25 1_555 1_555
C30 C31 1_555 1_555
C37 C38 1_555 1_555
C45 C46 1_555 1_555
C51 C52 1_555 1_555
C57 C58 1_555 1_555
C64 C65 1_555 1_555
C72 C73 1_555 1_555
C79 C80 1_555 1_555

#END
