
#######################################################################
#
#                 Cambridge Crystallographic Data Centre
#                                CCDC 
#
#######################################################################
#
# If this CIF has been generated from an entry in the Cambridge 
# Structural Database, then it will include bibliographic, chemical, 
# crystal, experimental, refinement or atomic coordinate data resulting 
# from the CCDC's data processing and validation procedures.
#
#######################################################################

data_FOJVUX
_symmetry_cell_setting           triclinic
_symmetry_space_group_name_H-M   'P -1'
_symmetry_Int_Tables_number      2
_space_group_name_Hall           '-P 1'
loop_
_symmetry_equiv_pos_site_id
_symmetry_equiv_pos_as_xyz
1 x,y,z
2 -x,-y,-z
_cell_length_a                   7.6033(16)
_cell_length_b                   9.352(2)
_cell_length_c                   15.193(3)
_cell_angle_alpha                89.330(11)
_cell_angle_beta                 80.570(9)
_cell_angle_gamma                85.897(11)
_cell_volume                     1062.98
loop_
_atom_site_label
_atom_site_type_symbol
_atom_site_fract_x
_atom_site_fract_y
_atom_site_fract_z
Zn1 Zn 0.10546(7) 0.37983(6) 0.23670(3)
O1 O 0.2555(6) 0.1377(7) 0.2136(3)
O2 O 0.2568(7) 0.3145(7) 0.1186(4)
O3 O 0.2606(5) 0.4542(4) 0.3126(2)
O4 O 0.1431(7) 0.3200(6) 0.4222(3)
N1 N 0.0030(6) 0.5617(5) 0.1827(3)
N2 N -0.1526(7) 0.6306(6) 0.2287(4)
N3 N -0.0438(6) 0.7637(4) 0.1148(3)
N4 N -0.1227(5) 0.2859(4) 0.2829(3)
N5 N -0.2635(5) 0.2841(5) 0.2356(3)
N6 N -0.3245(5) 0.1627(4) 0.3604(3)
C1 C -0.0200(6) 0.8831(5) 0.0548(3)
C2 C 0.0589(7) 0.8649(6) -0.0318(3)
H1 H 0.0990 0.7737 -0.0534
C3 C -0.0792(7) 1.0174(6) 0.0875(3)
H2 H -0.1327 1.0291 0.1468
C4 C 0.0631(7) 0.6435(5) 0.1168(3)
H3 H 0.1668 0.6217 0.0762
C5 C -0.1760(8) 0.7492(7) 0.1855(4)
H4 H -0.2721 0.8164 0.2011
C6 C -0.4169(6) 0.0797(5) 0.4330(3)
C7 C -0.5108(8) -0.0316(6) 0.4117(4)
H5 H -0.5175 -0.0521 0.3526
C8 C -0.4041(8) 0.1128(6) 0.5184(4)
H6 H -0.3393 0.1889 0.5302
C9 C -0.1639(7) 0.2137(6) 0.3572(4)
H7 H -0.0922 0.2002 0.4011
C10 C -0.3816(7) 0.2075(6) 0.2839(3)
H8 H -0.4898 0.1866 0.2678
C11 C 0.4035(7) 0.0909(7) 0.0656(4)
C12 C 0.4609(8) 0.1417(8) -0.0185(4)
H9 H 0.4352 0.2374 -0.0319
C13 C 0.5569(8) 0.0515(8) -0.0837(4)
H10 H 0.5950 0.0875 -0.1405
C14 C 0.2976(8) 0.1890(10) 0.1378(5)
C15 C 0.3787(7) 0.4576(5) 0.4479(3)
C16 C 0.3425(7) 0.4442(6) 0.5390(3)
H11 H 0.2365 0.4070 0.5658
C17 C 0.4631(7) 0.4857(6) 0.5914(3)
H12 H 0.4380 0.4757 0.6530
C18 C 0.2486(7) 0.4062(6) 0.3922(3)
O1A O 0.7445(6) -0.1377(7) -0.2136(3)
O2A O 0.7432(7) -0.3145(7) -0.1186(4)
C11A C 0.5965(7) -0.0909(7) -0.0656(4)
C12A C 0.5391(8) -0.1417(8) 0.0185(4)
H9A H 0.5648 -0.2374 0.0319
C13A C 0.4431(8) -0.0515(8) 0.0837(4)
H10A H 0.4050 -0.0875 0.1405
C14A C 0.7024(8) -0.1890(10) -0.1378(5)
O3A O 0.7394(5) 0.5458(4) 0.6874(2)
O4A O 0.8569(7) 0.6800(6) 0.5778(3)
C15A C 0.6213(7) 0.5424(5) 0.5521(3)
C16A C 0.6575(7) 0.5558(6) 0.4610(3)
H11A H 0.7635 0.5930 0.4342
C17A C 0.5369(7) 0.5143(6) 0.4086(3)
H12A H 0.5620 0.5243 0.3470
C18A C 0.7514(7) 0.5938(6) 0.6078(3)
N1A N -0.0030(6) 1.4383(5) -0.1827(3)
N2A N 0.1526(7) 1.3694(6) -0.2287(4)
N3A N 0.0438(6) 1.2363(4) -0.1148(3)
C1A C 0.0200(6) 1.1169(5) -0.0548(3)
C2A C -0.0589(7) 1.1351(6) 0.0318(3)
H1A H -0.0990 1.2263 0.0534
C3A C 0.0792(7) 0.9826(6) -0.0875(3)
H2A H 0.1327 0.9709 -0.1468
C4A C -0.0631(7) 1.3565(5) -0.1168(3)
H3A H -0.1668 1.3783 -0.0762
C5A C 0.1760(8) 1.2508(7) -0.1855(4)
H4A H 0.2721 1.1836 -0.2011
N4A N -0.8773(5) -0.2859(4) 0.7171(3)
N5A N -0.7365(5) -0.2841(5) 0.7644(3)
N6A N -0.6755(5) -0.1627(4) 0.6396(3)
C6A C -0.5831(6) -0.0797(5) 0.5670(3)
C7A C -0.4892(8) 0.0316(6) 0.5883(4)
H5A H -0.4825 0.0521 0.6474
C8A C -0.5959(8) -0.1128(6) 0.4816(4)
H6A H -0.6607 -0.1889 0.4698
C9A C -0.8361(7) -0.2137(6) 0.6428(4)
H7A H -0.9078 -0.2002 0.5989
C10A C -0.6184(7) -0.2075(6) 0.7161(3)
H8A H -0.5102 -0.1866 0.7322
Zn1A Zn -1.10546(7) -0.37983(6) 0.76330(3)
Zn1A_2 Zn -0.10546(7) 1.62017(6) -0.23670(3)
Zn1A_3 Zn 0.89454(7) -0.37983(6) -0.23670(3)
Zn1A_4 Zn 0.89454(7) 0.62017(6) 0.76330(3)
O1A_2 O -1.2555(6) -0.1377(7) 0.7864(3)
O2A_2 O -1.2568(7) -0.3145(7) 0.8814(4)
O3A_2 O -1.2606(5) -0.4542(4) 0.6874(2)
N1A_2 N -1.0030(6) -0.5617(5) 0.8173(3)
O5 O 0.0315(8) 0.1141(7) 0.5495(4)
H13 H 0.116(2) 0.050(5) 0.522(4)
H14 H 0.050(11) 0.193(5) 0.516(5)
O6 O 0.6241(12) 0.4628(8) 0.0775(5)
O7 O 0.0894(14) -0.0983(10) 0.2773(5)
O8 O 0.3822(14) 0.7148(12) 0.2434(8)
loop_
_geom_bond_atom_site_label_1
_geom_bond_atom_site_label_2
_geom_bond_site_symmetry_1
_geom_bond_site_symmetry_2
Zn1 O1 1_555 1_555
O1 C14 1_555 1_555
O2 Zn1 1_555 1_555
O3 Zn1 1_555 1_555
O4 C18 1_555 1_555
N1 Zn1 1_555 1_555
N2 N1 1_555 1_555
N3 C1 1_555 1_555
N4 Zn1 1_555 1_555
N5 N4 1_555 1_555
N6 C6 1_555 1_555
C1 C2 1_555 1_555
C2 H1 1_555 1_555
C3 C1 1_555 1_555
H2 C3 1_555 1_555
C4 N1 1_555 1_555
H3 C4 1_555 1_555
C5 N2 1_555 1_555
H4 C5 1_555 1_555
C6 C7 1_555 1_555
C7 H5 1_555 1_555
C8 C6 1_555 1_555
H6 C8 1_555 1_555
C9 N4 1_555 1_555
H7 C9 1_555 1_555
C10 N5 1_555 1_555
H8 C10 1_555 1_555
C11 C12 1_555 1_555
C12 H9 1_555 1_555
C13 C12 1_555 1_555
H10 C13 1_555 1_555
C14 O2 1_555 1_555
C15 C16 1_555 1_555
C16 H11 1_555 1_555
C17 C16 1_555 1_555
H12 C17 1_555 1_555
C18 O3 1_555 1_555
O5 H13 1_555 1_555
H14 O5 1_555 1_555
O1A C14A 1_555 1_555
O2A C14A 1_555 1_555
C11A C13 1_555 1_555
C12A C11A 1_555 1_555
H9A C12A 1_555 1_555
C13A C11 1_555 1_555
H10A C13A 1_555 1_555
C14A C11A 1_555 1_555
O3A C18A 1_555 1_555
O4A C18A 1_555 1_555
C15A C17 1_555 1_555
C16A C15A 1_555 1_555
H11A C16A 1_555 1_555
C17A C15 1_555 1_555
H12A C17A 1_555 1_555
C18A C15A 1_555 1_555
N1A N2A 1_555 1_555
N2A C5A 1_555 1_555
N3A C1A 1_555 1_555
C1A C2A 1_555 1_555
C2A C3 1_555 1_555
H1A C2A 1_555 1_555
C3A C2 1_555 1_555
H2A C3A 1_555 1_555
C4A N1A 1_555 1_555
H3A C4A 1_555 1_555
C5A N3A 1_555 1_555
H4A C5A 1_555 1_555
N4A N5A 1_555 1_555
N5A C10A 1_555 1_555
N6A C6A 1_555 1_555
C6A C7A 1_555 1_555
C7A C8 1_555 1_555
H5A C7A 1_555 1_555
C8A C7 1_555 1_555
H6A C8A 1_555 1_555
C9A N4A 1_555 1_555
H7A C9A 1_555 1_555
C10A N6A 1_555 1_555
H8A C10A 1_555 1_555
Zn1A N4A 1_555 1_555
Zn1A_2 N1A 1_555 1_555
Zn1A_3 O1A 1_555 1_555
Zn1A_4 O3A 1_555 1_555
O1A_2 Zn1A 1_555 1_555
O2A_2 Zn1A 1_555 1_555
O3A_2 Zn1A 1_555 1_555
N1A_2 Zn1A 1_555 1_555
N3 C4 1_555 1_555
N3 C5 1_555 1_555
N6 C9 1_555 1_555
N6 C10 1_555 1_555
C11 C14 1_555 1_555
C15 C18 1_555 1_555
O2A Zn1A_3 1_555 1_555
C12A C13A 1_555 1_555
C16A C17A 1_555 1_555
N3A C4A 1_555 1_555
C1A C3A 1_555 1_555
N6A C9A 1_555 1_555
C6A C8A 1_555 1_555

#END
