
#######################################################################
#
#                 Cambridge Crystallographic Data Centre
#                                CCDC 
#
#######################################################################
#
# If this CIF has been generated from an entry in the Cambridge 
# Structural Database, then it will include bibliographic, chemical, 
# crystal, experimental, refinement or atomic coordinate data resulting 
# from the CCDC's data processing and validation procedures.
#
#######################################################################

data_FOVPUD
_symmetry_cell_setting           orthorhombic
_symmetry_space_group_name_H-M   'P b c n'
_symmetry_Int_Tables_number      60
_space_group_name_Hall           '-P 2n 2ab'
loop_
_symmetry_equiv_pos_site_id
_symmetry_equiv_pos_as_xyz
1 x,y,z
2 1/2-x,1/2-y,1/2+z
3 1/2+x,1/2-y,-z
4 -x,y,1/2-z
5 -x,-y,-z
6 1/2+x,1/2+y,1/2-z
7 1/2-x,1/2+y,z
8 x,-y,1/2+z
_cell_length_a                   24.641(4)
_cell_length_b                   12.468(2)
_cell_length_c                   15.427(2)
_cell_angle_alpha                90
_cell_angle_beta                 90
_cell_angle_gamma                90
_cell_volume                     4739.54
loop_
_atom_site_label
_atom_site_type_symbol
_atom_site_fract_x
_atom_site_fract_y
_atom_site_fract_z
Cd1 Cd 0.236025(14) 0.82527(3) 0.57756(2)
N1 N 0.2321(2) 0.4314(3) 0.3250(3)
N2 N 0.3208(2) 0.5199(3) 0.4625(3)
N3 N 0.32532(19) 0.8835(4) 0.5727(3)
O1 O 0.17381(18) 0.7351(3) 0.4838(3)
O2 O 0.26063(18) 0.7205(3) 0.4532(2)
O3 O 0.3482(2) 0.6664(5) 0.1821(3)
O4 O 0.2702(2) 0.5979(4) 0.2113(2)
O5 O 0.2737(2) 0.3681(4) 0.3048(3)
O6 O 0.28452(17) 0.4928(3) 0.5242(2)
C1 C 0.1807(3) 0.4017(5) 0.3068(4)
H1 H 0.1741 0.3359 0.2806
C2 C 0.1391(3) 0.4670(6) 0.3266(4)
H2 H 0.1040 0.4482 0.3101
C3 C 0.1479(3) 0.5641(5) 0.3721(4)
H3 H 0.1189 0.6076 0.3883
C4 C 0.2003(2) 0.5922(4) 0.3917(3)
C5 C 0.2428(3) 0.5248(4) 0.3665(3)
C6 C 0.3013(2) 0.5452(4) 0.3823(3)
C7 C 0.3379(3) 0.5838(4) 0.3205(3)
C8 C 0.3919(3) 0.5954(6) 0.3427(4)
H4 H 0.4163 0.6231 0.3025
C9 C 0.4099(3) 0.5659(7) 0.4244(5)
H5 H 0.4465 0.5712 0.4387
C10 C 0.3729(3) 0.5289(5) 0.4841(4)
H6 H 0.3843 0.5101 0.5395
C11 C 0.2128(3) 0.6914(4) 0.4449(3)
C12 C 0.3170(3) 0.6172(4) 0.2308(3)
C13 C 0.3634(3) 0.8239(6) 0.5342(6)
H7 H 0.3545 0.7550 0.5158
C14 C 0.4157(3) 0.8611(7) 0.5208(6)
H8 H 0.4415 0.8170 0.4951
C15 C 0.4293(3) 0.9644(7) 0.5460(5)
C16 C 0.3906(3) 1.0245(6) 0.5853(5)
H9 H 0.3984 1.0938 0.6036
C17 C 0.3400(3) 0.9821(5) 0.5978(4)
H10 H 0.3141 1.0245 0.6254
C18 C 0.4834(3) 1.0160(8) 0.5252(5)
H11 H 0.4917 1.0790 0.5546
O7 O 0.2666(2) 0.6666(3) 0.6380(3)
H12 H 0.2717 0.6600 0.6903
H13 H 0.2779 0.6236 0.6020
N3D N 0.67468(19) 1.1165(4) 0.4273(3)
C13D C 0.6366(3) 1.1761(6) 0.4658(6)
H7D H 0.6455 1.2450 0.4842
C14D C 0.5843(3) 1.1389(7) 0.4792(6)
H8D H 0.5585 1.1830 0.5049
C15D C 0.5707(3) 1.0356(7) 0.4540(5)
C16D C 0.6094(3) 0.9755(6) 0.4147(5)
H9D H 0.6016 0.9062 0.3964
C17D C 0.6600(3) 1.0179(5) 0.4022(4)
H10D H 0.6859 0.9755 0.3746
C18D C 0.5166(3) 0.9840(8) 0.4748(5)
H11D H 0.5083 0.9210 0.4454
Cd1D Cd 0.763975(14) 1.17473(3) 0.42244(2)
N1D N 0.7679(2) 1.5686(3) 0.6750(3)
N2D N 0.6792(2) 1.4801(3) 0.5375(3)
O1D O 0.82619(18) 1.2649(3) 0.5162(3)
O2D O 0.73937(18) 1.2795(3) 0.5468(2)
O3D O 0.6518(2) 1.3336(5) 0.8179(3)
O4D O 0.7298(2) 1.4021(4) 0.7887(2)
O5D O 0.7263(2) 1.6319(4) 0.6952(3)
O6D O 0.71548(17) 1.5072(3) 0.4758(2)
C1D C 0.8193(3) 1.5983(5) 0.6932(4)
H1D H 0.8259 1.6641 0.7194
C2D C 0.8609(3) 1.5330(6) 0.6734(4)
H2D H 0.8960 1.5518 0.6899
C3D C 0.8521(3) 1.4359(5) 0.6279(4)
H3D H 0.8811 1.3924 0.6117
C4D C 0.7997(2) 1.4078(4) 0.6083(3)
C5D C 0.7572(3) 1.4752(4) 0.6335(3)
C6D C 0.6987(2) 1.4548(4) 0.6177(3)
C7D C 0.6621(3) 1.4162(4) 0.6795(3)
C8D C 0.6081(3) 1.4046(6) 0.6573(4)
H4D H 0.5837 1.3769 0.6975
C9D C 0.5901(3) 1.4341(7) 0.5756(5)
H5D H 0.5535 1.4288 0.5613
C10D C 0.6271(3) 1.4711(5) 0.5159(4)
H6D H 0.6157 1.4899 0.4605
C11D C 0.7872(3) 1.3086(4) 0.5551(3)
C12D C 0.6830(3) 1.3828(4) 0.7692(3)
O7D O 0.7334(2) 1.3334(3) 0.3620(3)
H12D H 0.7283 1.3400 0.3097
H13D H 0.7221 1.3764 0.3980
Cd1A Cd 0.263975(14) 0.67473(3) 0.07756(2)
Cd1B Cd 0.736025(14) 1.67473(3) 0.42244(2)
Cd1E Cd 0.736025(14) 1.32527(3) 0.92244(2)
Cd1F Cd 0.263975(14) 0.32527(3) 0.57756(2)
O3A O 0.1518(2) 0.8336(5) 0.6821(3)
O3E O 0.8482(2) 1.1664(5) 0.3179(3)
O4A O 0.2298(2) 0.9021(4) 0.7113(2)
O4E O 0.7702(2) 1.0979(4) 0.2887(2)
O6B O 0.78452(17) 1.0072(3) 0.4758(2)
O6F O 0.21548(17) 0.9928(3) 0.5242(2)
O8 O 0.4560(4) 0.6769(9) 0.1295(6)
H14 H 0.4241 0.6644 0.1407
H15 H 0.4520 0.7027 0.0810
O9 O 0.4452(5) 0.7144(8) -0.0393(8)
H16 H 0.4139 0.7277 -0.0543
H17 H 0.4604 0.6854 -0.0804
O10 O 0.4672(6) 0.4330(14) 0.1591(10)
H18 H 0.4685 0.4965 0.1454
H19 H 0.4853 0.4329 0.2060
O11 O 0.5000 0.8281(15) 0.2500
H20 H 0.4871 0.7864 0.2145
H20C H 0.5129 0.7864 0.2855
O12 O 0.3861(7) 0.3227(11) 0.2636(13)
H21 H 0.4089 0.3534 0.2337
H22 H 0.4002 0.3143 0.3113
O13 O 0.5000 0.079(4) 0.2500
H23 H 0.5000 0.0129 0.2500
H24? H 0.5269 0.0890 0.2801
loop_
_geom_bond_atom_site_label_1
_geom_bond_atom_site_label_2
_geom_bond_site_symmetry_1
_geom_bond_site_symmetry_2
Cd1 N3 1_555 1_555
N1 O5 1_555 1_555
N2 O6 1_555 1_555
N3 C13 1_555 1_555
O1 Cd1 1_555 1_555
O2 Cd1 1_555 1_555
O3 C12 1_555 1_555
O4 C12 1_555 1_555
O6 Cd1F 1_555 1_555
C1 N1 1_555 1_555
H1 C1 1_555 1_555
C2 C1 1_555 1_555
H2 C2 1_555 1_555
C3 C2 1_555 1_555
H3 C3 1_555 1_555
C4 C3 1_555 1_555
C5 N1 1_555 1_555
C6 N2 1_555 1_555
C7 C6 1_555 1_555
C8 C7 1_555 1_555
H4 C8 1_555 1_555
C9 C8 1_555 1_555
H5 C9 1_555 1_555
C10 N2 1_555 1_555
H6 C10 1_555 1_555
C11 O1 1_555 1_555
C12 C7 1_555 1_555
C13 H7 1_555 1_555
C14 C13 1_555 1_555
H8 C14 1_555 1_555
C15 C14 1_555 1_555
C16 C15 1_555 1_555
H9 C16 1_555 1_555
C17 N3 1_555 1_555
H10 C17 1_555 1_555
C18 C15 1_555 1_555
H11 C18 1_555 1_555
O7 Cd1 1_555 1_555
H12 O7 1_555 1_555
H13 O7 1_555 1_555
O8 H14 1_555 1_555
H15 O8 1_555 1_555
O9 H16 1_555 1_555
H17 O9 1_555 1_555
O10 H18 1_555 1_555
H19 O10 1_555 1_555
O11 H20 1_555 1_555
O12 H21 1_555 1_555
H22 O12 1_555 1_555
O13 H23 1_555 1_555
N3D C13D 1_555 1_555
C13D H7D 1_555 1_555
C14D C13D 1_555 1_555
H8D C14D 1_555 1_555
C15D C14D 1_555 1_555
C16D C15D 1_555 1_555
H9D C16D 1_555 1_555
C17D N3D 1_555 1_555
H10D C17D 1_555 1_555
C18D C18 1_555 1_555
H11D C18D 1_555 1_555
Cd1D N3D 1_555 1_555
N1D O5D 1_555 1_555
N2D O6D 1_555 1_555
O1D Cd1D 1_555 1_555
O2D Cd1D 1_555 1_555
O3D C12D 1_555 1_555
O4D C12D 1_555 1_555
O6D Cd1B 1_555 1_555
C1D N1D 1_555 1_555
H1D C1D 1_555 1_555
C2D C1D 1_555 1_555
H2D C2D 1_555 1_555
C3D C2D 1_555 1_555
H3D C3D 1_555 1_555
C4D C3D 1_555 1_555
C5D N1D 1_555 1_555
C6D N2D 1_555 1_555
C7D C6D 1_555 1_555
C8D C7D 1_555 1_555
H4D C8D 1_555 1_555
C9D C8D 1_555 1_555
H5D C9D 1_555 1_555
C10D N2D 1_555 1_555
H6D C10D 1_555 1_555
C11D O1D 1_555 1_555
C12D C7D 1_555 1_555
O7D Cd1D 1_555 1_555
H12D O7D 1_555 1_555
H13D O7D 1_555 1_555
Cd1A O3 1_555 1_555
Cd1E O3D 1_555 1_555
O3A Cd1 1_555 1_555
O3E Cd1D 1_555 1_555
O4A Cd1 1_555 1_555
O4E Cd1D 1_555 1_555
O6B Cd1D 1_555 1_555
O6F Cd1 1_555 1_555
H20C O11 1_555 1_555
O2 C11 1_555 1_555
O4 Cd1A 1_555 1_555
C4 C5 1_555 1_555
C4 C11 1_555 1_555
C5 C6 1_555 1_555
C9 C10 1_555 1_555
C16 C17 1_555 1_555
C15D C18D 1_555 1_555
C16D C17D 1_555 1_555
O2D C11D 1_555 1_555
O4D Cd1E 1_555 1_555
C4D C5D 1_555 1_555
C4D C11D 1_555 1_555
C5D C6D 1_555 1_555
C9D C10D 1_555 1_555

#END
