
#######################################################################
#
#                 Cambridge Crystallographic Data Centre
#                                CCDC 
#
#######################################################################
#
# If this CIF has been generated from an entry in the Cambridge 
# Structural Database, then it will include bibliographic, chemical, 
# crystal, experimental, refinement or atomic coordinate data resulting 
# from the CCDC's data processing and validation procedures.
#
#######################################################################

data_FOXPUE
_symmetry_cell_setting           triclinic
_symmetry_space_group_name_H-M   'P -1'
_symmetry_Int_Tables_number      2
_space_group_name_Hall           '-P 1'
loop_
_symmetry_equiv_pos_site_id
_symmetry_equiv_pos_as_xyz
1 x,y,z
2 -x,-y,-z
_cell_length_a                   9.026(4)
_cell_length_b                   12.942(5)
_cell_length_c                   18.457(7)
_cell_angle_alpha                81.718(12)
_cell_angle_beta                 84.770(15)
_cell_angle_gamma                72.443(15)
_cell_volume                     2031.57
loop_
_atom_site_label
_atom_site_type_symbol
_atom_site_fract_x
_atom_site_fract_y
_atom_site_fract_z
Cu1 Cu 0.0000 1.0000 0.0000
Cu2 Cu 0.42033(3) 0.30359(2) 0.347123(15)
N5 N 0.2715(2) 0.74249(17) -0.10372(12)
N6 N 0.1671(2) 0.87937(17) -0.04089(13)
N7 N 0.2287(2) 0.20651(18) -0.11766(13)
N8 N 0.0784(2) 0.11082(17) -0.06411(13)
N9 N 0.2252(2) 0.44730(18) 0.14954(11)
N10 N 0.3349(2) 0.39482(17) 0.25503(11)
N11 N 0.1299(2) 0.56899(17) 0.44245(12)
N12 N 0.3022(2) 0.42376(17) 0.40654(11)
N13 N -0.2703(2) 1.04472(18) 0.25364(12)
N14 N -0.4651(2) 1.17838(17) 0.29008(11)
N15 N 0.3606(2) 0.90710(18) 0.47766(12)
N16 N 0.5120(2) 0.79725(17) 0.56052(12)
C1 C 0.2786(3) 0.5486(2) -0.09709(14)
C2 C 0.3271(3) 0.4521(2) -0.12871(14)
C3 C 0.3162(3) 0.3549(2) -0.08978(15)
C4 C 0.2554(3) 0.3544(2) -0.01752(14)
C5 C 0.2045(2) 0.4499(2) 0.01502(13)
C6 C 0.2171(2) 0.5474(2) -0.02513(13)
C7 C 0.2829(3) 0.6526(2) -0.14527(15)
C8 C 0.1396(3) 0.8162(2) -0.08493(15)
C9 C 0.3229(3) 0.8444(2) -0.0313(2)
C10 C 0.3887(3) 0.7593(2) -0.0703(2)
C11 C 0.3598(3) 0.2524(2) -0.12680(17)
C12 C 0.2200(3) 0.1194(2) -0.07041(15)
C13 C -0.0101(3) 0.1986(2) -0.10905(17)
C14 C 0.0830(3) 0.2575(2) -0.14216(16)
C15 C 0.1254(3) 0.4491(2) 0.09079(13)
C16 C 0.2619(3) 0.3669(2) 0.20574(13)
C17 C 0.3439(3) 0.4985(2) 0.22965(14)
C18 C 0.2764(3) 0.5314(2) 0.16429(15)
C19 C 0.0182(3) 0.7700(2) 0.40735(14)
C20 C -0.0536(3) 0.8221(2) 0.34250(15)
C21 C -0.0321(3) 0.9209(2) 0.30995(14)
C22 C 0.0604(3) 0.9674(2) 0.34190(15)
C23 C 0.1312(3) 0.9173(2) 0.40719(15)
C24 C 0.1093(3) 0.8186(2) 0.43891(15)
C25 C -0.0094(3) 0.6643(2) 0.44377(16)
C26 C 0.1691(2) 0.4998(2) 0.39197(14)
C27 C 0.3489(3) 0.4466(2) 0.46977(15)
C28 C 0.2432(3) 0.5361(2) 0.49268(15)
C29 C -0.1103(3) 0.9778(2) 0.23952(15)
C30 C -0.3132(3) 1.1424(2) 0.27857(14)
C31 C -0.5225(3) 1.0994(2) 0.27127(16)
C32 C -0.4034(3) 1.0163(2) 0.24869(17)
C33 C 0.2188(3) 0.9770(2) 0.44365(18)
C34 C 0.3680(3) 0.8513(2) 0.54497(15)
C35 C 0.6026(3) 0.8208(2) 0.50011(15)
C36 C 0.5095(3) 0.8880(2) 0.44870(16)
H1 H 0.3685 0.4529 -0.1779
H2 H 0.2488 0.2877 0.0098
H3 H 0.1834 0.6132 -0.0032
H4 H 0.3812 0.6383 -0.1758
H5 H 0.1959 0.6744 -0.1786
H6 H 0.0399 0.8223 -0.1010
H7 H 0.3766 0.8746 -0.0020
H8 H 0.4958 0.7194 -0.0737
H9 H 0.3853 0.2697 -0.1796
H10 H 0.4525 0.1986 -0.1047
H11 H 0.3053 0.0703 -0.0449
H12 H -0.1183 0.2146 -0.1155
H13 H 0.0532 0.3220 -0.1759
H14 H 0.0341 0.5148 0.0913
H15 H 0.0868 0.3843 0.1011
H16 H 0.2384 0.2995 0.2094
H17 H 0.3899 0.5400 0.2540
H18 H 0.2666 0.5992 0.1346
H19 H -0.1173 0.7900 0.3205
H20 H 0.0761 1.0342 0.3192
H21 H 0.1579 0.7838 0.4832
H22 H -0.0463 0.6727 0.4954
H23 H -0.0928 0.6505 0.4188
H24 H 0.1095 0.5044 0.3511
H25 H 0.4412 0.4058 0.4937
H26 H 0.2467 0.5694 0.5349
H27 H -0.0495 1.0247 0.2127
H28 H -0.1110 0.9222 0.2080
H29 H -0.2429 1.1808 0.2869
H30 H -0.6293 1.1025 0.2737
H31 H -0.4105 0.9515 0.2327
H32 H 0.2465 1.0323 0.4065
H33 H 0.1486 1.0163 0.4817
H34 H 0.2800 0.8510 0.5774
H35 H 0.7128 0.7942 0.4953
H36 H 0.5416 0.9164 0.4016
Cu1_2 Cu 0.0000 0.0000 0.0000
Cu1_3 Cu 0.0000 2.0000 0.0000
Cu2A Cu -0.42033(3) 1.69641(2) -0.347123(15)
Cu2_2 Cu -0.57967(3) 1.30359(2) 0.347123(15)
Cu2A_2 Cu 0.57967(3) 0.69641(2) 0.652877(15)
Cu2A_3 Cu 1.57967(3) -0.30359(2) 0.652877(15)
N5A N -0.2715(2) 1.25751(17) 0.10372(12)
N6A N -0.1671(2) 1.12063(17) 0.04089(13)
N7A N -0.2287(2) 1.79349(18) 0.11766(13)
N8A N -0.0784(2) 1.88918(17) 0.06411(13)
N8_2 N 0.0784(2) 1.11082(17) -0.06411(13)
N8A_2 N -0.0784(2) 0.88918(17) 0.06411(13)
N9A N -0.2252(2) 1.55270(18) -0.14954(11)
N10A N -0.3349(2) 1.60518(17) -0.25503(11)
N11A N 0.8701(2) 0.43101(17) 0.55755(12)
N12A N 0.6978(2) 0.57624(17) 0.59346(11)
N12A_2 N -0.3022(2) 1.57624(17) -0.40654(11)
N13A N 1.2703(2) -0.04472(18) 0.74636(12)
N14A N 1.4651(2) -0.17838(17) 0.70992(11)
N14_2 N 0.5349(2) 0.17838(17) 0.29008(11)
N14A_2 N -0.5349(2) 1.82162(17) -0.29008(11)
N15A N 0.6394(2) 0.09290(18) 0.52234(12)
N16A N 0.4880(2) 0.20275(17) 0.43948(12)
N16_2 N -0.4880(2) 1.79725(17) -0.43948(12)
C1A C -0.2786(3) 1.4514(2) 0.09709(14)
C2A C -0.3271(3) 1.5479(2) 0.12871(14)
C3A C -0.3162(3) 1.6451(2) 0.08978(15)
C4A C -0.2554(3) 1.6456(2) 0.01752(14)
C5A C -0.2045(2) 1.5501(2) -0.01502(13)
C6A C -0.2171(2) 1.4526(2) 0.02513(13)
C7A C -0.2829(3) 1.3474(2) 0.14527(15)
C8A C -0.1396(3) 1.1838(2) 0.08493(15)
C9A C -0.3229(3) 1.1556(2) 0.0313(2)
C10A C -0.3887(3) 1.2407(2) 0.0703(2)
C11A C -0.3598(3) 1.7476(2) 0.12680(17)
C12A C -0.2200(3) 1.8806(2) 0.07041(15)
C13A C 0.0101(3) 1.8014(2) 0.10905(17)
C14A C -0.0830(3) 1.7425(2) 0.14216(16)
C15A C -0.1254(3) 1.5509(2) -0.09079(13)
C16A C -0.2619(3) 1.6331(2) -0.20574(13)
C17A C -0.3439(3) 1.5015(2) -0.22965(14)
C18A C -0.2764(3) 1.4686(2) -0.16429(15)
C19A C 0.9818(3) 0.2300(2) 0.59265(14)
C20A C 1.0536(3) 0.1779(2) 0.65750(15)
C21A C 1.0321(3) 0.0791(2) 0.69005(14)
C22A C 0.9396(3) 0.0326(2) 0.65810(15)
C23A C 0.8688(3) 0.0827(2) 0.59281(15)
C24A C 0.8907(3) 0.1814(2) 0.56109(15)
C25A C 1.0094(3) 0.3357(2) 0.55623(16)
C26A C 0.8309(2) 0.5002(2) 0.60803(14)
C27A C 0.6511(3) 0.5534(2) 0.53023(15)
C28A C 0.7568(3) 0.4639(2) 0.50732(15)
C29A C 1.1103(3) 0.0222(2) 0.76048(15)
C30A C 1.3132(3) -0.1424(2) 0.72143(14)
C31A C 1.5225(3) -0.0994(2) 0.72873(16)
C32A C 1.4034(3) -0.0163(2) 0.75131(17)
C33A C 0.7812(3) 0.0230(2) 0.55635(18)
C34A C 0.6320(3) 0.1487(2) 0.45503(15)
C35A C 0.3974(3) 0.1792(2) 0.49989(15)
C36A C 0.4905(3) 0.1120(2) 0.55130(16)
H1A H -0.3685 1.5471 0.1779
H2A H -0.2488 1.7123 -0.0098
H3A H -0.1834 1.3868 0.0032
H4A H -0.3812 1.3617 0.1758
H5A H -0.1959 1.3256 0.1786
H6A H -0.0399 1.1777 0.1010
H7A H -0.3766 1.1254 0.0020
H8A H -0.4958 1.2806 0.0737
H9A H -0.3853 1.7303 0.1796
H10A H -0.4525 1.8014 0.1047
H11A H -0.3053 1.9297 0.0449
H12A H 0.1183 1.7854 0.1155
H13A H -0.0532 1.6780 0.1759
H14A H -0.0341 1.4852 -0.0913
H15A H -0.0868 1.6157 -0.1011
H16A H -0.2384 1.7005 -0.2094
H17A H -0.3899 1.4600 -0.2540
H18A H -0.2666 1.4008 -0.1346
H19A H 1.1173 0.2100 0.6795
H20A H 0.9239 -0.0342 0.6808
H21A H 0.8421 0.2162 0.5168
H22A H 1.0463 0.3273 0.5046
H23A H 1.0928 0.3495 0.5812
H24A H 0.8905 0.4956 0.6489
H25A H 0.5588 0.5942 0.5063
H26A H 0.7533 0.4306 0.4651
H27A H 1.0495 -0.0247 0.7873
H28A H 1.1110 0.0778 0.7920
H29A H 1.2429 -0.1808 0.7131
H30A H 1.6293 -0.1025 0.7263
H31A H 1.4105 0.0485 0.7673
H32A H 0.7535 -0.0323 0.5935
H33A H 0.8514 -0.0163 0.5183
H34A H 0.7200 0.1490 0.4226
H35A H 0.2872 0.2058 0.5047
H36A H 0.4584 0.0836 0.5984
O1 O 0.6330(2) 0.37377(19) 0.33546(13)
O2 O 0.3049(5) 0.7758(4) 0.2061(3)
O4 O 0.1764(2) 0.99646(19) 0.10514(15)
O5 O 0.4071(3) 1.0125(2) 0.08496(18)
O6 O 0.2231(3) 1.14769(19) 0.11696(16)
N1 N 0.2692(2) 1.0520(2) 0.10476(14)
O7 O -0.0771(3) 0.2568(3) 0.38689(15)
O8 O 0.0070(4) 0.2509(3) 0.27631(15)
O9 O 0.1643(2) 0.2335(2) 0.35930(16)
N2 N 0.0326(2) 0.2487(2) 0.34096(13)
O10 O 0.1837(10) 0.4389(7) 0.6884(4)
O12 O 0.4083(8) 0.4124(4) 0.6781(3)
O14 O 0.3304(13) 0.2685(8) 0.6930(5)
N3 N 0.3056(10) 0.3720(7) 0.6791(4)
O3? O 0.0657(6) 0.4841(4) 0.7415(3)
O11? O 0.3056(10) 0.3720(7) 0.6791(4)
O13? O 0.5244(18) 0.3726(13) 0.6594(10)
O15? O 0.4901(19) 0.2268(9) 0.6936(8)
N4? N 0.4356(7) 0.3232(4) 0.6720(3)
N17? N 0.4356(7) 0.3232(4) 0.6720(3)
O16? O 0.3909(14) 0.2511(8) 0.6960(6)
O17? O 0.4083(8) 0.4124(4) 0.6781(3)
O18? O 0.5820(13) 0.2950(12) 0.6567(9)
loop_
_geom_bond_atom_site_label_1
_geom_bond_atom_site_label_2
_geom_bond_site_symmetry_1
_geom_bond_site_symmetry_2
Cu1 N6 1_555 1_555
Cu2 N10 1_555 1_555
O4 N1 1_555 1_555
O5 N1 1_555 1_555
O6 N1 1_555 1_555
O7 N2 1_555 1_555
O8 N2 1_555 1_555
O9 N2 1_555 1_555
O10 N3 1_555 1_555
O12 N3 1_555 1_555
O14 N3 1_555 1_555
N5 C7 1_555 1_555
N6 C8 1_555 1_555
N7 C11 1_555 1_555
N8 C12 1_555 1_555
N9 C15 1_555 1_555
N10 C16 1_555 1_555
N11 C25 1_555 1_555
N12 Cu2 1_555 1_555
N13 C29 1_555 1_555
N14 C30 1_555 1_555
N15 C33 1_555 1_555
N16 C34 1_555 1_555
C1 C2 1_555 1_555
C2 C3 1_555 1_555
C3 C4 1_555 1_555
C4 C5 1_555 1_555
C5 C6 1_555 1_555
C6 C1 1_555 1_555
C7 C1 1_555 1_555
C8 N5 1_555 1_555
C9 N6 1_555 1_555
C10 N5 1_555 1_555
C11 C3 1_555 1_555
C12 N7 1_555 1_555
C13 N8 1_555 1_555
C14 N7 1_555 1_555
C15 C5 1_555 1_555
C16 N9 1_555 1_555
C17 N10 1_555 1_555
C18 N9 1_555 1_555
C19 C20 1_555 1_555
C20 C21 1_555 1_555
C21 C22 1_555 1_555
C22 C23 1_555 1_555
C23 C24 1_555 1_555
C24 C19 1_555 1_555
C25 C19 1_555 1_555
C26 N11 1_555 1_555
C27 N12 1_555 1_555
C28 N11 1_555 1_555
C29 C21 1_555 1_555
C30 N13 1_555 1_555
C31 N14 1_555 1_555
C32 N13 1_555 1_555
C33 C23 1_555 1_555
C34 N15 1_555 1_555
C35 N16 1_555 1_555
C36 N15 1_555 1_555
H1 C2 1_555 1_555
H2 C4 1_555 1_555
H3 C6 1_555 1_555
H4 C7 1_555 1_555
H5 C7 1_555 1_555
H6 C8 1_555 1_555
H7 C9 1_555 1_555
H8 C10 1_555 1_555
H9 C11 1_555 1_555
H10 C11 1_555 1_555
H11 C12 1_555 1_555
H12 C13 1_555 1_555
H13 C14 1_555 1_555
H14 C15 1_555 1_555
H15 C15 1_555 1_555
H16 C16 1_555 1_555
H17 C17 1_555 1_555
H18 C18 1_555 1_555
H19 C20 1_555 1_555
H20 C22 1_555 1_555
H21 C24 1_555 1_555
H22 C25 1_555 1_555
H23 C25 1_555 1_555
H24 C26 1_555 1_555
H25 C27 1_555 1_555
H26 C28 1_555 1_555
H27 C29 1_555 1_555
H28 C29 1_555 1_555
H29 C30 1_555 1_555
H30 C31 1_555 1_555
H31 C32 1_555 1_555
H32 C33 1_555 1_555
H33 C33 1_555 1_555
H34 C34 1_555 1_555
H35 C35 1_555 1_555
H36 C36 1_555 1_555
Cu1_2 N8 1_555 1_555
Cu1_3 N8A 1_555 1_555
Cu2A N10A 1_555 1_555
Cu2_2 N14 1_555 1_555
Cu2A_2 N16 1_555 1_555
Cu2A_3 N14A 1_555 1_555
N5A C7A 1_555 1_555
N6A Cu1 1_555 1_555
N7A C11A 1_555 1_555
N8A C12A 1_555 1_555
N8_2 Cu1 1_555 1_555
N8A_2 Cu1 1_555 1_555
N9A C15A 1_555 1_555
N10A C16A 1_555 1_555
N11A C25A 1_555 1_555
N12A Cu2A_2 1_555 1_555
N12A_2 Cu2A 1_555 1_555
N13A C29A 1_555 1_555
N14A C30A 1_555 1_555
N14_2 Cu2 1_555 1_555
N14A_2 Cu2A 1_555 1_555
N15A C33A 1_555 1_555
N16A Cu2 1_555 1_555
N16_2 Cu2A 1_555 1_555
C1A C2A 1_555 1_555
C2A C3A 1_555 1_555
C3A C4A 1_555 1_555
C4A C5A 1_555 1_555
C5A C6A 1_555 1_555
C6A C1A 1_555 1_555
C7A C1A 1_555 1_555
C8A N5A 1_555 1_555
C9A N6A 1_555 1_555
C10A N5A 1_555 1_555
C11A C3A 1_555 1_555
C12A N7A 1_555 1_555
C13A N8A 1_555 1_555
C14A N7A 1_555 1_555
C15A C5A 1_555 1_555
C16A N9A 1_555 1_555
C17A N10A 1_555 1_555
C18A N9A 1_555 1_555
C19A C20A 1_555 1_555
C20A C21A 1_555 1_555
C21A C22A 1_555 1_555
C22A C23A 1_555 1_555
C23A C24A 1_555 1_555
C24A C19A 1_555 1_555
C25A C19A 1_555 1_555
C26A N11A 1_555 1_555
C27A N12A 1_555 1_555
C28A N11A 1_555 1_555
C29A C21A 1_555 1_555
C30A N13A 1_555 1_555
C31A N14A 1_555 1_555
C32A N13A 1_555 1_555
C33A C23A 1_555 1_555
C34A N15A 1_555 1_555
C35A N16A 1_555 1_555
C36A N15A 1_555 1_555
H1A C2A 1_555 1_555
H2A C4A 1_555 1_555
H3A C6A 1_555 1_555
H4A C7A 1_555 1_555
H5A C7A 1_555 1_555
H6A C8A 1_555 1_555
H7A C9A 1_555 1_555
H8A C10A 1_555 1_555
H9A C11A 1_555 1_555
H10A C11A 1_555 1_555
H11A C12A 1_555 1_555
H12A C13A 1_555 1_555
H13A C14A 1_555 1_555
H14A C15A 1_555 1_555
H15A C15A 1_555 1_555
H16A C16A 1_555 1_555
H17A C17A 1_555 1_555
H18A C18A 1_555 1_555
H19A C20A 1_555 1_555
H20A C22A 1_555 1_555
H21A C24A 1_555 1_555
H22A C25A 1_555 1_555
H23A C25A 1_555 1_555
H24A C26A 1_555 1_555
H25A C27A 1_555 1_555
H26A C28A 1_555 1_555
H27A C29A 1_555 1_555
H28A C29A 1_555 1_555
H29A C30A 1_555 1_555
H30A C31A 1_555 1_555
H31A C32A 1_555 1_555
H32A C33A 1_555 1_555
H33A C33A 1_555 1_555
H34A C34A 1_555 1_555
H35A C35A 1_555 1_555
H36A C36A 1_555 1_555
N12 C26 1_555 1_555
C9 C10 1_555 1_555
C13 C14 1_555 1_555
C17 C18 1_555 1_555
C27 C28 1_555 1_555
C31 C32 1_555 1_555
C35 C36 1_555 1_555
N6A C8A 1_555 1_555
N12A C26A 1_555 1_555
N16A C34A 1_555 1_555
C9A C10A 1_555 1_555
C13A C14A 1_555 1_555
C17A C18A 1_555 1_555
C27A C28A 1_555 1_555
C31A C32A 1_555 1_555
C35A C36A 1_555 1_555

#END
