
#######################################################################
#
#                 Cambridge Crystallographic Data Centre
#                                CCDC 
#
#######################################################################
#
# If this CIF has been generated from an entry in the Cambridge 
# Structural Database, then it will include bibliographic, chemical, 
# crystal, experimental, refinement or atomic coordinate data resulting 
# from the CCDC's data processing and validation procedures.
#
#######################################################################

data_FUBTUT
_symmetry_cell_setting           monoclinic
_symmetry_space_group_name_H-M   'P 21/c'
_symmetry_Int_Tables_number      14
_space_group_name_Hall           '-P 2ybc'
loop_
_symmetry_equiv_pos_site_id
_symmetry_equiv_pos_as_xyz
1 x,y,z
2 -x,1/2+y,1/2-z
3 -x,-y,-z
4 x,1/2-y,1/2+z
_cell_length_a                   10.8161(13)
_cell_length_b                   12.6809(15)
_cell_length_c                   13.4170(16)
_cell_angle_alpha                90
_cell_angle_beta                 111.147(2)
_cell_angle_gamma                90
_cell_volume                     1716.32
loop_
_atom_site_label
_atom_site_type_symbol
_atom_site_fract_x
_atom_site_fract_y
_atom_site_fract_z
C1 C 0.1361(2) 0.6259(2) 0.92923(19)
C2 C 0.2116(2) 0.7037(2) 0.88813(19)
C3 C 0.1433(2) 0.7781(2) 0.81261(19)
H1 H 0.0511 0.7778 0.7854
C4 C 0.2117(2) 0.8528(2) 0.77752(19)
C5 C 0.1391(3) 0.9251(2) 0.6869(2)
C6 C 0.3502(2) 0.8563(2) 0.8212(2)
H2 H 0.3959 0.9095 0.8014
C7 C 0.4195(2) 0.7795(2) 0.8948(2)
C8 C 0.3498(2) 0.7029(2) 0.9267(2)
H3 H 0.3958 0.6506 0.9743
C9 C 0.5670(2) 0.7810(2) 0.9373(2)
C10 C 0.6375(3) 0.8717(2) 0.9804(3)
H4 H 0.5903 0.9326 0.9819
C11 C 0.8318(3) 0.7871(2) 1.0145(3)
H5 H 0.9240 0.7884 1.0420
C12 C 0.6419(2) 0.6941(2) 0.93495(19)
H6 H 0.5990 0.6316 0.9057
Co1 Co -0.10608(3) 0.57001(2) 0.97097(2)
N1 N 0.7753(2) 0.69646(16) 0.97360(16)
N2 N 0.7702(3) 0.8760(2) 1.0200(3)
O1 O 0.02108(18) 0.65268(15) 0.92128(15)
O2 O 0.19307(18) 0.54109(15) 0.96745(15)
O3 O 0.02500(19) 0.89737(18) 0.62754(14)
O4 O 0.19807(19) 1.00621(16) 0.67368(15)
Co1_2 Co 0.89392(3) 0.57001(2) 0.97097(2)
Co1A Co 0.10608(3) 1.07001(2) 0.52903(2)
Co1B Co 0.10608(3) 0.42999(2) 1.02903(2)
Co1C Co -0.10608(3) 0.92999(2) 0.47097(2)
N1_2 N -0.2247(2) 0.69646(16) 0.97360(16)
O2B O -0.19307(18) 0.45891(15) 1.03255(15)
O3C O 0.02500(19) 0.60263(18) 1.12754(14)
O4A O -0.19807(19) 0.50621(16) 0.82632(15)
loop_
_geom_bond_atom_site_label_1
_geom_bond_atom_site_label_2
_geom_bond_site_symmetry_1
_geom_bond_site_symmetry_2
C1 C2 1_555 1_555
C2 C3 1_555 1_555
C3 H1 1_555 1_555
C4 C3 1_555 1_555
C5 C4 1_555 1_555
C6 C4 1_555 1_555
H2 C6 1_555 1_555
C7 C6 1_555 1_555
C8 C2 1_555 1_555
H3 C8 1_555 1_555
C9 C7 1_555 1_555
C10 C9 1_555 1_555
H4 C10 1_555 1_555
C11 H5 1_555 1_555
C12 C9 1_555 1_555
H6 C12 1_555 1_555
Co1 O1 1_555 1_555
N1 C11 1_555 1_555
N2 C10 1_555 1_555
O1 C1 1_555 1_555
O2 C1 1_555 1_555
O3 C5 1_555 1_555
O4 C5 1_555 1_555
Co1_2 N1 1_555 1_555
Co1A O4 1_555 1_555
Co1B Co1 1_555 1_555
Co1C O3 1_555 1_555
N1_2 Co1 1_555 1_555
O2B Co1 1_555 1_555
O3C Co1 1_555 1_555
O4A Co1 1_555 1_555
C7 C8 1_555 1_555
C11 N2 1_555 1_555
C12 N1 1_555 1_555
O2 Co1B 1_555 1_555
Co1A Co1C 1_555 1_555

#END
