
#######################################################################
#
#                 Cambridge Crystallographic Data Centre
#                                CCDC 
#
#######################################################################
#
# If this CIF has been generated from an entry in the Cambridge 
# Structural Database, then it will include bibliographic, chemical, 
# crystal, experimental, refinement or atomic coordinate data resulting 
# from the CCDC's data processing and validation procedures.
#
#######################################################################

data_FUDGES
_symmetry_cell_setting           monoclinic
_symmetry_space_group_name_H-M   'P 21/c'
_symmetry_Int_Tables_number      14
_space_group_name_Hall           '-P 2ybc'
loop_
_symmetry_equiv_pos_site_id
_symmetry_equiv_pos_as_xyz
1 x,y,z
2 -x,1/2+y,1/2-z
3 -x,-y,-z
4 x,1/2-y,1/2+z
_cell_length_a                   10.289(2)
_cell_length_b                   15.763(3)
_cell_length_c                   24.796(5)
_cell_angle_alpha                90
_cell_angle_beta                 112.65(3)
_cell_angle_gamma                90
_cell_volume                     3711.39
loop_
_atom_site_label
_atom_site_type_symbol
_atom_site_fract_x
_atom_site_fract_y
_atom_site_fract_z
O13 O 0.0301(7) -0.4803(4) -0.1479(3)
N3 N -0.0383(9) -0.4027(5) -0.0895(4)
C23 C 0.0426(11) -0.4560(6) -0.1038(5)
H23 H 0.1210 -0.4761 -0.0727
C24 C -0.1593(11) -0.3653(6) -0.1304(5)
H24 H -0.2005 -0.3281 -0.1106
H25 H -0.2258 -0.4086 -0.1505
H26 H -0.1347 -0.3333 -0.1580
C25 C 0.0046(11) -0.3770(6) -0.0294(5)
H27 H -0.0626 -0.3375 -0.0258
H28 H 0.0956 -0.3506 -0.0167
H29 H 0.0096 -0.4259 -0.0056
O14 O -0.1601(7) -0.2342(4) -0.4057(3)
N4 N -0.2503(6) -0.3515(3) -0.4616(2)
C26 C -0.2500(8) -0.2918(5) -0.4246(3)
H30 H -0.3231 -0.2924 -0.4113
C27 C -0.3538(7) -0.4179(4) -0.4794(3)
H31 H -0.4226 -0.4081 -0.4627
H32 H -0.3087 -0.4715 -0.4661
H33 H -0.3993 -0.4184 -0.5212
C28 C -0.1376(11) -0.3565(6) -0.4833(4)
H34 H -0.1518 -0.4053 -0.5080
H35 H -0.0487 -0.3613 -0.4509
H36 H -0.1381 -0.3062 -0.5052
Zn1 Zn 0.74215(5) -0.14623(3) -0.26493(2)
Zn2 Zn 0.70840(5) -0.01794(3) -0.144514(18)
O1 O 0.6184(4) -0.1763(2) -0.21589(17)
O2 O 0.5973(4) -0.1154(2) -0.13961(16)
O3 O 0.3800(4) -0.4496(2) -0.28605(14)
O4 O 0.2796(4) -0.5168(2) -0.23379(16)
O5 O -0.0794(4) -0.1550(2) -0.19071(14)
O6 O -0.1023(4) -0.0590(2) -0.12908(14)
O7 O 0.2325(4) -0.0473(2) 0.07295(14)
O8 O 0.4300(4) -0.1212(3) 0.09971(16)
O9 O 0.3424(3) -0.32707(18) -0.06549(12)
C1 C 0.3829(4) -0.3220(2) -0.11286(17)
C2 C 0.4578(5) -0.2532(3) -0.11957(18)
H1 H 0.4806 -0.2087 -0.0929
C3 C 0.4987(4) -0.2512(3) -0.16673(18)
C4 C 0.4661(4) -0.3182(3) -0.20592(18)
H2 H 0.4947 -0.3168 -0.2372
C5 C 0.3911(4) -0.3872(2) -0.19879(17)
C6 C 0.3495(4) -0.3893(2) -0.15137(17)
H3 H 0.2999 -0.4356 -0.1458
C7 C 0.5790(5) -0.1756(3) -0.17505(19)
C8 C 0.3476(4) -0.4577(3) -0.24197(18)
C9 C 0.2724(4) -0.2553(2) -0.05782(17)
C10 C 0.1577(5) -0.2241(3) -0.10323(17)
H4 H 0.1280 -0.2494 -0.1399
C11 C 0.0860(4) -0.1541(2) -0.09400(18)
C12 C 0.1340(4) -0.1166(3) -0.03865(18)
H5 H 0.0861 -0.0703 -0.0320
C13 C 0.2529(4) -0.1477(3) 0.00669(18)
C14 C 0.3225(4) -0.2184(3) -0.00240(18)
H6 H 0.4007 -0.2407 0.0277
C15 C -0.0423(4) -0.1209(3) -0.14241(18)
C16 C 0.3124(5) -0.1032(3) 0.06531(18)
O10 O 0.7524(7) -0.2758(4) -0.2787(3)
N1 N 0.8355(9) -0.3979(5) -0.2921(3)
C17 C 0.8290(11) -0.3116(7) -0.2786(4)
H7 H 0.9150 -0.2836 -0.2673
C18 C 0.9680(11) -0.4219(6) -0.2883(4)
H8 H 1.0283 -0.3731 -0.2798
H9 H 0.9612 -0.4463 -0.3248
H10 H 1.0063 -0.4630 -0.2577
C19 C 0.7257(10) -0.4547(6) -0.3033(4)
H11 H 0.7349 -0.4997 -0.3276
H12 H 0.6378 -0.4259 -0.3229
H13 H 0.7282 -0.4779 -0.2671
O11 O 0.5469(6) -0.1481(4) -0.3365(3)
N2 N 0.3204(7) -0.1730(5) -0.3467(3)
C20 C 0.4493(9) -0.1922(6) -0.3403(4)
H14 H 0.4682 -0.2500 -0.3383
C21 C 0.2912(8) -0.0834(6) -0.3475(4)
H15 H 0.1974 -0.0753 -0.3490
H16 H 0.2994 -0.0579 -0.3812
H17 H 0.3574 -0.0575 -0.3127
C22 C 0.2141(9) -0.2303(6) -0.3523(4)
H18 H 0.1303 -0.2001 -0.3557
H19 H 0.2428 -0.2663 -0.3185
H20 H 0.1954 -0.2643 -0.3866
O12 O 0.8550(5) -0.1271(3) -0.31849(19)
H21 H 0.829(9) -0.167(3) -0.347(2)
H22 H 0.857(9) -0.080(2) -0.339(3)
Zn1_2 Zn -0.25785(5) -0.14623(3) -0.26493(2)
Zn1A Zn 0.25785(5) -0.64623(3) -0.23507(2)
Zn2_2 Zn -0.29160(5) -0.01794(3) -0.144514(18)
Zn2A Zn 0.29160(5) -0.51794(3) -0.355486(18)
Zn2B Zn 0.29160(5) 0.01794(3) 0.144514(18)
O3A O 0.6200(4) 0.0504(2) -0.21395(14)
O4A O 0.7204(4) -0.0168(2) -0.26621(16)
O5_2 O 0.9206(4) -0.1550(2) -0.19071(14)
O6_2 O 0.8977(4) -0.0590(2) -0.12908(14)
O7B O 0.7675(4) 0.0473(2) -0.07295(14)
loop_
_geom_bond_atom_site_label_1
_geom_bond_atom_site_label_2
_geom_bond_site_symmetry_1
_geom_bond_site_symmetry_2
Zn1 O1 1_555 1_555
Zn2 O2 1_555 1_555
O1 C7 1_555 1_555
O2 C7 1_555 1_555
O3 C8 1_555 1_555
O4 C8 1_555 1_555
O5 C15 1_555 1_555
O6 C15 1_555 1_555
O7 C16 1_555 1_555
O8 C16 1_555 1_555
O9 C1 1_555 1_555
C1 C2 1_555 1_555
C2 H1 1_555 1_555
C3 C2 1_555 1_555
C4 C3 1_555 1_555
H2 C4 1_555 1_555
C5 C4 1_555 1_555
C6 C1 1_555 1_555
H3 C6 1_555 1_555
C7 C3 1_555 1_555
C8 C5 1_555 1_555
C9 O9 1_555 1_555
C10 C9 1_555 1_555
H4 C10 1_555 1_555
C11 C10 1_555 1_555
C12 C11 1_555 1_555
H5 C12 1_555 1_555
C13 C12 1_555 1_555
C14 C9 1_555 1_555
H6 C14 1_555 1_555
C15 C11 1_555 1_555
C16 C13 1_555 1_555
O10 Zn1 1_555 1_555
N1 C17 1_555 1_555
C17 O10 1_555 1_555
H7 C17 1_555 1_555
C18 N1 1_555 1_555
H8 C18 1_555 1_555
H9 C18 1_555 1_555
H10 C18 1_555 1_555
C19 N1 1_555 1_555
H11 C19 1_555 1_555
H12 C19 1_555 1_555
H13 C19 1_555 1_555
O11 Zn1 1_555 1_555
N2 C20 1_555 1_555
C20 O11 1_555 1_555
H14 C20 1_555 1_555
C21 N2 1_555 1_555
H15 C21 1_555 1_555
H16 C21 1_555 1_555
H17 C21 1_555 1_555
C22 N2 1_555 1_555
H18 C22 1_555 1_555
H19 C22 1_555 1_555
H20 C22 1_555 1_555
O12 Zn1 1_555 1_555
H21 O12 1_555 1_555
H22 O12 1_555 1_555
O13 C23 1_555 1_555
N3 C23 1_555 1_555
C23 H23 1_555 1_555
C24 N3 1_555 1_555
H24 C24 1_555 1_555
H25 C24 1_555 1_555
H26 C24 1_555 1_555
C25 N3 1_555 1_555
H27 C25 1_555 1_555
H28 C25 1_555 1_555
H29 C25 1_555 1_555
O14 C26 1_555 1_555
N4 C26 1_555 1_555
C26 H30 1_555 1_555
C27 N4 1_555 1_555
H31 C27 1_555 1_555
H32 C27 1_555 1_555
H33 C27 1_555 1_555
C28 N4 1_555 1_555
H34 C28 1_555 1_555
H35 C28 1_555 1_555
H36 C28 1_555 1_555
Zn1_2 O5 1_555 1_555
Zn1A O4 1_555 1_555
Zn2_2 O6 1_555 1_555
Zn2A O3 1_555 1_555
Zn2B O7 1_555 1_555
O3A Zn2 1_555 1_555
O4A Zn1 1_555 1_555
O5_2 Zn1 1_555 1_555
O6_2 Zn2 1_555 1_555
O7B Zn2 1_555 1_555
C5 C6 1_555 1_555
C13 C14 1_555 1_555

#END
