
#######################################################################
#
#                 Cambridge Crystallographic Data Centre
#                                CCDC 
#
#######################################################################
#
# If this CIF has been generated from an entry in the Cambridge 
# Structural Database, then it will include bibliographic, chemical, 
# crystal, experimental, refinement or atomic coordinate data resulting 
# from the CCDC's data processing and validation procedures.
#
#######################################################################

data_FUDHAP
_symmetry_cell_setting           orthorhombic
_symmetry_space_group_name_H-M   'P 21 21 21'
_symmetry_Int_Tables_number      19
_space_group_name_Hall           'P 2ac 2ab'
loop_
_symmetry_equiv_pos_site_id
_symmetry_equiv_pos_as_xyz
1 x,y,z
2 1/2-x,-y,1/2+z
3 -x,1/2+y,1/2-z
4 1/2+x,1/2-y,-z
_cell_length_a                   10.1170(11)
_cell_length_b                   16.767(2)
_cell_length_c                   22.415(2)
_cell_angle_alpha                90
_cell_angle_beta                 90
_cell_angle_gamma                90
_cell_volume                     3802.3
loop_
_atom_site_label
_atom_site_type_symbol
_atom_site_fract_x
_atom_site_fract_y
_atom_site_fract_z
Co1 Co 0.98150(9) 0.88472(7) 0.63937(5)
Co2 Co 0.76740(9) 0.83612(7) 0.75616(5)
N1 N 0.8884(14) 0.7058(8) 0.9157(5)
N2 N 0.502(2) 0.9865(11) 0.8306(8)
O1 O 1.0013(5) 0.9776(3) 0.9508(2)
O2 O 0.9503(4) 0.8925(3) 0.7368(3)
O3 O 1.0155(6) 0.9944(4) 0.6873(2)
O4 O 1.1565(6) 1.2387(4) 0.7863(2)
O5 O 1.0500(5) 1.2699(3) 0.8711(3)
O6 O 1.3898(5) 1.0790(4) 1.0692(3)
O7 O 1.3047(5) 1.1335(3) 1.1491(2)
O8 O 0.6910(5) 1.0774(4) 1.1040(2)
O9 O 0.8180(5) 1.1180(4) 1.1811(3)
O10 O 0.5829(6) 0.7792(4) 0.7658(3)
O11 O 0.8379(6) 0.7859(4) 0.8377(3)
O12 O 0.6946(6) 0.9325(4) 0.8037(3)
C1 C 1.0150(7) 1.0188(4) 0.8982(3)
C2 C 0.9970(7) 0.9761(4) 0.8471(3)
H1 H 0.9720 0.9229 0.8502
C3 C 1.0135(8) 1.0074(5) 0.7932(3)
C4 C 1.0517(7) 1.0865(5) 0.7888(4)
H2 H 1.0678 1.1086 0.7515
C5 C 1.0663(7) 1.1332(5) 0.8400(4)
C6 C 1.0430(7) 1.0986(5) 0.8946(4)
H3 H 1.0462 1.1294 0.9290
C7 C 1.0170(9) 1.0192(5) 1.0028(4)
C8 C 0.9077(8) 1.0388(5) 1.0379(3)
H4 H 0.8237 1.0276 1.0233
C9 C 0.9182(7) 1.0728(5) 1.0913(3)
C10 C 1.0450(6) 1.0941(5) 1.1130(3)
H5 H 1.0544 1.1192 1.1498
C11 C 1.1566(7) 1.0761(5) 1.0777(4)
C12 C 1.1436(7) 1.0383(4) 1.0257(3)
H6 H 1.2187 1.0243 1.0041
C13 C 0.9902(7) 0.9638(5) 0.7359(4)
C14 C 1.0926(7) 1.2207(6) 0.8323(4)
C15 C 0.8015(7) 1.0916(5) 1.1315(4)
C16 C 1.2929(7) 1.0978(5) 1.1017(4)
C17 C 0.8293(11) 0.7219(7) 0.8628(6)
C18 C 0.7536(10) 0.6574(7) 0.8408(4)
H7 H 0.7598 0.6132 0.8679
H8 H 0.7867 0.6417 0.8024
H9 H 0.6629 0.6734 0.8371
C19 C 0.9711(17) 0.7768(10) 0.9403(5)
H10 H 1.0090 0.7623 0.9780
H11 H 0.9150 0.8224 0.9454
H12 H 1.0404 0.7894 0.9126
C20 C 0.894(2) 0.6356(8) 0.9525(8)
H13 H 0.9496 0.6457 0.9864
H14 H 0.9297 0.5921 0.9298
H15 H 0.8067 0.6222 0.9658
C21 C 0.6009(17) 0.9532(10) 0.8435(8)
C22 C 0.6144(14) 0.9341(10) 0.9079(7)
H16 H 0.7001 0.9115 0.9152
H17 H 0.5474 0.8965 0.9192
H18 H 0.6044 0.9820 0.9309
C23 C 0.3940(12) 1.0001(9) 0.8792(7)
H19 H 0.3186 1.0256 0.8614
H20 H 0.4289 1.0334 0.9102
H21 H 0.3679 0.9497 0.8957
C24 C 0.4907(15) 1.0015(7) 0.7668(7)
H22 H 0.4069 1.0260 0.7586
H23 H 0.4969 0.9520 0.7455
H24 H 0.5606 1.0364 0.7543
Co1A Co 0.51850(9) 1.11528(7) 1.13937(5)
Co1A_2 Co 1.51850(9) 1.11528(7) 1.13937(5)
Co1B Co 1.01850(9) 1.38472(7) 0.86063(5)
Co2A Co 0.73260(9) 1.16388(7) 1.25616(5)
Co2B Co 1.23260(9) 1.33612(7) 0.74384(5)
O4B O 0.8435(6) 0.7387(4) 0.7137(2)
O5B O 0.9500(5) 0.7699(3) 0.6289(3)
O6A O 1.1102(5) 0.9210(4) 0.5692(3)
O7A O 1.1953(5) 0.8665(3) 0.6491(2)
O8A O 0.8090(5) 0.9226(4) 0.6040(2)
O9A O 0.6820(5) 0.8820(4) 0.6811(3)
loop_
_geom_bond_atom_site_label_1
_geom_bond_atom_site_label_2
_geom_bond_site_symmetry_1
_geom_bond_site_symmetry_2
Co1 O2 1_555 1_555
Co2 O2 1_555 1_555
N1 C17 1_555 1_555
N2 C21 1_555 1_555
O1 C1 1_555 1_555
O2 C13 1_555 1_555
O3 Co1 1_555 1_555
O4 C14 1_555 1_555
O5 C14 1_555 1_555
O6 C16 1_555 1_555
O7 C16 1_555 1_555
O8 C15 1_555 1_555
O9 C15 1_555 1_555
O10 Co2 1_555 1_555
O11 Co2 1_555 1_555
O12 Co2 1_555 1_555
C1 C2 1_555 1_555
C2 H1 1_555 1_555
C3 C2 1_555 1_555
C4 C3 1_555 1_555
H2 C4 1_555 1_555
C5 C4 1_555 1_555
C6 C1 1_555 1_555
H3 C6 1_555 1_555
C7 O1 1_555 1_555
C8 C7 1_555 1_555
H4 C8 1_555 1_555
C9 C8 1_555 1_555
C10 C9 1_555 1_555
H5 C10 1_555 1_555
C11 C10 1_555 1_555
C12 C7 1_555 1_555
H6 C12 1_555 1_555
C13 O3 1_555 1_555
C14 C5 1_555 1_555
C15 C9 1_555 1_555
C16 C11 1_555 1_555
C17 O11 1_555 1_555
C18 C17 1_555 1_555
H7 C18 1_555 1_555
H8 C18 1_555 1_555
H9 C18 1_555 1_555
C19 N1 1_555 1_555
H10 C19 1_555 1_555
H11 C19 1_555 1_555
H12 C19 1_555 1_555
C20 N1 1_555 1_555
H13 C20 1_555 1_555
H14 C20 1_555 1_555
H15 C20 1_555 1_555
C21 O12 1_555 1_555
C22 C21 1_555 1_555
H16 C22 1_555 1_555
H17 C22 1_555 1_555
H18 C22 1_555 1_555
C23 N2 1_555 1_555
H19 C23 1_555 1_555
H20 C23 1_555 1_555
H21 C23 1_555 1_555
C24 N2 1_555 1_555
H22 C24 1_555 1_555
H23 C24 1_555 1_555
H24 C24 1_555 1_555
Co1A O8 1_555 1_555
Co1A_2 O6 1_555 1_555
Co1B O5 1_555 1_555
Co2A O9 1_555 1_555
Co2B O4 1_555 1_555
O4B Co2 1_555 1_555
O5B Co1 1_555 1_555
O6A Co1 1_555 1_555
O7A Co1 1_555 1_555
O8A Co1 1_555 1_555
O9A Co2 1_555 1_555
O7 Co1A_2 1_555 1_555
C3 C13 1_555 1_555
C5 C6 1_555 1_555
C11 C12 1_555 1_555

#END
