
#######################################################################
#
#                 Cambridge Crystallographic Data Centre
#                                CCDC 
#
#######################################################################
#
# If this CIF has been generated from an entry in the Cambridge 
# Structural Database, then it will include bibliographic, chemical, 
# crystal, experimental, refinement or atomic coordinate data resulting 
# from the CCDC's data processing and validation procedures.
#
#######################################################################

data_FUDQIF
_symmetry_cell_setting           tetragonal
_symmetry_space_group_name_H-M   'P 4/m m m'
_symmetry_Int_Tables_number      123
_space_group_name_Hall           '-P 4 2'
loop_
_symmetry_equiv_pos_site_id
_symmetry_equiv_pos_as_xyz
1 x,y,z
2 -x,-y,z
3 -y,x,z
4 y,-x,z
5 -x,y,-z
6 x,-y,-z
7 y,x,-z
8 -y,-x,-z
9 -x,-y,-z
10 x,y,-z
11 y,-x,-z
12 -y,x,-z
13 x,-y,z
14 -x,y,z
15 -y,-x,z
16 y,x,z
_cell_length_a                   7.1409(10)
_cell_length_b                   7.1409(10)
_cell_length_c                   7.6068(15)
_cell_angle_alpha                90
_cell_angle_beta                 90
_cell_angle_gamma                90
_cell_volume                     387.889
loop_
_atom_site_label
_atom_site_type_symbol
_atom_site_fract_x
_atom_site_fract_y
_atom_site_fract_z
Zn1 Zn 0.5000 0.5000 0.5000
F1 F 0.5000 0.5000 0.2296(7)
F2 F 0.3359(4) 0.3359(4) 0.0000
N1 N 0.5000 0.1958(8) 0.5000
C1 C 0.5000 0.0986(8) 0.3555(7)
H1 H 0.5000 0.1614 0.2485
Si1 Si 0.5000 0.5000 0.0000
Zn1_2 Zn 0.5000 0.5000 -0.5000
Zn1_3 Zn 0.5000 -0.5000 0.5000
Zn1_4 Zn 1.5000 0.5000 0.5000
F1D F 0.5000 0.5000 -0.2296(7)
F1D_2 F 0.5000 0.5000 0.7704(7)
F2A F 0.6641(4) 0.6641(4) 0.0000
F2B F 0.6641(4) 0.3359(4) 0.0000
F2C F 0.3359(4) 0.6641(4) 0.0000
N1A N 0.5000 -0.1958(8) 0.5000
N1B N 0.8042(8) 0.5000 0.5000
N1C N 1.1958(8) 0.5000 0.5000
N1A_2 N 0.5000 0.8042(8) 0.5000
N1C_2 N 0.1958(8) 0.5000 0.5000
C1A C 0.5000 -0.0986(8) 0.3555(7)
C1E C 0.5000 -0.0986(8) 0.6445(7)
C1D C 0.5000 0.0986(8) 0.6445(7)
C1B C 0.9014(8) 0.5000 0.3555(7)
C1C C 1.0986(8) 0.5000 0.3555(7)
C1F C 1.0986(8) 0.5000 0.6445(7)
C1G C 0.9014(8) 0.5000 0.6445(7)
H1E H 0.5000 -0.1614 0.7515
H1D H 0.5000 0.1614 0.7515
H1A H 0.5000 -0.1614 0.2485
H1B H 0.8386 0.5000 0.2485
H1F H 1.1614 0.5000 0.7515
H1G H 0.8386 0.5000 0.7515
H1C H 1.1614 0.5000 0.2485
loop_
_geom_bond_atom_site_label_1
_geom_bond_atom_site_label_2
_geom_bond_site_symmetry_1
_geom_bond_site_symmetry_2
Zn1 F1 1_555 1_555
F1 Si1 1_555 1_555
F2 Si1 1_555 1_555
N1 Zn1 1_555 1_555
C1 N1 1_555 1_555
H1 C1 1_555 1_555
Si1 F1D 1_555 1_555
Zn1_2 F1D 1_555 1_555
Zn1_3 N1A 1_555 1_555
Zn1_4 N1C 1_555 1_555
F1D_2 Zn1 1_555 1_555
F2A Si1 1_555 1_555
F2B Si1 1_555 1_555
F2C Si1 1_555 1_555
N1A C1A 1_555 1_555
N1B Zn1 1_555 1_555
N1C C1C 1_555 1_555
N1A_2 Zn1 1_555 1_555
N1C_2 Zn1 1_555 1_555
C1A C1 1_555 1_555
C1E N1A 1_555 1_555
C1D N1 1_555 1_555
C1B N1B 1_555 1_555
C1C C1B 1_555 1_555
C1F N1C 1_555 1_555
C1G N1B 1_555 1_555
H1E C1E 1_555 1_555
H1D C1D 1_555 1_555
H1A C1A 1_555 1_555
H1B C1B 1_555 1_555
H1F C1F 1_555 1_555
H1G C1G 1_555 1_555
H1C C1C 1_555 1_555
C1E C1D 1_555 1_555
C1F C1G 1_555 1_555

#END
