
#######################################################################
#
#                 Cambridge Crystallographic Data Centre
#                                CCDC 
#
#######################################################################
#
# If this CIF has been generated from an entry in the Cambridge 
# Structural Database, then it will include bibliographic, chemical, 
# crystal, experimental, refinement or atomic coordinate data resulting 
# from the CCDC's data processing and validation procedures.
#
#######################################################################

data_FUFBEP
_symmetry_cell_setting           triclinic
_symmetry_space_group_name_H-M   'P -1'
_symmetry_Int_Tables_number      2
_space_group_name_Hall           '-P 1'
loop_
_symmetry_equiv_pos_site_id
_symmetry_equiv_pos_as_xyz
1 x,y,z
2 -x,-y,-z
_cell_length_a                   10.033(2)
_cell_length_b                   10.751(2)
_cell_length_c                   15.079(3)
_cell_angle_alpha                89.06(3)
_cell_angle_beta                 85.07(3)
_cell_angle_gamma                67.71(3)
_cell_volume                     1499.16
loop_
_atom_site_label
_atom_site_type_symbol
_atom_site_fract_x
_atom_site_fract_y
_atom_site_fract_z
Cu1 Cu 0.24821(9) 1.00035(9) 1.00198(6)
P1 P 0.5806(2) 0.8156(2) 0.97424(15)
P2 P 0.9172(2) 0.1850(2) 1.02578(15)
O1 O 0.4242(6) 0.8409(6) 0.9933(5)
O2 O 0.6439(6) 0.8893(6) 1.0311(4)
O3 O 0.6177(6) 0.8459(6) 0.8745(4)
O4 O 0.8599(6) 0.1097(6) 0.9657(4)
O5 O 1.0744(6) 0.1604(6) 1.0110(5)
O6 O 0.8732(6) 0.1521(6) 1.1233(4)
C1 C 0.6753(9) 0.6371(9) 0.9892(6)
C2 C 0.7982(9) 0.5939(9) 1.0356(6)
H1 H 0.8320 0.6569 1.0591
C3 C 0.8714(9) 0.4557(9) 1.0472(6)
H2 H 0.9546 0.4250 1.0798
C4 C 0.8236(10) 0.3623(9) 1.0112(6)
C5 C 0.7012(9) 0.4075(9) 0.9649(6)
H3 H 0.6664 0.3450 0.9416
C6 C 0.6290(10) 0.5449(9) 0.9525(6)
H4 H 0.5475 0.5755 0.9185
C7 C 0.5292(12) 0.8452(11) 0.8024(7)
H5 H 0.4398 0.8326 0.8278
C8 C 0.6127(13) 0.7332(12) 0.7379(8)
H6 H 0.5528 0.7333 0.6899
H7 H 0.7001 0.7457 0.7129
H8 H 0.6399 0.6473 0.7687
C9 C 0.4878(16) 0.9818(12) 0.7600(8)
H9 H 0.4281 0.9865 0.7109
H10 H 0.4331 1.0519 0.8045
H11 H 0.5755 0.9955 0.7369
C10 C 0.9076(12) 0.2047(11) 1.2031(7)
H12 H 0.8871 0.3026 1.1954
C11 C 0.8076(13) 0.1886(12) 1.2783(8)
H13 H 0.8267 0.2227 1.3337
H14 H 0.7072 0.2393 1.2658
H15 H 0.8236 0.0932 1.2845
C12 C 1.0599(13) 0.135(2) 1.2202(9)
H16 H 1.0788 0.1732 1.2742
H17 H 1.0808 0.0392 1.2284
H18 H 1.1219 0.1468 1.1696
Cu1_2 Cu 1.24821(9) 0.00035(9) 1.00198(6)
Cu1A Cu 0.75179(9) -0.00035(9) 0.99802(6)
Cu1A_2 Cu 0.75179(9) 0.99965(9) 0.99802(6)
O2A O 0.3561(6) 1.1107(6) 0.9689(4)
O4A O 0.1401(6) 0.8903(6) 1.0343(4)
O5_2 O 0.0744(6) 1.1604(6) 1.0110(5)
Cu2 Cu 0.74872(9) 0.50182(9) 0.49934(6)
P3 P 0.4232(2) 0.6829(2) 0.47295(15)
P4 P 0.0757(2) 1.3171(2) 0.52160(15)
O7 O 0.5804(6) 0.6599(6) 0.4861(4)
O8 O 0.3505(6) 0.6117(5) 0.5332(4)
O9 O 0.4044(6) 0.6454(6) 0.3752(4)
O10 O 0.1543(6) 1.3859(6) 0.4634(4)
O11 O -0.0803(7) 1.3433(6) 0.5056(5)
O12 O 0.0923(6) 1.3523(6) 0.6199(4)
C13 C 0.3235(9) 0.8618(8) 0.4850(6)
C14 C 0.3784(9) 0.9369(8) 0.5349(6)
H19 H 0.4672 0.8938 0.5608
C15 C 0.3039(10) 1.0734(8) 0.5466(6)
H20 H 0.3420 1.1240 0.5805
C16 C 0.1732(9) 1.1383(8) 0.5092(6)
C17 C 0.1197(9) 1.0630(8) 0.4577(6)
H21 H 0.0324 1.1060 0.4302
C18 C 0.1942(10) 0.9269(8) 0.4473(6)
H22 H 0.1562 0.8761 0.4135
C19 C 0.4768(12) 0.6812(11) 0.2979(7)
H23 H 0.5207 0.7451 0.3162
C20 C 0.3675(14) 0.7483(13) 0.2336(8)
H24 H 0.4148 0.7733 0.1807
H25 H 0.3230 0.6864 0.2163
H26 H 0.2928 0.8292 0.2617
C21 C 0.5937(17) 0.5564(17) 0.2588(9)
H27 H 0.6438 0.5794 0.2062
H28 H 0.6629 0.5151 0.3031
H29 H 0.5512 0.4930 0.2416
C22 C -0.0055(12) 1.3515(11) 0.6960(7)
H30 H -0.1020 1.3657 0.6750
C23 C 0.049(2) 1.2197(15) 0.7415(10)
H31 H -0.0180 1.2208 0.7929
H32 H 0.0576 1.1476 0.6999
H33 H 0.1446 1.2040 0.7618
C24 C -0.0211(15) 1.4683(14) 0.7546(9)
H34 H -0.0868 1.4716 0.8073
H35 H 0.0738 1.4578 0.7732
H36 H -0.0605 1.5519 0.7216
Cu2_2 Cu -0.25128(9) 1.50182(9) 0.49934(6)
Cu2A Cu 0.25128(9) 0.49818(9) 0.50066(6)
Cu2A_2 Cu 0.25128(9) 1.49818(9) 0.50066(6)
O8A O 0.6495(6) 0.3883(5) 0.4668(4)
O10A O 0.8457(6) 0.6141(6) 0.5366(4)
O11_2 O 0.9197(7) 0.3433(6) 0.5056(5)
loop_
_geom_bond_atom_site_label_1
_geom_bond_atom_site_label_2
_geom_bond_site_symmetry_1
_geom_bond_site_symmetry_2
Cu1 O1 1_555 1_555
P1 O1 1_555 1_555
P2 O4 1_555 1_555
O2 P1 1_555 1_555
O3 P1 1_555 1_555
O4 Cu1A 1_555 1_555
O5 P2 1_555 1_555
O6 P2 1_555 1_555
C1 P1 1_555 1_555
C2 C1 1_555 1_555
H1 C2 1_555 1_555
C3 C2 1_555 1_555
H2 C3 1_555 1_555
C4 P2 1_555 1_555
C5 C4 1_555 1_555
H3 C5 1_555 1_555
C6 C1 1_555 1_555
H4 C6 1_555 1_555
C7 O3 1_555 1_555
H5 C7 1_555 1_555
C8 C7 1_555 1_555
H6 C8 1_555 1_555
H7 C8 1_555 1_555
H8 C8 1_555 1_555
C9 C7 1_555 1_555
H9 C9 1_555 1_555
H10 C9 1_555 1_555
H11 C9 1_555 1_555
C10 O6 1_555 1_555
H12 C10 1_555 1_555
C11 C10 1_555 1_555
H13 C11 1_555 1_555
H14 C11 1_555 1_555
H15 C11 1_555 1_555
C12 C10 1_555 1_555
H16 C12 1_555 1_555
H17 C12 1_555 1_555
H18 C12 1_555 1_555
Cu2 O7 1_555 1_555
P3 O7 1_555 1_555
P4 O10 1_555 1_555
O8 P3 1_555 1_555
O9 P3 1_555 1_555
O10 Cu2A_2 1_555 1_555
O11 P4 1_555 1_555
O12 P4 1_555 1_555
C13 P3 1_555 1_555
C14 C13 1_555 1_555
H19 C14 1_555 1_555
C15 C14 1_555 1_555
H20 C15 1_555 1_555
C16 P4 1_555 1_555
C17 C16 1_555 1_555
H21 C17 1_555 1_555
C18 C13 1_555 1_555
H22 C18 1_555 1_555
C19 O9 1_555 1_555
H23 C19 1_555 1_555
C20 C19 1_555 1_555
H24 C20 1_555 1_555
H25 C20 1_555 1_555
H26 C20 1_555 1_555
C21 C19 1_555 1_555
H27 C21 1_555 1_555
H28 C21 1_555 1_555
H29 C21 1_555 1_555
C22 O12 1_555 1_555
H30 C22 1_555 1_555
C23 C22 1_555 1_555
H31 C23 1_555 1_555
H32 C23 1_555 1_555
H33 C23 1_555 1_555
C24 C22 1_555 1_555
H34 C24 1_555 1_555
H35 C24 1_555 1_555
H36 C24 1_555 1_555
Cu1_2 O5 1_555 1_555
Cu1A_2 O2 1_555 1_555
O2A Cu1 1_555 1_555
O4A Cu1 1_555 1_555
O5_2 Cu1 1_555 1_555
Cu2_2 O11 1_555 1_555
Cu2A O8 1_555 1_555
O8A Cu2 1_555 1_555
O10A Cu2 1_555 1_555
O11_2 Cu2 1_555 1_555
C3 C4 1_555 1_555
C5 C6 1_555 1_555
C15 C16 1_555 1_555
C17 C18 1_555 1_555

#END
