
#######################################################################
#
#                 Cambridge Crystallographic Data Centre
#                                CCDC 
#
#######################################################################
#
# If this CIF has been generated from an entry in the Cambridge 
# Structural Database, then it will include bibliographic, chemical, 
# crystal, experimental, refinement or atomic coordinate data resulting 
# from the CCDC's data processing and validation procedures.
#
#######################################################################

data_FUFQUT
_symmetry_cell_setting           triclinic
_symmetry_space_group_name_H-M   'P -1'
_symmetry_Int_Tables_number      2
_space_group_name_Hall           '-P 1'
loop_
_symmetry_equiv_pos_site_id
_symmetry_equiv_pos_as_xyz
1 x,y,z
2 -x,-y,-z
_cell_length_a                   8.968(2)
_cell_length_b                   15.964(3)
_cell_length_c                   19.737(3)
_cell_angle_alpha                77.56(3)
_cell_angle_beta                 85.31(2)
_cell_angle_gamma                81.57(2)
_cell_volume                     2725.81
loop_
_atom_site_label
_atom_site_type_symbol
_atom_site_fract_x
_atom_site_fract_y
_atom_site_fract_z
Cu1 Cu 0.16269(3) 0.917179(19) 0.019368(15)
Cu2 Cu 1.30519(3) 0.44284(2) -0.325835(16)
Cl3 Cl 0.32715(10) 0.96608(5) -0.58285(4)
N1 N 0.0766(2) 0.96831(12) -0.07575(10)
N2 N -0.0727(2) 1.00676(13) -0.08650(10)
N3 N 0.0395(2) 0.99189(13) -0.18685(10)
N4 N 0.0539(2) 1.00121(13) -0.25974(10)
N5 N 0.3832(2) 0.87546(13) 0.00409(10)
N6 N 0.7418(2) 0.69357(15) -0.11193(12)
N7 N 0.7450(2) 0.63020(15) -0.15267(11)
N8 N 1.0869(2) 0.48051(13) -0.30048(10)
N9 N 0.0532(2) 0.80614(13) 0.05888(10)
N10 N -0.0168(3) 0.52642(14) 0.02456(11)
N11 N 1.4548(2) 0.52455(14) -0.37069(11)
N12 N 1.9494(2) 0.52318(15) -0.47870(11)
N13 N 1.4012(2) 0.39394(13) -0.22935(10)
N14 N 1.5163(3) 0.46598(14) -0.01821(11)
N15 N 1.3211(2) 0.34190(15) -0.37124(11)
C1 C 0.1780(3) 0.96424(16) -0.28242(13)
H1 H 0.2505 0.9334 -0.2504
C2 C 0.2106(3) 0.96864(17) -0.35692(13)
C3 C 0.3367(3) 0.9162(2) -0.37702(14)
H2 H 0.3985 0.8800 -0.3425
C4 C 0.3738(4) 0.9155(2) -0.44617(15)
H3 H 0.4596 0.8790 -0.4594
C5 C 0.2846(3) 0.96862(19) -0.49543(13)
C6 C 0.1623(3) 1.02416(19) -0.47764(14)
H4 H 0.1046 1.0627 -0.5125
C7 C 0.1250(3) 1.02278(18) -0.40765(13)
H5 H 0.0393 1.0596 -0.3947
C8 C -0.0911(3) 1.01912(16) -0.15317(12)
H6 H -0.1827 1.0436 -0.1749
C9 C 0.1400(3) 0.96099(15) -0.13659(12)
H7 H 0.2418 0.9374 -0.1445
C10 C 0.4931(3) 0.90222(16) 0.03333(12)
H8 H 0.4653 0.9405 0.0644
C11 C 0.6446(3) 0.87631(18) 0.02014(14)
H9 H 0.7190 0.8982 0.0406
C12 C 0.6868(3) 0.81871(18) -0.02277(14)
H10 H 0.7905 0.8009 -0.0328
C13 C 0.5754(3) 0.78674(16) -0.05149(13)
C14 C 0.4263(3) 0.81863(16) -0.03765(12)
H11 H 0.3500 0.7993 -0.0588
C15 C 0.6070(3) 0.72087(17) -0.09410(13)
H12 H 0.5256 0.6982 -0.1086
C16 C 0.8749(3) 0.61496(18) -0.18222(13)
H13 H 0.9538 0.6455 -0.1754
C17 C 0.9045(3) 0.55133(17) -0.22642(13)
C18 C 0.7991(3) 0.49922(18) -0.23528(14)
H14 H 0.7015 0.5045 -0.2127
C19 C 0.8379(3) 0.43984(18) -0.27722(14)
H15 H 0.7665 0.4045 -0.2844
C20 C 0.9819(3) 0.43191(17) -0.30887(13)
H16 H 1.0073 0.3906 -0.3375
C21 C 1.0452(3) 0.53998(17) -0.26054(12)
H17 H 1.1169 0.5763 -0.2555
C22 C -0.0246(3) 0.79312(16) 0.12058(13)
H18 H -0.0373 0.8377 0.1464
C23 C -0.0870(3) 0.71803(17) 0.14846(14)
H19 H -0.1416 0.7118 0.1922
C24 C -0.0689(3) 0.65233(17) 0.11200(14)
H20 H -0.1096 0.5999 0.1305
C25 C 0.0105(3) 0.66408(16) 0.04697(13)
C26 C 0.0670(3) 0.74235(16) 0.02340(13)
H21 H 0.1190 0.7513 -0.0209
C27 C 0.0336(3) 0.59917(16) 0.00370(14)
H22 H 0.0866 0.6110 -0.0403
C28 C 1.4670(3) 0.59600(18) -0.34734(14)
H23 H 1.3883 0.6154 -0.3168
C29 C 1.5864(3) 0.64295(19) -0.36490(15)
H24 H 1.5888 0.6937 -0.3474
C30 C 1.7030(3) 0.61502(19) -0.40848(15)
H25 H 1.7875 0.6457 -0.4209
C31 C 1.6942(3) 0.54092(18) -0.43389(14)
C32 C 1.5666(3) 0.49854(18) -0.41434(13)
H26 H 1.5586 0.4491 -0.4327
C33 C 1.8166(3) 0.50261(18) -0.47639(14)
H27 H 1.7968 0.4622 -0.5024
C34 C 1.4824(3) 0.31561(17) -0.21313(13)
H28 H 1.4825 0.2765 -0.2432
C35 C 1.5660(3) 0.28901(17) -0.15461(14)
H29 H 1.6253 0.2337 -0.1461
C36 C 1.5627(3) 0.34347(17) -0.10860(14)
H30 H 1.6199 0.3266 -0.0683
C37 C 1.4732(3) 0.42393(16) -0.12270(13)
C38 C 1.3982(3) 0.44586(17) -0.18416(13)
H31 H 1.3408 0.5016 -0.1949
C39 C 1.4557(3) 0.48530(18) -0.07611(13)
H32 H 1.3980 0.5405 -0.0897
C40 C 1.3301(3) 0.28263(19) -0.39499(14)
C41 C 1.3442(3) 0.2062(2) -0.42555(18)
H33 H 1.4471 0.1952 -0.4455
H34 H 1.2723 0.2159 -0.4622
H35 H 1.3227 0.1561 -0.3895
Cu1A Cu -0.16269(3) 1.082821(19) -0.019368(15)
Cu1A_2 Cu -0.16269(3) 0.082821(19) -0.019368(15)
Cu2A Cu -1.30519(3) 1.55716(2) 0.325835(16)
Cu2A_2 Cu 2.69481(3) 0.55716(2) -0.674165(16)
Cu2A_3 Cu 1.69481(3) 0.55716(2) 0.325835(16)
Cl3A Cl -0.32715(10) 1.03392(5) 0.58285(4)
N1A N -0.0766(2) 1.03169(12) 0.07575(10)
N2A N 0.0727(2) 0.99324(13) 0.08650(10)
N3A N -0.0395(2) 1.00811(13) 0.18685(10)
N4A N -0.0539(2) 0.99879(13) 0.25974(10)
N5A N -0.3832(2) 1.12454(13) -0.00409(10)
N6A N -0.7418(2) 1.30643(15) 0.11193(12)
N7A N -0.7450(2) 1.36980(15) 0.15267(11)
N8A N -1.0869(2) 1.51949(13) 0.30048(10)
N9A N -0.0532(2) 0.19386(13) -0.05888(10)
N9A_2 N -0.0532(2) 1.19386(13) -0.05888(10)
N10A N 0.0168(3) 0.47358(14) -0.02456(11)
N11A N 2.5452(2) 0.47545(14) -0.62931(11)
N11A_2 N -1.4548(2) 1.47545(14) 0.37069(11)
N12A N 2.0506(2) 0.47682(15) -0.52130(11)
N13A N 1.5988(2) 0.60606(13) 0.22935(10)
N13A_2 N -1.4012(2) 1.60606(13) 0.22935(10)
N14A N 1.4837(3) 0.53402(14) 0.01821(11)
N15A N -1.3211(2) 1.65810(15) 0.37124(11)
C1A C -0.1780(3) 1.03576(16) 0.28242(13)
H1A H -0.2505 1.0666 0.2504
C2A C -0.2106(3) 1.03136(17) 0.35692(13)
C3A C -0.3367(3) 1.0838(2) 0.37702(14)
H2A H -0.3985 1.1200 0.3425
C4A C -0.3738(4) 1.0845(2) 0.44617(15)
H3A H -0.4596 1.1210 0.4594
C5A C -0.2846(3) 1.03138(19) 0.49543(13)
C6A C -0.1623(3) 0.97584(19) 0.47764(14)
H4A H -0.1046 0.9373 0.5125
C7A C -0.1250(3) 0.97722(18) 0.40765(13)
H5A H -0.0393 0.9404 0.3947
C8A C 0.0911(3) 0.98088(16) 0.15317(12)
H6A H 0.1827 0.9564 0.1749
C9A C -0.1400(3) 1.03901(15) 0.13659(12)
H7A H -0.2418 1.0626 0.1445
C10A C -0.4931(3) 1.09778(16) -0.03333(12)
H8A H -0.4653 1.0595 -0.0644
C11A C -0.6446(3) 1.12369(18) -0.02014(14)
H9A H -0.7190 1.1018 -0.0406
C12A C -0.6868(3) 1.18129(18) 0.02277(14)
H10A H -0.7905 1.1991 0.0328
C13A C -0.5754(3) 1.21326(16) 0.05149(13)
C14A C -0.4263(3) 1.18137(16) 0.03765(12)
H11A H -0.3500 1.2007 0.0588
C15A C -0.6070(3) 1.27913(17) 0.09410(13)
H12A H -0.5256 1.3018 0.1086
C16A C -0.8749(3) 1.38504(18) 0.18222(13)
H13A H -0.9538 1.3545 0.1754
C17A C -0.9045(3) 1.44867(17) 0.22642(13)
C18A C -0.7991(3) 1.50078(18) 0.23528(14)
H14A H -0.7015 1.4955 0.2127
C19A C -0.8379(3) 1.56016(18) 0.27722(14)
H15A H -0.7665 1.5955 0.2844
C20A C -0.9819(3) 1.56809(17) 0.30887(13)
H16A H -1.0073 1.6094 0.3375
C21A C -1.0452(3) 1.46002(17) 0.26054(12)
H17A H -1.1169 1.4237 0.2555
C22A C 0.0246(3) 0.20688(16) -0.12058(13)
H18A H 0.0373 0.1623 -0.1464
C23A C 0.0870(3) 0.28197(17) -0.14846(14)
H19A H 0.1416 0.2882 -0.1922
C24A C 0.0689(3) 0.34767(17) -0.11200(14)
H20A H 0.1096 0.4001 -0.1305
C25A C -0.0105(3) 0.33592(16) -0.04697(13)
C26A C -0.0670(3) 0.25765(16) -0.02340(13)
H21A H -0.1190 0.2487 0.0209
C27A C -0.0336(3) 0.40083(16) -0.00370(14)
H22A H -0.0866 0.3890 0.0403
C28A C 2.5330(3) 0.40400(18) -0.65266(14)
H23A H 2.6117 0.3846 -0.6832
C29A C 2.4136(3) 0.35705(19) -0.63510(15)
H24A H 2.4112 0.3063 -0.6526
C30A C 2.2970(3) 0.38498(19) -0.59152(15)
H25A H 2.2125 0.3543 -0.5791
C31A C 2.3058(3) 0.45908(18) -0.56611(14)
C32A C 2.4334(3) 0.50146(18) -0.58566(13)
H26A H 2.4414 0.5509 -0.5673
C33A C 2.1834(3) 0.49739(18) -0.52361(14)
H27A H 2.2032 0.5378 -0.4976
C34A C 1.5176(3) 0.68439(17) 0.21313(13)
H28A H 1.5175 0.7235 0.2432
C35A C 1.4340(3) 0.71099(17) 0.15461(14)
H29A H 1.3747 0.7663 0.1461
C36A C 1.4373(3) 0.65653(17) 0.10860(14)
H30A H 1.3801 0.6734 0.0683
C37A C 1.5268(3) 0.57607(16) 0.12270(13)
C38A C 1.6018(3) 0.55414(17) 0.18416(13)
H31A H 1.6592 0.4984 0.1949
C39A C 1.5443(3) 0.51470(18) 0.07611(13)
H32A H 1.6020 0.4595 0.0897
C40A C -1.3301(3) 1.71737(19) 0.39499(14)
C41A C -1.3442(3) 1.7938(2) 0.42555(18)
H33A H -1.4471 1.8048 0.4455
H34A H -1.2723 1.7841 0.4622
H35A H -1.3227 1.8439 0.3895
Cl1 Cl 0.53074(7) 0.93563(4) -0.78318(3)
O1 O 0.4122(2) 0.88963(12) -0.79485(11)
O2 O 0.6733(2) 0.88917(13) -0.79807(11)
O3 O 0.5143(2) 1.01889(13) -0.82937(12)
O4 O 0.5179(3) 0.94670(18) -0.71371(11)
Cl2 Cl 0.76143(8) 0.26159(4) 0.20450(3)
O5 O 0.6243(2) 0.22609(19) 0.22155(14)
O6 O 0.8488(3) 0.24653(16) 0.26468(11)
O7 O 0.7407(3) 0.35261(14) 0.17509(14)
O8 O 0.8449(4) 0.21807(17) 0.15522(13)
N16 N 1.6425(3) 0.30126(19) -0.48819(14)
C42 C 1.7444(4) 0.2906(2) -0.52511(16)
C43 C 1.8745(4) 0.2800(3) -0.57143(18)
H36 H 1.9088 0.3364 -0.5902
H37 H 1.8482 0.2556 -0.6097
H38 H 1.9555 0.2408 -0.5461
N17 N 0.9927(3) 0.2632(2) -0.40652(17)
C44 C 0.8956(4) 0.2361(2) -0.37081(18)
C45 C 0.7746(4) 0.2028(3) -0.32721(19)
H39 H 0.6784 0.2297 -0.3473
H40 H 0.7777 0.2157 -0.2810
H41 H 0.7843 0.1400 -0.3232
N18 N 0.2058(3) 1.2017(2) -0.62779(18)
C46 C 0.2155(3) 1.17429(19) -0.6767(2)
C47 C 0.2270(4) 1.1381(2) -0.73912(17)
H42 H 0.2206 1.0759 -0.7259
H43 H 0.3238 1.1475 -0.7644
H44 H 0.1442 1.1666 -0.7689
O9? O 0.9039(16) 0.2096(15) 0.2164(15)
O10? O 0.692(3) 0.3363(11) 0.2293(13)
O11? O 0.773(2) 0.2939(15) 0.1302(4)
loop_
_geom_bond_atom_site_label_1
_geom_bond_atom_site_label_2
_geom_bond_site_symmetry_1
_geom_bond_site_symmetry_2
Cu1 N1 1_555 1_555
Cu2 N8 1_555 1_555
Cl1 O1 1_555 1_555
Cl2 O5 1_555 1_555
Cl3 C5 1_555 1_555
O2 Cl1 1_555 1_555
O3 Cl1 1_555 1_555
O4 Cl1 1_555 1_555
O6 Cl2 1_555 1_555
O7 Cl2 1_555 1_555
O8 Cl2 1_555 1_555
N1 N2 1_555 1_555
N2 C8 1_555 1_555
N3 N4 1_555 1_555
N4 C1 1_555 1_555
N5 Cu1 1_555 1_555
N6 N7 1_555 1_555
N7 C16 1_555 1_555
N8 C20 1_555 1_555
N9 Cu1 1_555 1_555
N10 C27 1_555 1_555
N11 Cu2 1_555 1_555
N12 C33 1_555 1_555
N13 Cu2 1_555 1_555
N14 C39 1_555 1_555
N15 Cu2 1_555 1_555
N16 C42 1_555 1_555
N17 C44 1_555 1_555
N18 C46 1_555 1_555
C1 H1 1_555 1_555
C2 C1 1_555 1_555
C3 C2 1_555 1_555
H2 C3 1_555 1_555
C4 C3 1_555 1_555
H3 C4 1_555 1_555
C5 C4 1_555 1_555
C6 C5 1_555 1_555
H4 C6 1_555 1_555
C7 C2 1_555 1_555
H5 C7 1_555 1_555
C8 N3 1_555 1_555
H6 C8 1_555 1_555
C9 N1 1_555 1_555
H7 C9 1_555 1_555
C10 N5 1_555 1_555
H8 C10 1_555 1_555
C11 C10 1_555 1_555
H9 C11 1_555 1_555
C12 C11 1_555 1_555
H10 C12 1_555 1_555
C13 C12 1_555 1_555
C14 N5 1_555 1_555
H11 C14 1_555 1_555
C15 N6 1_555 1_555
H12 C15 1_555 1_555
C16 H13 1_555 1_555
C17 C16 1_555 1_555
C18 C17 1_555 1_555
H14 C18 1_555 1_555
C19 C18 1_555 1_555
H15 C19 1_555 1_555
C20 C19 1_555 1_555
H16 C20 1_555 1_555
C21 N8 1_555 1_555
H17 C21 1_555 1_555
C22 N9 1_555 1_555
H18 C22 1_555 1_555
C23 C22 1_555 1_555
H19 C23 1_555 1_555
C24 C23 1_555 1_555
H20 C24 1_555 1_555
C25 C24 1_555 1_555
C26 N9 1_555 1_555
H21 C26 1_555 1_555
C27 C25 1_555 1_555
H22 C27 1_555 1_555
C28 N11 1_555 1_555
H23 C28 1_555 1_555
C29 C28 1_555 1_555
H24 C29 1_555 1_555
C30 C29 1_555 1_555
H25 C30 1_555 1_555
C31 C30 1_555 1_555
C32 N11 1_555 1_555
H26 C32 1_555 1_555
C33 C31 1_555 1_555
H27 C33 1_555 1_555
C34 N13 1_555 1_555
H28 C34 1_555 1_555
C35 C34 1_555 1_555
H29 C35 1_555 1_555
C36 C35 1_555 1_555
H30 C36 1_555 1_555
C37 C36 1_555 1_555
C38 N13 1_555 1_555
H31 C38 1_555 1_555
C39 C37 1_555 1_555
H32 C39 1_555 1_555
C40 N15 1_555 1_555
C41 C40 1_555 1_555
H33 C41 1_555 1_555
H34 C41 1_555 1_555
H35 C41 1_555 1_555
C42 C43 1_555 1_555
C43 H36 1_555 1_555
H37 C43 1_555 1_555
H38 C43 1_555 1_555
C44 C45 1_555 1_555
C45 H39 1_555 1_555
H40 C45 1_555 1_555
H41 C45 1_555 1_555
C46 C47 1_555 1_555
C47 H42 1_555 1_555
H43 C47 1_555 1_555
H44 C47 1_555 1_555
Cu1A N2 1_555 1_555
Cu1A_2 N9A 1_555 1_555
Cu2A N8A 1_555 1_555
Cu2A_2 N11A 1_555 1_555
Cu2A_3 N13A 1_555 1_555
Cl3A C5A 1_555 1_555
N1A Cu1A 1_555 1_555
N2A Cu1 1_555 1_555
N3A N4A 1_555 1_555
N4A C1A 1_555 1_555
N5A Cu1A 1_555 1_555
N6A N7A 1_555 1_555
N7A C16A 1_555 1_555
N8A C20A 1_555 1_555
N9A C22A 1_555 1_555
N9A_2 Cu1A 1_555 1_555
N10A N10 1_555 1_555
N11A C28A 1_555 1_555
N11A_2 Cu2A 1_555 1_555
N12A N12 1_555 1_555
N13A C34A 1_555 1_555
N13A_2 Cu2A 1_555 1_555
N14A N14 1_555 1_555
N15A Cu2A 1_555 1_555
C1A H1A 1_555 1_555
C2A C1A 1_555 1_555
C3A C2A 1_555 1_555
H2A C3A 1_555 1_555
C4A C3A 1_555 1_555
H3A C4A 1_555 1_555
C5A C4A 1_555 1_555
C6A C5A 1_555 1_555
H4A C6A 1_555 1_555
C7A C2A 1_555 1_555
H5A C7A 1_555 1_555
C8A N2A 1_555 1_555
H6A C8A 1_555 1_555
C9A N1A 1_555 1_555
H7A C9A 1_555 1_555
C10A N5A 1_555 1_555
H8A C10A 1_555 1_555
C11A C10A 1_555 1_555
H9A C11A 1_555 1_555
C12A C11A 1_555 1_555
H10A C12A 1_555 1_555
C13A C12A 1_555 1_555
C14A N5A 1_555 1_555
H11A C14A 1_555 1_555
C15A N6A 1_555 1_555
H12A C15A 1_555 1_555
C16A H13A 1_555 1_555
C17A C16A 1_555 1_555
C18A C17A 1_555 1_555
H14A C18A 1_555 1_555
C19A C18A 1_555 1_555
H15A C19A 1_555 1_555
C20A C19A 1_555 1_555
H16A C20A 1_555 1_555
C21A N8A 1_555 1_555
H17A C21A 1_555 1_555
C22A H18A 1_555 1_555
C23A C22A 1_555 1_555
H19A C23A 1_555 1_555
C24A C23A 1_555 1_555
H20A C24A 1_555 1_555
C25A C24A 1_555 1_555
C26A N9A 1_555 1_555
H21A C26A 1_555 1_555
C27A N10A 1_555 1_555
H22A C27A 1_555 1_555
C28A H23A 1_555 1_555
C29A C28A 1_555 1_555
H24A C29A 1_555 1_555
C30A C29A 1_555 1_555
H25A C30A 1_555 1_555
C31A C30A 1_555 1_555
C32A N11A 1_555 1_555
H26A C32A 1_555 1_555
C33A N12A 1_555 1_555
H27A C33A 1_555 1_555
C34A H28A 1_555 1_555
C35A C34A 1_555 1_555
H29A C35A 1_555 1_555
C36A C35A 1_555 1_555
H30A C36A 1_555 1_555
C37A C36A 1_555 1_555
C38A N13A 1_555 1_555
H31A C38A 1_555 1_555
C39A N14A 1_555 1_555
H32A C39A 1_555 1_555
C40A N15A 1_555 1_555
C41A C40A 1_555 1_555
H33A C41A 1_555 1_555
H34A C41A 1_555 1_555
H35A C41A 1_555 1_555
N3 C9 1_555 1_555
C6 C7 1_555 1_555
C13 C14 1_555 1_555
C13 C15 1_555 1_555
C17 C21 1_555 1_555
C25 C26 1_555 1_555
C31 C32 1_555 1_555
C37 C38 1_555 1_555
N1A N2A 1_555 1_555
N3A C8A 1_555 1_555
N3A C9A 1_555 1_555
C6A C7A 1_555 1_555
C13A C14A 1_555 1_555
C13A C15A 1_555 1_555
C17A C21A 1_555 1_555
C25A C26A 1_555 1_555
C25A C27A 1_555 1_555
C31A C32A 1_555 1_555
C31A C33A 1_555 1_555
C37A C38A 1_555 1_555
C37A C39A 1_555 1_555

#END
