
#######################################################################
#
#                 Cambridge Crystallographic Data Centre
#                                CCDC 
#
#######################################################################
#
# If this CIF has been generated from an entry in the Cambridge 
# Structural Database, then it will include bibliographic, chemical, 
# crystal, experimental, refinement or atomic coordinate data resulting 
# from the CCDC's data processing and validation procedures.
#
#######################################################################

data_FUFSEF
_symmetry_cell_setting           monoclinic
_symmetry_space_group_name_H-M   'C 2/c'
_symmetry_Int_Tables_number      15
_space_group_name_Hall           '-C 2yn'
loop_
_symmetry_equiv_pos_site_id
_symmetry_equiv_pos_as_xyz
1 x,y,z
2 -x,y,1/2-z
3 1/2+x,1/2+y,z
4 1/2-x,1/2+y,1/2-z
5 -x,-y,-z
6 x,-y,1/2+z
7 1/2-x,1/2-y,-z
8 1/2+x,1/2-y,1/2+z
_cell_length_a                   20.843(2)
_cell_length_b                   9.4635(9)
_cell_length_c                   27.500(3)
_cell_angle_alpha                90
_cell_angle_beta                 106.0370(10)
_cell_angle_gamma                90
_cell_volume                     5213.22
loop_
_atom_site_label
_atom_site_type_symbol
_atom_site_fract_x
_atom_site_fract_y
_atom_site_fract_z
Y1 Y 0.312764(18) 0.69686(4) 0.284809(14)
Y2 Y 0.5000 0.26419(5) 0.2500
O1 O 0.38058(13) 0.8830(3) 0.27383(11)
O2 O 0.44444(14) 1.0683(3) 0.27255(11)
O3 O 0.40900(13) 0.5974(3) 0.27379(12)
O4 O 0.50121(14) 0.4714(3) 0.30156(12)
O5 O 0.32898(14) 0.4738(3) 0.32749(11)
O6 O 0.24925(14) 0.3377(3) 0.28051(10)
O7 O 0.21444(13) 0.0648(3) 0.28895(11)
O8 O 0.26655(13) -0.1267(3) 0.32565(10)
O9 O 0.20445(15) 0.6121(3) 0.28289(13)
O10 O 0.37889(17) 0.7253(3) 0.36841(12)
O11 O 0.38762(15) 0.3405(3) 0.23432(14)
O12 O 0.44835(19) 0.2141(3) 0.16600(12)
N1 N 0.55525(16) 0.9288(3) 0.33664(12)
N2 N 0.57345(16) 0.7002(3) 0.34483(13)
H1 H 0.5941 0.6216 0.3536
N3 N 0.7961(2) 0.9035(6) 0.45068(18)
N4 N 0.40031(17) 0.2483(3) 0.37553(13)
H2 H 0.4216 0.3269 0.3825
N5 N 0.37764(16) 0.0210(3) 0.37708(12)
N6 N 0.61614(19) 0.0418(4) 0.49559(14)
C1 C 0.43682(19) 0.9421(4) 0.28377(15)
C2 C 0.47020(19) 0.5856(4) 0.29637(15)
C3 C 0.50825(19) 0.7141(4) 0.31663(15)
C4 C 0.49758(19) 0.8592(4) 0.31155(15)
C5 C 0.59955(19) 0.8292(4) 0.35647(15)
C6 C 0.6679(2) 0.8550(5) 0.38860(16)
C7 C 0.7091(2) 0.7462(5) 0.4112(2)
H3 H 0.6943 0.6532 0.4059
C8 C 0.7720(3) 0.7747(6) 0.4414(2)
H4 H 0.7990 0.6993 0.4561
C9 C 0.7566(3) 1.0096(6) 0.4288(2)
H5 H 0.7724 1.1015 0.4351
C10 C 0.6933(3) 0.9892(5) 0.3973(2)
H6 H 0.6679 1.0662 0.3820
C11 C 0.30246(19) 0.3562(4) 0.31496(14)
C12 C 0.26417(19) 0.0046(4) 0.31747(14)
C13 C 0.32447(19) 0.0884(4) 0.34435(14)
C14 C 0.33812(19) 0.2319(4) 0.34276(15)
C15 C 0.42275(19) 0.1205(4) 0.39521(15)
C16 C 0.48942(19) 0.0946(4) 0.43045(15)
C17 C 0.5131(2) -0.0422(5) 0.44080(16)
H7 H 0.4871 -0.1191 0.4262
C18 C 0.5763(2) -0.0619(5) 0.47328(17)
H8 H 0.5917 -0.1541 0.4799
C19 C 0.5922(2) 0.1730(6) 0.48615(18)
H9 H 0.6188 0.2479 0.5020
C20 C 0.5296(2) 0.2033(5) 0.45383(17)
H10 H 0.5151 0.2963 0.4482
H12 H 0.405(3) 0.683(6) 0.388(2)
H13 H 0.379(3) 0.819(6) 0.379(2)
H14 H 0.200(3) 0.527(7) 0.277(2)
H15 H 0.442(3) 0.130(2) 0.1540(19)
H16 H 0.422(2) 0.269(5) 0.1442(16)
H17 H 0.169(3) 0.622(6) 0.264(2)
H19 H 0.386(3) 0.425(3) 0.246(2)
H20 H 0.361(3) 0.320(6) 0.204(2)
Y1A Y 0.687236(18) 0.69686(4) 0.215191(14)
Y1C Y 0.187236(18) 0.19686(4) 0.215191(14)
Y1_2 Y 0.312764(18) -0.30314(4) 0.284809(14)
Y1C_2 Y 0.187236(18) 1.19686(4) 0.215191(14)
Y2_2 Y 0.5000 1.26419(5) 0.2500
O1A O 0.61942(13) 0.8830(3) 0.22617(11)
O2A O 0.55556(14) 1.0683(3) 0.22745(11)
O2_2 O 0.44444(14) 0.0683(3) 0.27255(11)
O2A_2 O 0.55556(14) 0.0683(3) 0.22745(11)
O3A O 0.59100(13) 0.5974(3) 0.22621(12)
O4A O 0.49879(14) 0.4714(3) 0.19844(12)
O5C O 0.17102(14) 0.9738(3) 0.17251(11)
O5A O 0.67102(14) 0.4738(3) 0.17251(11)
O6C O 0.25075(14) 0.8377(3) 0.21949(10)
O6B O 0.74925(14) 0.8377(3) 0.28051(10)
O7C O 0.28556(13) 0.5648(3) 0.21105(11)
O7B O 0.71444(13) 0.5648(3) 0.28895(11)
O8C O 0.23345(13) 0.3733(3) 0.17435(10)
O8_2 O 0.26655(13) 0.8733(3) 0.32565(10)
O8A O 0.73345(13) 0.8733(3) 0.17435(10)
O9A O 0.79555(15) 0.6121(3) 0.21711(13)
O10A O 0.62111(17) 0.7253(3) 0.13159(12)
O11A O 0.61238(15) 0.3405(3) 0.26568(14)
O12A O 0.55165(19) 0.2141(3) 0.33400(12)
N1A N 0.44475(16) 0.9288(3) 0.16336(12)
N2A N 0.42655(16) 0.7002(3) 0.15517(13)
H1A H 0.4059 0.6216 0.1464
N3A N 0.2039(2) 0.9035(6) 0.04932(18)
N4C N 0.09969(17) 0.7483(3) 0.12447(13)
H2C H 0.0784 0.8269 0.1175
N5C N 0.12236(16) 0.5210(3) 0.12292(12)
N6C N -0.11614(19) 0.5418(4) 0.00441(14)
C1A C 0.56318(19) 0.9421(4) 0.21623(15)
C2A C 0.52980(19) 0.5856(4) 0.20363(15)
C3A C 0.49175(19) 0.7141(4) 0.18337(15)
C4A C 0.50242(19) 0.8592(4) 0.18845(15)
C5A C 0.40045(19) 0.8292(4) 0.14353(15)
C6A C 0.3321(2) 0.8550(5) 0.11140(16)
C7A C 0.2909(2) 0.7462(5) 0.0888(2)
H3A H 0.3057 0.6532 0.0941
C8A C 0.2280(3) 0.7747(6) 0.0586(2)
H4A H 0.2010 0.6993 0.0439
C9A C 0.2434(3) 1.0096(6) 0.0712(2)
H5A H 0.2276 1.1015 0.0649
C10A C 0.3067(3) 0.9892(5) 0.1027(2)
H6A H 0.3321 1.0662 0.1180
C11C C 0.19754(19) 0.8562(4) 0.18504(14)
C12C C 0.23583(19) 0.5046(4) 0.18253(14)
C13C C 0.17553(19) 0.5884(4) 0.15565(14)
C14C C 0.16188(19) 0.7319(4) 0.15724(15)
C15C C 0.07725(19) 0.6205(4) 0.10479(15)
C16C C 0.01058(19) 0.5946(4) 0.06955(15)
C17C C -0.0131(2) 0.4578(5) 0.05920(16)
H7C H 0.0129 0.3809 0.0738
C18C C -0.0763(2) 0.4381(5) 0.02672(17)
H8C H -0.0917 0.3459 0.0201
C19C C -0.0922(2) 0.6730(6) 0.01385(18)
H9C H -0.1188 0.7479 -0.0020
C20C C -0.0296(2) 0.7033(5) 0.04617(17)
H10C H -0.0151 0.7963 0.0518
H12A H 0.595(3) 0.683(6) 0.112(2)
H13A H 0.621(3) 0.819(6) 0.121(2)
H14A H 0.800(3) 0.527(7) 0.223(2)
H15A H 0.558(3) 0.130(2) 0.3460(19)
H16A H 0.578(2) 0.269(5) 0.3558(16)
H17A H 0.831(3) 0.622(6) 0.236(2)
H19A H 0.614(3) 0.425(3) 0.254(2)
H20A H 0.639(3) 0.320(6) 0.296(2)
O13 O 0.74135(19) 0.1176(5) 0.56875(14)
H11 H 0.7161 0.0738 0.5495
H18 H 0.727(3) 0.160(6) 0.5917(16)
O14 O 0.37702(18) 0.4245(4) 0.10204(15)
Cl3 Cl 0.4252(5) 0.5140(10) 0.4411(4)
Cl1? Cl 0.49636(17) 0.5556(3) 0.43663(12)
Cl2? Cl 0.5834(5) 0.5471(11) 0.4788(4)
loop_
_geom_bond_atom_site_label_1
_geom_bond_atom_site_label_2
_geom_bond_site_symmetry_1
_geom_bond_site_symmetry_2
Y1 O1 1_555 1_555
Y2 O4 1_555 1_555
O1 C1 1_555 1_555
O2 C1 1_555 1_555
O3 Y1 1_555 1_555
O4 C2 1_555 1_555
O5 Y1 1_555 1_555
O6 C11 1_555 1_555
O7 C12 1_555 1_555
O8 C12 1_555 1_555
O9 Y1 1_555 1_555
O10 Y1 1_555 1_555
O11 Y2 1_555 1_555
O12 Y2 1_555 1_555
O13 H11 1_555 1_555
N1 C4 1_555 1_555
N2 H1 1_555 1_555
N3 C8 1_555 1_555
N4 H2 1_555 1_555
N5 C13 1_555 1_555
N6 C18 1_555 1_555
C1 C4 1_555 1_555
C2 O3 1_555 1_555
C3 N2 1_555 1_555
C4 C3 1_555 1_555
C5 N1 1_555 1_555
C6 C5 1_555 1_555
C7 C6 1_555 1_555
H3 C7 1_555 1_555
C8 C7 1_555 1_555
H4 C8 1_555 1_555
C9 N3 1_555 1_555
H5 C9 1_555 1_555
C10 C6 1_555 1_555
H6 C10 1_555 1_555
C11 O5 1_555 1_555
C12 C13 1_555 1_555
C13 C14 1_555 1_555
C14 N4 1_555 1_555
C15 N4 1_555 1_555
C16 C15 1_555 1_555
C17 C16 1_555 1_555
H7 C17 1_555 1_555
C18 C17 1_555 1_555
H8 C18 1_555 1_555
C19 N6 1_555 1_555
H9 C19 1_555 1_555
C20 C16 1_555 1_555
H10 C20 1_555 1_555
H12 O10 1_555 1_555
H13 O10 1_555 1_555
H14 O9 1_555 1_555
H15 O12 1_555 1_555
H16 O12 1_555 1_555
H17 O9 1_555 1_555
H18 O13 1_555 1_555
H19 O11 1_555 1_555
H20 O11 1_555 1_555
Y1A O1A 1_555 1_555
Y1C O6 1_555 1_555
Y1_2 O8 1_555 1_555
Y1C_2 O5C 1_555 1_555
Y2_2 O2 1_555 1_555
O1A C1A 1_555 1_555
O2A Y2_2 1_555 1_555
O2_2 Y2 1_555 1_555
O2A_2 Y2 1_555 1_555
O3A Y1A 1_555 1_555
O4A Y2 1_555 1_555
O5C C11C 1_555 1_555
O5A Y1A 1_555 1_555
O6C Y1 1_555 1_555
O6B Y1A 1_555 1_555
O7C Y1 1_555 1_555
O7B Y1A 1_555 1_555
O8C Y1C 1_555 1_555
O8_2 Y1 1_555 1_555
O8A Y1A 1_555 1_555
O9A Y1A 1_555 1_555
O10A Y1A 1_555 1_555
O11A Y2 1_555 1_555
O12A Y2 1_555 1_555
N1A C4A 1_555 1_555
N2A H1A 1_555 1_555
N3A C8A 1_555 1_555
N4C H2C 1_555 1_555
N5C C13C 1_555 1_555
N6C C18C 1_555 1_555
C1A O2A 1_555 1_555
C2A O3A 1_555 1_555
C3A N2A 1_555 1_555
C4A C1A 1_555 1_555
C5A N1A 1_555 1_555
C6A C5A 1_555 1_555
C7A C6A 1_555 1_555
H3A C7A 1_555 1_555
C8A C7A 1_555 1_555
H4A C8A 1_555 1_555
C9A N3A 1_555 1_555
H5A C9A 1_555 1_555
C10A C6A 1_555 1_555
H6A C10A 1_555 1_555
C11C O6C 1_555 1_555
C12C O7C 1_555 1_555
C13C C12C 1_555 1_555
C14C N4C 1_555 1_555
C15C N4C 1_555 1_555
C16C C15C 1_555 1_555
C17C C16C 1_555 1_555
H7C C17C 1_555 1_555
C18C C17C 1_555 1_555
H8C C18C 1_555 1_555
C19C N6C 1_555 1_555
H9C C19C 1_555 1_555
C20C C16C 1_555 1_555
H10C C20C 1_555 1_555
H12A O10A 1_555 1_555
H13A O10A 1_555 1_555
H14A O9A 1_555 1_555
H15A O12A 1_555 1_555
H16A O12A 1_555 1_555
H17A O9A 1_555 1_555
H19A O11A 1_555 1_555
H20A O11A 1_555 1_555
O7 Y1C 1_555 1_555
N2 C5 1_555 1_555
N5 C15 1_555 1_555
C2 C3 1_555 1_555
C9 C10 1_555 1_555
C11 C14 1_555 1_555
C19 C20 1_555 1_555
O4A C2A 1_555 1_555
O8C C12C 1_555 1_555
N2A C5A 1_555 1_555
N5C C15C 1_555 1_555
C2A C3A 1_555 1_555
C3A C4A 1_555 1_555
C9A C10A 1_555 1_555
C11C C14C 1_555 1_555
C13C C14C 1_555 1_555
C19C C20C 1_555 1_555

#END
