
#######################################################################
#
#                 Cambridge Crystallographic Data Centre
#                                CCDC 
#
#######################################################################
#
# If this CIF has been generated from an entry in the Cambridge 
# Structural Database, then it will include bibliographic, chemical, 
# crystal, experimental, refinement or atomic coordinate data resulting 
# from the CCDC's data processing and validation procedures.
#
#######################################################################

data_FUFSAB
_symmetry_cell_setting           monoclinic
_symmetry_space_group_name_H-M   'C 2/c'
_symmetry_Int_Tables_number      15
_space_group_name_Hall           '-C 2yn'
loop_
_symmetry_equiv_pos_site_id
_symmetry_equiv_pos_as_xyz
1 x,y,z
2 -x,y,1/2-z
3 1/2+x,1/2+y,z
4 1/2-x,1/2+y,1/2-z
5 -x,-y,-z
6 x,-y,1/2+z
7 1/2-x,1/2-y,-z
8 1/2+x,1/2-y,1/2+z
_cell_length_a                   20.983(2)
_cell_length_b                   9.5190(9)
_cell_length_c                   27.525(3)
_cell_angle_alpha                90
_cell_angle_beta                 106.1640(10)
_cell_angle_gamma                90
_cell_volume                     5280.43
loop_
_atom_site_label
_atom_site_type_symbol
_atom_site_fract_x
_atom_site_fract_y
_atom_site_fract_z
Tb1 Tb 0.812510(6) -0.195860(14) 0.285350(5)
Tb2 Tb 1.0000 0.23639(2) 0.2500
O1 O 0.82914(11) 0.0279(2) 0.32883(9)
O2 O 0.74987(11) 0.1620(2) 0.28060(8)
O3 O 0.71460(11) 0.4354(2) 0.28995(9)
O4 O 0.76651(11) 0.6264(2) 0.32691(8)
O5 O 0.70294(11) -0.1098(2) 0.28255(9)
H1 H 0.7028 -0.0237 0.2816
O6 O 0.87956(14) -0.2250(3) 0.37034(10)
O7 O 0.90932(10) -0.0964(2) 0.27426(9)
O8 O 1.00182(11) 0.0288(2) 0.30200(9)
O9 O 0.88108(10) -0.3818(2) 0.27390(9)
O10 O 0.94474(11) -0.5672(2) 0.27308(9)
O11 O 1.05302(16) 0.2884(3) 0.33499(10)
H2 H 1.0717 0.2178 0.3492
O12 O 1.11343(11) 0.1593(2) 0.26587(10)
H3 H 1.1141 0.0792 0.2551
N1 N 0.90016(13) 0.2528(3) 0.37585(10)
H4 H 0.9213 0.1747 0.3828
N2 N 0.87773(13) 0.4796(3) 0.37745(10)
N3 N 1.11631(15) 0.4576(4) 0.49559(12)
N4 N 1.07321(13) -0.1993(3) 0.34493(11)
H5 H 1.0936 -0.1209 0.3535
N5 N 1.05511(12) -0.4270(3) 0.33655(10)
N6 N 1.29560(17) -0.4026(5) 0.45077(15)
C1 C 0.80252(14) 0.1449(3) 0.31557(11)
C2 C 0.83821(15) 0.2696(3) 0.34334(11)
C3 C 0.82442(15) 0.4122(3) 0.34483(11)
C4 C 0.76416(15) 0.4953(3) 0.31816(11)
C5 C 0.92259(15) 0.3803(3) 0.39536(11)
C6 C 0.98910(15) 0.4052(3) 0.43038(11)
C7 C 1.02965(19) 0.2964(4) 0.45403(15)
H6 H 1.0154 0.2037 0.4486
C8 C 1.09176(18) 0.3276(5) 0.48590(15)
H7 H 1.1182 0.2531 0.5016
C9 C 1.07663(18) 0.5613(4) 0.47316(13)
H8 H 1.0922 0.6529 0.4796
C10 C 1.01340(17) 0.5422(4) 0.44074(13)
H9 H 0.9877 0.6190 0.4262
C11 C 0.93697(14) -0.4405(3) 0.28426(11)
C12 C 0.99761(14) -0.3580(3) 0.31188(11)
C13 C 1.00867(15) -0.2142(3) 0.31712(12)
C14 C 0.97027(15) -0.0845(3) 0.29672(12)
C15 C 1.09960(15) -0.3281(3) 0.35663(12)
C16 C 1.16783(15) -0.3539(4) 0.38863(12)
C17 C 1.1927(2) -0.4890(4) 0.39746(18)
H10 H 1.1672 -0.5657 0.3826
C18 C 1.2558(2) -0.5076(5) 0.4285(2)
H11 H 1.2718 -0.5989 0.4344
C19 C 1.2718(2) -0.2740(5) 0.44129(18)
H12 H 1.2988 -0.1991 0.4559
C20 C 1.20900(19) -0.2450(4) 0.41087(16)
H13 H 1.1945 -0.1525 0.4054
H14 H 1.1425(17) 0.177(5) 0.2938(10)
H15 H 0.9038(19) -0.165(4) 0.3902(14)
H16 H 0.880(2) -0.3108(18) 0.3797(17)
H17 H 1.058(2) 0.368(2) 0.3504(15)
H18 H 0.6671(13) -0.134(5) 0.2604(13)
Tb1A Tb 1.187490(6) -0.195860(14) 0.214650(5)
Tb1C Tb 0.687490(6) 0.304140(14) 0.214650(5)
Tb1_2 Tb 0.812510(6) 0.804140(14) 0.285350(5)
Tb1C_2 Tb 0.687490(6) -0.695860(14) 0.214650(5)
Tb2_2 Tb 1.0000 -0.76361(2) 0.2500
O1C O 0.67086(11) -0.4721(2) 0.17117(9)
O1A O 1.17086(11) 0.0279(2) 0.17117(9)
O2C O 0.75013(11) -0.3380(2) 0.21940(8)
O2B O 1.24987(11) -0.3380(2) 0.28060(8)
O3C O 0.78540(11) -0.0646(2) 0.21005(9)
O3B O 1.21460(11) -0.0646(2) 0.28995(9)
O4C O 0.73349(11) 0.1264(2) 0.17309(8)
O4_2 O 0.76651(11) -0.3736(2) 0.32691(8)
O4A O 1.23349(11) -0.3736(2) 0.17309(8)
O5A O 1.29706(11) -0.1098(2) 0.21745(9)
H1A H 1.2972 -0.0237 0.2184
O6A O 1.12044(14) -0.2250(3) 0.12966(10)
O7A O 1.09068(10) -0.0964(2) 0.22574(9)
O8A O 0.99818(11) 0.0288(2) 0.19800(9)
O9A O 1.11892(10) -0.3818(2) 0.22610(9)
O10A O 1.05526(11) -0.5672(2) 0.22692(9)
O10_2 O 0.94474(11) 0.4328(2) 0.27308(9)
O10A_2 O 1.05526(11) 0.4328(2) 0.22692(9)
O11A O 0.94698(16) 0.2884(3) 0.16501(10)
H2A H 0.9283 0.2178 0.1508
O12A O 0.88657(11) 0.1593(2) 0.23413(10)
H3A H 0.8859 0.0792 0.2449
N1C N 0.59984(13) -0.2472(3) 0.12415(10)
H4C H 0.5787 -0.3253 0.1172
N2C N 0.62227(13) -0.0204(3) 0.12255(10)
N3C N 0.38369(15) -0.0424(4) 0.00441(12)
N4A N 0.92679(13) -0.1993(3) 0.15507(11)
H5A H 0.9064 -0.1209 0.1465
N5A N 0.94489(12) -0.4270(3) 0.16345(10)
N6A N 0.70440(17) -0.4026(5) 0.04923(15)
C1C C 0.69748(14) -0.3551(3) 0.18443(11)
C2C C 0.66179(15) -0.2304(3) 0.15666(11)
C3C C 0.67558(15) -0.0878(3) 0.15517(11)
C4C C 0.73584(15) -0.0047(3) 0.18184(11)
C5C C 0.57741(15) -0.1197(3) 0.10464(11)
C6C C 0.51090(15) -0.0948(3) 0.06962(11)
C7C C 0.47035(19) -0.2036(4) 0.04597(15)
H6C H 0.4846 -0.2963 0.0514
C8C C 0.40824(18) -0.1724(5) 0.01410(15)
H7C H 0.3818 -0.2469 -0.0016
C9C C 0.42337(18) 0.0613(4) 0.02684(13)
H8C H 0.4078 0.1529 0.0204
C10C C 0.48660(17) 0.0422(4) 0.05926(13)
H9C H 0.5123 0.1190 0.0738
C11A C 1.06303(14) -0.4405(3) 0.21574(11)
C12A C 1.00239(14) -0.3580(3) 0.18812(11)
C13A C 0.99133(15) -0.2142(3) 0.18288(12)
C14A C 1.02973(15) -0.0845(3) 0.20328(12)
C15A C 0.90040(15) -0.3281(3) 0.14337(12)
C16A C 0.83217(15) -0.3539(4) 0.11137(12)
C17A C 0.8073(2) -0.4890(4) 0.10254(18)
H10A H 0.8328 -0.5657 0.1174
C18A C 0.7442(2) -0.5076(5) 0.0715(2)
H11A H 0.7282 -0.5989 0.0656
C19A C 0.7282(2) -0.2740(5) 0.05871(18)
H12A H 0.7012 -0.1991 0.0441
C20A C 0.79100(19) -0.2450(4) 0.08913(16)
H13A H 0.8055 -0.1525 0.0946
H14A H 0.8575(17) 0.177(5) 0.2062(10)
H15A H 1.0962(19) -0.165(4) 0.1098(14)
H16A H 1.120(2) -0.3108(18) 0.1203(17)
H17A H 0.942(2) 0.368(2) 0.1496(15)
H18A H 1.3329(13) -0.134(5) 0.2396(13)
O13 O 1.12317(15) 0.0752(3) 0.39825(12)
O14 O 1.25866(15) 0.1175(4) 0.43208(12)
H19 H 1.263(2) 0.154(5) 0.4046(10)
H20 H 1.2926(15) 0.086(5) 0.4549(13)
Cl3 Cl 0.9241(4) 0.9881(9) 0.4427(3)
Cl1? Cl 0.99648(13) 0.9453(3) 0.43728(10)
Cl2? Cl 1.0849(4) 0.9528(9) 0.4788(3)
loop_
_geom_bond_atom_site_label_1
_geom_bond_atom_site_label_2
_geom_bond_site_symmetry_1
_geom_bond_site_symmetry_2
Tb1 O1 1_555 1_555
Tb2 O8 1_555 1_555
O1 C1 1_555 1_555
O2 C1 1_555 1_555
O3 C4 1_555 1_555
O4 C4 1_555 1_555
O5 Tb1 1_555 1_555
H1 O5 1_555 1_555
O6 Tb1 1_555 1_555
O7 Tb1 1_555 1_555
O8 C14 1_555 1_555
O9 Tb1 1_555 1_555
O10 C11 1_555 1_555
O11 Tb2 1_555 1_555
H2 O11 1_555 1_555
O12 Tb2 1_555 1_555
H3 O12 1_555 1_555
O14 H19 1_555 1_555
N1 H4 1_555 1_555
N2 C3 1_555 1_555
N3 C8 1_555 1_555
N4 H5 1_555 1_555
N5 C12 1_555 1_555
N6 C18 1_555 1_555
C1 C2 1_555 1_555
C2 N1 1_555 1_555
C3 C2 1_555 1_555
C4 C3 1_555 1_555
C5 N1 1_555 1_555
C6 C5 1_555 1_555
C7 C6 1_555 1_555
H6 C7 1_555 1_555
C8 C7 1_555 1_555
H7 C8 1_555 1_555
C9 N3 1_555 1_555
H8 C9 1_555 1_555
C10 C6 1_555 1_555
H9 C10 1_555 1_555
C11 O9 1_555 1_555
C12 C11 1_555 1_555
C13 N4 1_555 1_555
C14 O7 1_555 1_555
C15 N4 1_555 1_555
C16 C15 1_555 1_555
C17 C16 1_555 1_555
H10 C17 1_555 1_555
C18 C17 1_555 1_555
H11 C18 1_555 1_555
C19 N6 1_555 1_555
H12 C19 1_555 1_555
C20 C16 1_555 1_555
H13 C20 1_555 1_555
H14 O12 1_555 1_555
H15 O6 1_555 1_555
H16 O6 1_555 1_555
H17 O11 1_555 1_555
H18 O5 1_555 1_555
H20 O14 1_555 1_555
Tb1A O1A 1_555 1_555
Tb1C O2 1_555 1_555
Tb1_2 O4 1_555 1_555
Tb1C_2 O1C 1_555 1_555
Tb2_2 O10 1_555 1_555
O1C C1C 1_555 1_555
O2C Tb1 1_555 1_555
O2B Tb1A 1_555 1_555
O3C Tb1 1_555 1_555
O3B Tb1A 1_555 1_555
O4C Tb1C 1_555 1_555
O4_2 Tb1 1_555 1_555
O4A Tb1A 1_555 1_555
O5A Tb1A 1_555 1_555
H1A O5A 1_555 1_555
O6A Tb1A 1_555 1_555
O7A Tb1A 1_555 1_555
O8A Tb2 1_555 1_555
O9A Tb1A 1_555 1_555
O10A Tb2_2 1_555 1_555
O10_2 Tb2 1_555 1_555
O10A_2 Tb2 1_555 1_555
O11A Tb2 1_555 1_555
H2A O11A 1_555 1_555
O12A Tb2 1_555 1_555
H3A O12A 1_555 1_555
N1C H4C 1_555 1_555
N2C C3C 1_555 1_555
N3C C8C 1_555 1_555
N4A H5A 1_555 1_555
N5A C12A 1_555 1_555
N6A C18A 1_555 1_555
C1C O2C 1_555 1_555
C2C N1C 1_555 1_555
C3C C2C 1_555 1_555
C4C O3C 1_555 1_555
C5C N1C 1_555 1_555
C6C C5C 1_555 1_555
C7C C6C 1_555 1_555
H6C C7C 1_555 1_555
C8C C7C 1_555 1_555
H7C C8C 1_555 1_555
C9C N3C 1_555 1_555
H8C C9C 1_555 1_555
C10C C6C 1_555 1_555
H9C C10C 1_555 1_555
C11A O9A 1_555 1_555
C12A C11A 1_555 1_555
C13A N4A 1_555 1_555
C14A O7A 1_555 1_555
C15A N4A 1_555 1_555
C16A C15A 1_555 1_555
C17A C16A 1_555 1_555
H10A C17A 1_555 1_555
C18A C17A 1_555 1_555
H11A C18A 1_555 1_555
C19A N6A 1_555 1_555
H12A C19A 1_555 1_555
C20A C16A 1_555 1_555
H13A C20A 1_555 1_555
H14A O12A 1_555 1_555
H15A O6A 1_555 1_555
H16A O6A 1_555 1_555
H17A O11A 1_555 1_555
H18A O5A 1_555 1_555
O3 Tb1C 1_555 1_555
N2 C5 1_555 1_555
N5 C15 1_555 1_555
C9 C10 1_555 1_555
C12 C13 1_555 1_555
C13 C14 1_555 1_555
C19 C20 1_555 1_555
O4C C4C 1_555 1_555
O8A C14A 1_555 1_555
O10A C11A 1_555 1_555
N2C C5C 1_555 1_555
N5A C15A 1_555 1_555
C1C C2C 1_555 1_555
C3C C4C 1_555 1_555
C9C C10C 1_555 1_555
C12A C13A 1_555 1_555
C13A C14A 1_555 1_555
C19A C20A 1_555 1_555

#END
