
#######################################################################
#
#                 Cambridge Crystallographic Data Centre
#                                CCDC 
#
#######################################################################
#
# If this CIF has been generated from an entry in the Cambridge 
# Structural Database, then it will include bibliographic, chemical, 
# crystal, experimental, refinement or atomic coordinate data resulting 
# from the CCDC's data processing and validation procedures.
#
#######################################################################

data_FUFTUX
_symmetry_cell_setting           monoclinic
_symmetry_space_group_name_H-M   'P 21/n'
_symmetry_Int_Tables_number      14
_space_group_name_Hall           '-P 2yn'
loop_
_symmetry_equiv_pos_site_id
_symmetry_equiv_pos_as_xyz
1 x,y,z
2 1/2-x,1/2+y,1/2-z
3 -x,-y,-z
4 1/2+x,1/2-y,1/2+z
_cell_length_a                   14.3700(12)
_cell_length_b                   28.431(2)
_cell_length_c                   17.883(2)
_cell_angle_alpha                90
_cell_angle_beta                 100.673(5)
_cell_angle_gamma                90
_cell_volume                     7179.77
loop_
_atom_site_label
_atom_site_type_symbol
_atom_site_fract_x
_atom_site_fract_y
_atom_site_fract_z
Co1 Co 0.13656(4) 0.134658(18) 0.44267(3)
Co2 Co 0.51161(3) 0.149202(18) 0.53366(3)
Na1 Na 0.33179(9) 0.16695(5) 1.39110(8)
C1 C 0.2620(3) 0.03582(13) 0.9253(2)
C2 C 0.2247(2) -0.00889(13) 0.9313(2)
C3 C 0.2652(3) -0.03882(13) 0.9909(2)
C4 C 0.3462(3) -0.02511(13) 1.0418(2)
C5 C 0.3868(2) 0.01924(13) 1.0333(2)
C6 C 0.3433(3) 0.05004(13) 0.9764(2)
C7 C 0.2118(3) 0.06968(15) 0.8668(2)
H1 H 0.1464 0.0601 0.8504
H2 H 0.2126 0.1010 0.8883
C8 C 0.1411(3) -0.02576(15) 0.8739(2)
H3 H 0.1403 -0.0106 0.8252
H4 H 0.1447 -0.0595 0.8671
C9 C 0.2157(3) -0.08538(13) 0.9987(2)
H5 H 0.2373 -0.0987 1.0489
H6 H 0.1477 -0.0809 0.9912
C10 C 0.3899(3) -0.05706(13) 1.1063(2)
H7 H 0.4501 -0.0444 1.1321
H8 H 0.3483 -0.0600 1.1430
C11 C 0.4752(3) 0.03393(15) 1.0873(2)
H9 H 0.5205 0.0083 1.0940
H10 H 0.5039 0.0606 1.0664
C12 C 0.3815(3) 0.09900(13) 0.9714(2)
H11 H 0.4499 0.0983 0.9767
H12 H 0.3548 0.1132 0.9229
C13 C 0.2278(3) 0.10180(14) 0.7472(2)
C14 C 0.1493(3) 0.12999(16) 0.7456(3)
H13 H 0.1131 0.1276 0.7835
C15 C 0.1254(3) 0.16182(16) 0.6868(3)
H14 H 0.0725 0.1808 0.6854
C16 C 0.1783(3) 0.16610(15) 0.6299(3)
H15 H 0.1618 0.1882 0.5914
C17 C 0.2559(3) 0.13723(13) 0.6308(2)
C18 C 0.2808(3) 0.10502(14) 0.6900(2)
H16 H 0.3332 0.0856 0.6911
C19 C 0.3124(3) 0.14117(13) 0.5689(2)
C20 C -0.0256(3) -0.03376(15) 0.8664(2)
C21 C -0.1001(3) -0.02954(19) 0.9041(3)
H17 H -0.0927 -0.0134 0.9501
C22 C -0.1867(3) -0.0497(2) 0.8728(3)
H18 H -0.2371 -0.0477 0.8987
C23 C -0.1986(3) -0.07244(18) 0.8042(3)
H19 H -0.2568 -0.0857 0.7836
C24 C -0.1250(3) -0.07563(14) 0.7660(2)
C25 C -0.0380(3) -0.05630(14) 0.7975(2)
H20 H 0.0123 -0.0586 0.7717
C26 C -0.1382(3) -0.09879(14) 0.6892(2)
C27 C 0.1949(3) -0.15858(13) 0.9311(2)
C28 C 0.2039(3) -0.18204(15) 0.8652(3)
H21 H 0.2369 -0.1684 0.8306
C29 C 0.1638(4) -0.22583(16) 0.8511(3)
H22 H 0.1688 -0.2415 0.8064
C30 C 0.1164(3) -0.24657(15) 0.9026(3)
H23 H 0.0894 -0.2762 0.8926
C31 C 0.1088(3) -0.22368(13) 0.9687(2)
C32 C 0.1459(3) -0.17904(13) 0.9832(2)
H24 H 0.1384 -0.1630 1.0270
C33 C 0.4249(3) -0.13987(13) 1.1230(2)
C34 C 0.3800(3) -0.18176(14) 1.0995(2)
H25 H 0.3316 -0.1823 1.0570
C35 C 0.4068(3) -0.22288(14) 1.1390(2)
C36 C 0.4757(3) -0.22086(16) 1.2032(3)
H26 H 0.4945 -0.2482 1.2304
C37 C 0.5170(4) -0.17870(16) 1.2276(3)
H27 H 0.5626 -0.1777 1.2719
C38 C 0.4921(3) -0.13804(15) 1.1880(3)
H28 H 0.5205 -0.1096 1.2049
C39 C 0.3558(3) -0.26847(15) 1.1138(2)
C40 C 0.4675(3) 0.19954(14) 1.1856(3)
C41 C 0.4062(3) 0.16828(14) 1.1429(3)
H29 H 0.3581 0.1544 1.1636
C42 C 0.4159(3) 0.15742(14) 1.0693(3)
C43 C 0.4865(4) 0.17881(17) 1.0384(3)
H30 H 0.4922 0.1724 0.9884
C44 C 0.5479(4) 0.20943(19) 1.0811(3)
H31 H 0.5951 0.2238 1.0599
C45 C 0.5405(4) 0.21911(17) 1.1550(3)
H32 H 0.5845 0.2388 1.1845
C46 C 0.4522(3) 0.21064(15) 1.2632(3)
C47 C 0.5674(3) 0.10070(13) 1.3356(2)
C48 C 0.4993(3) 0.08129(13) 1.2788(2)
H33 H 0.4368 0.0791 1.2856
C49 C 0.5240(3) 0.06518(14) 1.2121(2)
C50 C 0.6174(3) 0.06912(16) 1.2014(3)
H34 H 0.6346 0.0583 1.1569
C51 C 0.6838(3) 0.08936(19) 1.2580(3)
H35 H 0.7459 0.0925 1.2506
C52 C 0.6605(3) 0.10481(16) 1.3243(3)
H36 H 0.7065 0.1180 1.3619
C53 C 0.5422(3) 0.11724(13) 1.4081(2)
C54 C 0.0609(3) -0.24743(14) 1.0270(3)
C55 C 0.6359(3) 0.22493(16) 0.6321(3)
H37 H 0.6015 0.2472 0.6002
C56 C 0.7075(4) 0.24033(19) 0.6908(3)
H38 H 0.7195 0.2723 0.6977
C57 C 0.7586(4) 0.2091(2) 0.7370(3)
H39 H 0.8062 0.2194 0.7760
C58 C 0.7404(3) 0.16043(19) 0.7266(3)
C59 C 0.6676(3) 0.14789(15) 0.6666(2)
C60 C 0.6448(3) 0.09920(14) 0.6525(2)
C61 C 0.6970(3) 0.06445(18) 0.6981(3)
C62 C 0.7719(3) 0.0788(2) 0.7575(3)
H40 H 0.8071 0.0561 0.7877
C63 C 0.7926(3) 0.1238(2) 0.7706(3)
H41 H 0.8424 0.1319 0.8095
C64 C 0.6703(4) 0.01746(19) 0.6805(3)
H42 H 0.7030 -0.0069 0.7086
C65 C 0.5979(4) 0.00758(17) 0.6235(3)
H43 H 0.5799 -0.0234 0.6124
C66 C 0.5499(3) 0.04432(15) 0.5811(3)
H44 H 0.5001 0.0371 0.5416
C67 C 0.2336(4) 0.03741(17) 0.4927(3)
H45 H 0.2789 0.0456 0.4640
C68 C 0.2428(5) -0.0058(2) 0.5314(4)
H46 H 0.2935 -0.0255 0.5283
C69 C 0.1778(5) -0.0185(2) 0.5733(4)
H47 H 0.1834 -0.0471 0.5989
C70 C 0.1033(4) 0.01107(18) 0.5780(3)
C71 C 0.0986(3) 0.05386(15) 0.5378(2)
C72 C 0.0241(3) 0.08663(16) 0.5410(3)
C73 C -0.0455(4) 0.0752(2) 0.5841(3)
C74 C -0.0394(5) 0.0317(3) 0.6234(4)
H48 H -0.0852 0.0244 0.6522
C75 C 0.0286(5) 0.0015(2) 0.6206(3)
H49 H 0.0292 -0.0268 0.6466
C76 C -0.0451(4) 0.1569(2) 0.5041(3)
H50 H -0.0458 0.1849 0.4773
C77 C -0.1170(5) 0.1486(3) 0.5448(5)
H51 H -0.1647 0.1708 0.5449
C78 C -0.1167(5) 0.1080(3) 0.5841(5)
H52 H -0.1647 0.1020 0.6113
O1 O 0.05779(18) -0.01391(10) 0.90258(16)
O2 O 0.2397(2) -0.11588(9) 0.94111(17)
O3 O 0.4036(2) -0.10192(9) 1.07385(16)
O4 O 0.45217(17) 0.04642(10) 1.15928(15)
O5 O 0.3544(2) 0.12476(10) 1.03236(18)
O6 O 0.2601(2) 0.06956(10) 0.80340(16)
O7 O -0.0675(2) -0.10103(11) 0.65667(17)
O8 O -0.2163(2) -0.11337(12) 0.65805(18)
O9 O 0.46055(18) 0.11073(9) 1.42321(15)
O10 O 0.60509(19) 0.13798(10) 1.45581(17)
O11 O 0.3911(2) 0.19142(11) 1.29012(18)
O12 O 0.5072(2) 0.24347(12) 1.2980(2)
H53 H 0.4948 0.2478 1.3404
O13 O 0.0445(2) -0.22291(10) 1.08184(19)
O14 O 0.0411(2) -0.29011(9) 1.01995(16)
O15 O 0.40083(18) 0.13492(9) 0.58763(15)
O16 O 0.27130(18) 0.15067(10) 0.50268(15)
O17 O 0.2712(2) -0.27102(11) 1.1151(2)
O18 O 0.4050(2) -0.30024(10) 1.09142(19)
N1 N 0.5724(2) 0.08910(11) 0.59473(19)
N2 N 0.6152(2) 0.17966(12) 0.6202(2)
N3 N 0.1638(2) 0.06651(12) 0.4953(2)
N4 N 0.0239(2) 0.12686(13) 0.5016(2)
Co1A Co 0.36344(4) -0.365342(18) 1.05733(3)
Co1B Co -0.13656(4) -0.134658(18) 0.55733(3)
Co2_2 Co 0.51161(3) 0.149202(18) 1.53366(3)
Co2A Co -0.01161(3) -0.350798(18) 0.96634(3)
Na1_2 Na 0.33179(9) 0.16695(5) 0.39110(8)
Na1A Na 0.16821(9) -0.33305(5) 1.10890(8)
Na1B Na -0.33179(9) -0.16695(5) 0.60890(8)
O7B O 0.0675(2) 0.10103(11) 0.34333(17)
O8B O 0.2163(2) 0.11337(12) 0.34195(18)
O8B_2 O 0.2163(2) 0.11337(12) 1.34195(18)
O9_2 O 0.46055(18) 0.11073(9) 0.42321(15)
O10_2 O 0.60509(19) 0.13798(10) 0.45581(17)
O14A O 0.4589(2) 0.20989(9) 0.48005(16)
O14A_2 O 0.4589(2) 0.20989(9) 1.48005(16)
O16_2 O 0.27130(18) 0.15067(10) 1.50268(15)
O17A O 0.2288(2) 0.22898(11) 1.3849(2)
O18A O 0.0950(2) 0.19976(10) 0.40858(19)
O19 O 0.1173(7) -0.1299(3) 0.6777(6)
O20 O 0.0231(5) 0.1317(2) 0.9057(4)
C79 C 0.0546(9) 0.1176(4) 0.9735(8)
C80 C 0.1170(11) 0.1505(6) 1.0287(10)
O21 O -0.2466(17) 0.2591(9) 0.3850(16)
O22? O -0.2812(17) 0.2323(9) 0.4540(16)
loop_
_geom_bond_atom_site_label_1
_geom_bond_atom_site_label_2
_geom_bond_site_symmetry_1
_geom_bond_site_symmetry_2
Co1 O16 1_555 1_555
Co2 O15 1_555 1_555
Na1 O9 1_555 1_555
C1 C2 1_555 1_555
C2 C3 1_555 1_555
C3 C4 1_555 1_555
C4 C5 1_555 1_555
C5 C6 1_555 1_555
C6 C1 1_555 1_555
C7 C1 1_555 1_555
H1 C7 1_555 1_555
H2 C7 1_555 1_555
C8 C2 1_555 1_555
H3 C8 1_555 1_555
H4 C8 1_555 1_555
C9 C3 1_555 1_555
H5 C9 1_555 1_555
H6 C9 1_555 1_555
C10 C4 1_555 1_555
H7 C10 1_555 1_555
H8 C10 1_555 1_555
C11 C5 1_555 1_555
H9 C11 1_555 1_555
H10 C11 1_555 1_555
C12 C6 1_555 1_555
H11 C12 1_555 1_555
H12 C12 1_555 1_555
C13 C14 1_555 1_555
C14 H13 1_555 1_555
C15 C14 1_555 1_555
H14 C15 1_555 1_555
C16 C15 1_555 1_555
H15 C16 1_555 1_555
C17 C16 1_555 1_555
C18 C13 1_555 1_555
H16 C18 1_555 1_555
C19 C17 1_555 1_555
C20 C21 1_555 1_555
C21 H17 1_555 1_555
C22 C21 1_555 1_555
H18 C22 1_555 1_555
C23 C22 1_555 1_555
H19 C23 1_555 1_555
C24 C23 1_555 1_555
C25 C20 1_555 1_555
H20 C25 1_555 1_555
C26 C24 1_555 1_555
C27 C28 1_555 1_555
C28 H21 1_555 1_555
C29 C28 1_555 1_555
H22 C29 1_555 1_555
C30 C29 1_555 1_555
H23 C30 1_555 1_555
C31 C30 1_555 1_555
C32 C27 1_555 1_555
H24 C32 1_555 1_555
C33 C34 1_555 1_555
C34 H25 1_555 1_555
C35 C34 1_555 1_555
C36 C35 1_555 1_555
H26 C36 1_555 1_555
C37 C36 1_555 1_555
H27 C37 1_555 1_555
C38 C33 1_555 1_555
H28 C38 1_555 1_555
C39 C35 1_555 1_555
C40 C41 1_555 1_555
C41 H29 1_555 1_555
C42 C41 1_555 1_555
C43 C42 1_555 1_555
H30 C43 1_555 1_555
C44 C43 1_555 1_555
H31 C44 1_555 1_555
C45 C40 1_555 1_555
H32 C45 1_555 1_555
C46 C40 1_555 1_555
C47 C48 1_555 1_555
C48 H33 1_555 1_555
C49 C48 1_555 1_555
C50 C49 1_555 1_555
H34 C50 1_555 1_555
C51 C50 1_555 1_555
H35 C51 1_555 1_555
C52 C47 1_555 1_555
H36 C52 1_555 1_555
C53 C47 1_555 1_555
C54 C31 1_555 1_555
C55 H37 1_555 1_555
C56 C55 1_555 1_555
H38 C56 1_555 1_555
C57 C56 1_555 1_555
H39 C57 1_555 1_555
C58 C57 1_555 1_555
C59 C58 1_555 1_555
C60 C59 1_555 1_555
C61 C60 1_555 1_555
C62 C61 1_555 1_555
H40 C62 1_555 1_555
C63 C58 1_555 1_555
H41 C63 1_555 1_555
C64 C61 1_555 1_555
H42 C64 1_555 1_555
C65 C64 1_555 1_555
H43 C65 1_555 1_555
C66 C65 1_555 1_555
H44 C66 1_555 1_555
C67 H45 1_555 1_555
C68 C67 1_555 1_555
H46 C68 1_555 1_555
C69 C68 1_555 1_555
H47 C69 1_555 1_555
C70 C69 1_555 1_555
C71 C70 1_555 1_555
C72 C71 1_555 1_555
C73 C72 1_555 1_555
C74 C73 1_555 1_555
H48 C74 1_555 1_555
C75 C70 1_555 1_555
H49 C75 1_555 1_555
C76 H50 1_555 1_555
C77 C76 1_555 1_555
H51 C77 1_555 1_555
C78 C73 1_555 1_555
H52 C78 1_555 1_555
O1 C8 1_555 1_555
O2 C9 1_555 1_555
O3 C10 1_555 1_555
O4 C11 1_555 1_555
O5 C12 1_555 1_555
O6 C7 1_555 1_555
O7 C26 1_555 1_555
O8 C26 1_555 1_555
O9 C53 1_555 1_555
O10 C53 1_555 1_555
O11 Na1 1_555 1_555
O12 C46 1_555 1_555
H53 O12 1_555 1_555
O13 C54 1_555 1_555
O14 C54 1_555 1_555
O15 C19 1_555 1_555
O16 C19 1_555 1_555
O17 C39 1_555 1_555
O18 C39 1_555 1_555
N1 Co2 1_555 1_555
N2 Co2 1_555 1_555
N3 Co1 1_555 1_555
N4 Co1 1_555 1_555
O20 C79 1_555 1_555
C79 C80 1_555 1_555
Co1A O18 1_555 1_555
Co1B O7 1_555 1_555
Co2_2 O9 1_555 1_555
Co2A O14 1_555 1_555
Na1_2 O16 1_555 1_555
Na1A O14 1_555 1_555
Na1B O8 1_555 1_555
O7B Co1 1_555 1_555
O8B Co1 1_555 1_555
O8B_2 Na1 1_555 1_555
O9_2 Co2 1_555 1_555
O10_2 Co2 1_555 1_555
O14A Co2 1_555 1_555
O14A_2 Na1 1_555 1_555
O16_2 Na1 1_555 1_555
O17A Na1 1_555 1_555
O18A Co1 1_555 1_555
C13 O6 1_555 1_555
C17 C18 1_555 1_555
C20 O1 1_555 1_555
C24 C25 1_555 1_555
C27 O2 1_555 1_555
C31 C32 1_555 1_555
C33 O3 1_555 1_555
C37 C38 1_555 1_555
C42 O5 1_555 1_555
C44 C45 1_555 1_555
C46 O11 1_555 1_555
C49 O4 1_555 1_555
C51 C52 1_555 1_555
C55 N2 1_555 1_555
C59 N2 1_555 1_555
C60 N1 1_555 1_555
C62 C63 1_555 1_555
C66 N1 1_555 1_555
C67 N3 1_555 1_555
C71 N3 1_555 1_555
C72 N4 1_555 1_555
C74 C75 1_555 1_555
C76 N4 1_555 1_555
C77 C78 1_555 1_555
O8 Co1B 1_555 1_555
O10 Co2_2 1_555 1_555
O17 Na1A 1_555 1_555
Co2_2 O14A_2 1_555 1_555
Na1_2 O8B 1_555 1_555
Na1_2 O9_2 1_555 1_555
Na1_2 O14A 1_555 1_555

#END
