
#######################################################################
#
#                 Cambridge Crystallographic Data Centre
#                                CCDC 
#
#######################################################################
#
# If this CIF has been generated from an entry in the Cambridge 
# Structural Database, then it will include bibliographic, chemical, 
# crystal, experimental, refinement or atomic coordinate data resulting 
# from the CCDC's data processing and validation procedures.
#
#######################################################################

data_FUFVAF
_symmetry_cell_setting           triclinic
_symmetry_space_group_name_H-M   'P -1'
_symmetry_Int_Tables_number      2
_space_group_name_Hall           '-P 1'
loop_
_symmetry_equiv_pos_site_id
_symmetry_equiv_pos_as_xyz
1 x,y,z
2 -x,-y,-z
_cell_length_a                   10.6720(7)
_cell_length_b                   12.3940(7)
_cell_length_c                   12.5010(7)
_cell_angle_alpha                75.378(5)
_cell_angle_beta                 73.453(5)
_cell_angle_gamma                87.968(5)
_cell_volume                     1532.5
loop_
_atom_site_label
_atom_site_type_symbol
_atom_site_fract_x
_atom_site_fract_y
_atom_site_fract_z
Co1 Co 1.0000 0.0000 0.0000
Co2 Co 0.74757(6) -0.10248(5) 0.23863(6)
C1 C 0.6825(5) 0.0514(4) 0.0978(5)
C2 C 0.6333(5) 0.1407(5) 0.0193(5)
C3 C 0.5069(7) 0.1672(8) 0.0531(7)
H1 H 0.4525 0.1300 0.1247
C4 C 0.4590(7) 0.2515(9) -0.0210(7)
H2 H 0.3717 0.2697 0.0008
C5 C 0.5390(7) 0.3070(7) -0.1245(7)
H3 H 0.5071 0.3645 -0.1723
C6 C 0.6661(5) 0.2785(4) -0.1585(5)
C7 C 0.7138(5) 0.1963(4) -0.0851(4)
H4 H 0.8012 0.1784 -0.1067
C8 C 0.8742(5) 0.3297(4) -0.2940(4)
H5 H 0.9002 0.2565 -0.3049
H6 H 0.9036 0.3413 -0.2310
C9 C 0.9764(5) -0.0218(4) -0.7444(4)
C10 C 1.0657(5) 0.0239(3) -0.6948(4)
C11 C 1.1941(5) -0.0046(4) -0.7168(5)
H7 H 1.2268 -0.0497 -0.7669
C12 C 1.2744(5) 0.0338(4) -0.6648(5)
H8 H 1.3599 0.0105 -0.6758
C13 C 1.2294(5) 0.1060(4) -0.5970(5)
H9 H 1.2848 0.1331 -0.5635
C14 C 1.1011(5) 0.1387(3) -0.5782(4)
C15 C 1.0178(5) 0.0952(3) -0.6233(4)
H10 H 0.9302 0.1130 -0.6065
C16 C 0.9565(5) 0.2773(3) -0.5207(4)
H11 H 0.8793 0.2416 -0.4608
H12 H 0.9419 0.2830 -0.5950
C17 C 0.8776(5) 0.7703(4) 0.0642(5)
C18 C 0.8612(5) 0.6635(4) 0.0346(4)
C19 C 0.7880(5) 0.5752(4) 0.1162(5)
H13 H 0.7496 0.5813 0.1911
C20 C 0.7716(7) 0.4788(4) 0.0871(5)
H14 H 0.7197 0.4203 0.1423
C21 C 0.8301(6) 0.4662(4) -0.0220(5)
H15 H 0.8197 0.3997 -0.0407
C22 C 0.9047(5) 0.5546(4) -0.1031(5)
C23 C 0.9202(5) 0.6525(4) -0.0758(5)
H16 H 0.9702 0.7116 -0.1315
C24 C 0.8829(5) 0.5591(4) -0.2834(5)
H17 H 0.8605 0.6369 -0.3002
H18 H 0.8028 0.5140 -0.2434
C25 C 0.9348(4) 0.4175(3) -0.4017(4)
C26 C 0.9809(5) 0.3928(4) -0.5080(4)
C27 C 0.9499(5) 0.5270(4) -0.3945(4)
C28 C 0.5206(6) -0.2520(5) 0.3786(6)
H19 H 0.4729 -0.1952 0.3463
C29 C 0.4621(6) -0.3560(4) 0.4283(6)
H20 H 0.3759 -0.3679 0.4301
C30 C 0.5288(5) -0.4433(4) 0.4756(5)
C31 C 0.6530(6) -0.4156(4) 0.4745(6)
H21 H 0.7023 -0.4694 0.5088
C32 C 0.7038(6) -0.3104(4) 0.4239(6)
H22 H 0.7883 -0.2952 0.4244
N1 N 0.6422(4) -0.2288(3) 0.3744(4)
O1 O 0.6068(3) -0.0054(3) 0.1906(3)
O2 O 0.8004(3) 0.0298(3) 0.0724(3)
O3 O 0.7367(3) 0.3357(3) -0.2674(3)
O4 O 1.0248(4) -0.0574(3) -0.8331(3)
O5 O 0.8544(3) -0.0257(3) -0.6965(3)
O6 O 1.0671(3) 0.2133(2) -0.5115(3)
O7 O 0.8056(4) 0.7782(3) 0.1617(3)
O8 O 0.9579(3) 0.8421(3) -0.0058(3)
O9 O 0.9678(4) 0.5418(3) -0.2138(3)
C1A C 1.3175(5) 0.9486(4) -1.0978(5)
C2A C 1.3667(5) 0.8593(5) -1.0193(5)
C3A C 1.4931(7) 0.8328(8) -1.0531(7)
H1A H 1.5475 0.8700 -1.1247
C4A C 1.5410(7) 0.7485(9) -0.9790(7)
H2A H 1.6283 0.7303 -1.0008
C5A C 1.4610(7) 0.6930(7) -0.8755(7)
H3A H 1.4929 0.6355 -0.8277
C6A C 1.3339(5) 0.7215(4) -0.8415(5)
C7A C 1.2862(5) 0.8037(4) -0.9149(4)
H4A H 1.1988 0.8216 -0.8933
C8A C 1.1258(5) 0.6703(4) -0.7060(4)
H5A H 1.0998 0.7435 -0.6951
H6A H 1.0964 0.6587 -0.7690
C9A C 1.0236(5) 1.0218(4) -0.2556(4)
C10A C 0.9343(5) 0.9761(3) -0.3052(4)
C11A C 0.8059(5) 1.0046(4) -0.2832(5)
H7A H 0.7732 1.0497 -0.2331
C12A C 0.7256(5) 0.9662(4) -0.3352(5)
H8A H 0.6401 0.9895 -0.3242
C13A C 0.7706(5) 0.8940(4) -0.4030(5)
H9A H 0.7152 0.8669 -0.4365
C14A C 0.8989(5) 0.8613(3) -0.4218(4)
C15A C 0.9822(5) 0.9048(3) -0.3767(4)
H10A H 1.0698 0.8870 -0.3935
C16A C 1.0435(5) 0.7227(3) -0.4793(4)
H11A H 1.1207 0.7584 -0.5392
H12A H 1.0581 0.7170 -0.4050
C17A C 1.1224(5) 0.2297(4) -1.0642(5)
C18A C 1.1388(5) 0.3365(4) -1.0346(4)
C19A C 1.2120(5) 0.4248(4) -1.1162(5)
H13A H 1.2504 0.4187 -1.1911
C20A C 1.2284(7) 0.5212(4) -1.0871(5)
H14A H 1.2803 0.5797 -1.1423
C21A C 1.1699(6) 0.5338(4) -0.9780(5)
H15A H 1.1803 0.6003 -0.9593
C22A C 1.0953(5) 0.4454(4) -0.8969(5)
C23A C 1.0798(5) 0.3475(4) -0.9242(5)
H16A H 1.0298 0.2884 -0.8685
C24A C 1.1171(5) 0.4409(4) -0.7166(5)
H17A H 1.1395 0.3631 -0.6998
H18A H 1.1972 0.4860 -0.7566
C25A C 1.0652(4) 0.5825(3) -0.5983(4)
C26A C 1.0191(5) 0.6072(4) -0.4920(4)
C27A C 1.0501(5) 0.4730(4) -0.6055(4)
O1A O 1.3932(3) 1.0054(3) -1.1906(3)
O2A O 1.1996(3) 0.9702(3) -1.0724(3)
O3A O 1.2633(3) 0.6643(3) -0.7326(3)
O4A O 0.9752(4) 1.0574(3) -0.1669(3)
O5A O 1.1456(3) 1.0257(3) -0.3035(3)
O6A O 0.9329(3) 0.7867(2) -0.4885(3)
O7A O 1.1944(4) 0.2218(3) -1.1617(3)
O8A O 1.0421(3) 0.1579(3) -0.9942(3)
O9A O 1.0322(4) 0.4582(3) -0.7862(3)
C28A C 0.4794(6) -0.7480(5) 0.6214(6)
H19A H 0.5271 -0.8048 0.6537
C29A C 0.5379(6) -0.6440(4) 0.5717(6)
H20A H 0.6241 -0.6321 0.5699
C30A C 0.4712(5) -0.5567(4) 0.5244(5)
C31A C 0.3470(6) -0.5844(4) 0.5255(6)
H21A H 0.2977 -0.5306 0.4912
C32A C 0.2962(6) -0.6896(4) 0.5761(6)
H22A H 0.2117 -0.7048 0.5756
N1A N 0.3578(4) -0.7712(3) 0.6256(4)
Co2A Co 0.25243(6) -0.89752(5) 0.76137(6)
Co1_2 Co 1.0000 0.0000 -1.0000
Co1_3 Co 1.0000 1.0000 -1.0000
Co1_4 Co 1.0000 1.0000 0.0000
Co2_2 Co 0.74757(6) -0.10248(5) -0.76137(6)
Co2_3 Co 0.74757(6) 0.89752(5) 0.23863(6)
Co2A_2 Co 1.25243(6) 0.10248(5) -1.23863(6)
Co2A_3 Co 1.25243(6) 1.10248(5) -1.23863(6)
Co2A_4 Co 1.25243(6) 1.10248(5) -0.23863(6)
O1A_2 O 0.3932(3) -0.9946(3) 0.8094(3)
O2A_2 O 0.1996(3) -1.0298(3) 0.9276(3)
O2A_3 O 1.1996(3) -0.0298(3) -0.0724(3)
O4_2 O 1.0248(4) -0.0574(3) 0.1669(3)
O4A_2 O 0.9752(4) 0.0574(3) -0.1669(3)
O5_2 O 0.8544(3) -0.0257(3) 0.3035(3)
O5A_2 O 0.1456(3) -0.9743(3) 0.6965(3)
O7_2 O 0.8056(4) -0.2218(3) 0.1617(3)
O7A_2 O 0.1944(4) -0.7782(3) 0.8383(3)
O8_2 O 0.9579(3) -0.1579(3) -0.0058(3)
O8A_2 O 1.0421(3) 0.1579(3) 0.0058(3)
loop_
_geom_bond_atom_site_label_1
_geom_bond_atom_site_label_2
_geom_bond_site_symmetry_1
_geom_bond_site_symmetry_2
Co1 O2 1_555 1_555
Co2 N1 1_555 1_555
C1 C2 1_555 1_555
C2 C3 1_555 1_555
C3 H1 1_555 1_555
C4 C3 1_555 1_555
H2 C4 1_555 1_555
C5 C4 1_555 1_555
H3 C5 1_555 1_555
C6 C5 1_555 1_555
C7 C2 1_555 1_555
H4 C7 1_555 1_555
C8 H5 1_555 1_555
H6 C8 1_555 1_555
C9 C10 1_555 1_555
C10 C11 1_555 1_555
C11 H7 1_555 1_555
C12 C11 1_555 1_555
H8 C12 1_555 1_555
C13 C12 1_555 1_555
H9 C13 1_555 1_555
C14 C13 1_555 1_555
C15 C10 1_555 1_555
H10 C15 1_555 1_555
C16 H11 1_555 1_555
H12 C16 1_555 1_555
C17 C18 1_555 1_555
C18 C19 1_555 1_555
C19 H13 1_555 1_555
C20 C19 1_555 1_555
H14 C20 1_555 1_555
C21 C20 1_555 1_555
H15 C21 1_555 1_555
C22 C21 1_555 1_555
C23 C18 1_555 1_555
H16 C23 1_555 1_555
C24 H17 1_555 1_555
H18 C24 1_555 1_555
C25 C8 1_555 1_555
C26 C16 1_555 1_555
C27 C24 1_555 1_555
C28 H19 1_555 1_555
C29 C28 1_555 1_555
H20 C29 1_555 1_555
C30 C29 1_555 1_555
C31 C30 1_555 1_555
H21 C31 1_555 1_555
C32 C31 1_555 1_555
H22 C32 1_555 1_555
N1 C28 1_555 1_555
O1 Co2 1_555 1_555
O2 Co2 1_555 1_555
O3 C6 1_555 1_555
O4 C9 1_555 1_555
O5 C9 1_555 1_555
O6 C14 1_555 1_555
O7 C17 1_555 1_555
O8 C17 1_555 1_555
O9 C22 1_555 1_555
C1A C2A 1_555 1_555
C2A C3A 1_555 1_555
C3A H1A 1_555 1_555
C4A C3A 1_555 1_555
H2A C4A 1_555 1_555
C5A C4A 1_555 1_555
H3A C5A 1_555 1_555
C6A C5A 1_555 1_555
C7A C2A 1_555 1_555
H4A C7A 1_555 1_555
C8A H5A 1_555 1_555
H6A C8A 1_555 1_555
C9A C10A 1_555 1_555
C10A C11A 1_555 1_555
C11A H7A 1_555 1_555
C12A C11A 1_555 1_555
H8A C12A 1_555 1_555
C13A C12A 1_555 1_555
H9A C13A 1_555 1_555
C14A C13A 1_555 1_555
C15A C10A 1_555 1_555
H10A C15A 1_555 1_555
C16A H11A 1_555 1_555
H12A C16A 1_555 1_555
C17A C18A 1_555 1_555
C18A C19A 1_555 1_555
C19A H13A 1_555 1_555
C20A C19A 1_555 1_555
H14A C20A 1_555 1_555
C21A C20A 1_555 1_555
H15A C21A 1_555 1_555
C22A C21A 1_555 1_555
C23A C18A 1_555 1_555
H16A C23A 1_555 1_555
C24A H17A 1_555 1_555
H18A C24A 1_555 1_555
C25A C8A 1_555 1_555
C26A C27 1_555 1_555
C27A C26 1_555 1_555
O1A C1A 1_555 1_555
O2A C1A 1_555 1_555
O3A C6A 1_555 1_555
O4A C9A 1_555 1_555
O5A C9A 1_555 1_555
O6A C14A 1_555 1_555
O7A C17A 1_555 1_555
O8A C17A 1_555 1_555
O9A C22A 1_555 1_555
C28A H19A 1_555 1_555
C29A C28A 1_555 1_555
H20A C29A 1_555 1_555
C30A C30 1_555 1_555
C31A C30A 1_555 1_555
H21A C31A 1_555 1_555
C32A C31A 1_555 1_555
H22A C32A 1_555 1_555
N1A C28A 1_555 1_555
Co2A N1A 1_555 1_555
Co1_2 O4 1_555 1_555
Co1_3 O2A 1_555 1_555
Co1_4 O8 1_555 1_555
Co2_2 O5 1_555 1_555
Co2_3 O7 1_555 1_555
Co2A_2 O7A 1_555 1_555
Co2A_3 O1A 1_555 1_555
Co2A_4 O5A 1_555 1_555
O1A_2 Co2A 1_555 1_555
O2A_2 Co2A 1_555 1_555
O2A_3 Co1 1_555 1_555
O4_2 Co1 1_555 1_555
O4A_2 Co1 1_555 1_555
O5_2 Co2 1_555 1_555
O5A_2 Co2A 1_555 1_555
O7_2 Co2 1_555 1_555
O7A_2 Co2A 1_555 1_555
O8_2 Co1 1_555 1_555
O8A_2 Co1 1_555 1_555
C1 O1 1_555 1_555
C1 O2 1_555 1_555
C6 C7 1_555 1_555
C8 O3 1_555 1_555
C14 C15 1_555 1_555
C16 O6 1_555 1_555
C22 C23 1_555 1_555
C24 O9 1_555 1_555
C25 C26 1_555 1_555
C25 C27 1_555 1_555
C32 N1 1_555 1_555
C6A C7A 1_555 1_555
C8A O3A 1_555 1_555
C14A C15A 1_555 1_555
C16A C26A 1_555 1_555
C16A O6A 1_555 1_555
C22A C23A 1_555 1_555
C24A C27A 1_555 1_555
C24A O9A 1_555 1_555
C25A C26A 1_555 1_555
C25A C27A 1_555 1_555
O2A Co2A_3 1_555 1_555
O4A Co1_4 1_555 1_555
O8A Co1_2 1_555 1_555
C29A C30A 1_555 1_555
C32A N1A 1_555 1_555

#END
