
#######################################################################
#
#                 Cambridge Crystallographic Data Centre
#                                CCDC 
#
#######################################################################
#
# If this CIF has been generated from an entry in the Cambridge 
# Structural Database, then it will include bibliographic, chemical, 
# crystal, experimental, refinement or atomic coordinate data resulting 
# from the CCDC's data processing and validation procedures.
#
#######################################################################

data_FULYIW
_symmetry_cell_setting           monoclinic
_symmetry_space_group_name_H-M   'P 21/c'
_symmetry_Int_Tables_number      14
_space_group_name_Hall           '-P 2ybc'
loop_
_symmetry_equiv_pos_site_id
_symmetry_equiv_pos_as_xyz
1 x,y,z
2 -x,1/2+y,1/2-z
3 -x,-y,-z
4 x,1/2-y,1/2+z
_cell_length_a                   10.4582(5)
_cell_length_b                   31.6357(16)
_cell_length_c                   15.2842(7)
_cell_angle_alpha                90
_cell_angle_beta                 111.496(3)
_cell_angle_gamma                90
_cell_volume                     4705.08
loop_
_atom_site_label
_atom_site_type_symbol
_atom_site_fract_x
_atom_site_fract_y
_atom_site_fract_z
Cd1 Cd 0.09316(6) 0.140653(19) 0.43214(4)
Cd2 Cd 0.91327(6) 0.142632(19) 1.15669(4)
O1 O 0.8359(7) 0.1401(2) 0.9932(5)
O2 O 0.6713(7) 0.1461(2) 1.0526(5)
O3 O 0.1740(6) 0.1370(2) 0.5965(5)
O4 O 0.3333(7) 0.1444(2) 0.5371(5)
O5 O -0.1476(7) 0.1428(2) 0.2878(5)
O6 O -0.1283(7) 0.1376(2) 0.4354(5)
O7 O -0.8674(7) 0.1387(2) 0.1520(5)
O8 O -0.8516(7) 0.1463(2) 0.2977(5)
N1 N 0.0870(8) -0.2842(2) 0.3376(6)
N2 N 0.1861(10) -0.1278(3) 0.3496(7)
N3 N 0.1697(10) -0.0844(3) 0.3452(8)
N4 N 0.1281(9) 0.0676(3) 0.4250(6)
N5 N 0.0896(8) 0.2134(2) 0.4303(6)
N6 N 0.1700(11) 0.3711(3) 0.4198(9)
N7 N 0.1392(12) 0.4143(3) 0.4201(9)
N8 N 0.1177(9) 0.5690(3) 0.3461(6)
C1 C 0.1968(11) -0.2626(3) 0.3456(10)
H1 H 0.2763 -0.2776 0.3520
C2 C 0.2030(11) -0.2192(3) 0.3452(10)
H2 H 0.2841 -0.2057 0.3495
C3 C 0.0890(10) -0.1959(3) 0.3383(7)
C4 C -0.0256(11) -0.2187(3) 0.3325(10)
H3 H -0.1047 -0.2045 0.3297
C5 C -0.0260(10) -0.2616(3) 0.3306(9)
H4 H -0.1066 -0.2758 0.3245
C6 C 0.0823(11) -0.1498(3) 0.3372(7)
H5 H -0.0014 -0.1366 0.3269
C7 C 0.1336(16) 0.0439(4) 0.4954(11)
H6 H 0.1291 0.0569 0.5488
C8 C 0.1457(15) 0.0003(4) 0.4959(10)
H7 H 0.1452 -0.0154 0.5472
C9 C 0.1585(12) -0.0197(3) 0.4188(9)
C10 C 0.1563(12) 0.0057(4) 0.3475(9)
H8 H 0.1632 -0.0058 0.2935
C11 C 0.1438(11) 0.0484(3) 0.3545(8)
H9 H 0.1468 0.0650 0.3051
C12 C 0.1997(11) 0.2364(3) 0.4326(10)
H10 H 0.2781 0.2220 0.4341
C13 C 0.2024(13) 0.2795(4) 0.4329(11)
H11 H 0.2810 0.2936 0.4338
C14 C -0.0218(12) 0.2799(3) 0.4313(10)
H12 H -0.1002 0.2935 0.4319
C15 C -0.0165(11) 0.2367(4) 0.4298(10)
H13 H -0.0947 0.2222 0.4283
C16 C 0.0888(10) 0.3027(3) 0.4318(7)
C17 C 0.0816(11) 0.3484(3) 0.4340(7)
H14 H 0.0097 0.3611 0.4463
C18 C 0.7099(9) 0.1430(3) 0.9845(7)
C19 C 0.6029(9) 0.1434(3) 0.8855(7)
C20 C 0.6409(9) 0.1405(4) 0.8078(7)
H15 H 0.7335 0.1386 0.8165
C21 C 0.4628(9) 0.1452(3) 0.8716(7)
H16 H 0.4359 0.1469 0.9231
C22 C 0.5434(10) 0.1405(3) 0.7180(7)
H17 H 0.5710 0.1398 0.6667
C23 C 0.0950(15) 0.5027(4) 0.4099(10)
H18 H 0.0649 0.4877 0.4510
C24 C 0.0765(15) 0.5468(3) 0.4012(9)
H19 H 0.0328 0.5603 0.4365
C25 C 0.1769(15) 0.5489(4) 0.2941(12)
H20 H 0.2108 0.5649 0.2564
C26 C 0.1904(17) 0.5054(4) 0.2936(13)
H21 H 0.2214 0.4919 0.2511
C27 C 0.1556(12) 0.4828(4) 0.3593(11)
C28 C 0.2970(9) 0.1409(3) 0.6057(6)
C29 C 0.4048(9) 0.1416(3) 0.7033(6)
C30 C 0.3661(10) 0.1445(3) 0.7833(7)
H22 H 0.2735 0.1459 0.7750
C31 C 0.1785(14) 0.4363(4) 0.3667(12)
H23 H 0.2227 0.4234 0.3309
C32 C 0.1722(13) -0.0651(4) 0.4214(10)
H24 H 0.1825 -0.0802 0.4758
C33 C -0.2009(8) 0.1407(3) 0.3493(7)
C34 C -0.3555(8) 0.1419(3) 0.3196(7)
C35 C -0.4384(9) 0.1412(3) 0.2250(7)
H25 H -0.3997 0.1407 0.1791
C36 C -0.4137(9) 0.1443(3) 0.3878(7)
H26 H -0.3574 0.1451 0.4511
C37 C -0.7950(9) 0.1422(3) 0.2391(7)
C38 C -0.6408(8) 0.1426(3) 0.2667(7)
C39 C -0.5574(11) 0.1455(3) 0.3616(7)
H27 H -0.5964 0.1482 0.4071
C40 C -0.5801(9) 0.1411(3) 0.2000(7)
H28 H -0.6358 0.1401 0.1366
Cd1_2 Cd -0.90684(6) 0.140653(19) 0.43214(4)
Cd2_2 Cd -1.08673(6) 0.142632(19) 0.15669(4)
Cd2_3 Cd -0.08673(6) 0.142632(19) 0.15669(4)
Cd2A Cd 0.08673(6) -0.357368(19) 0.34331(4)
Cd2A_2 Cd 0.08673(6) 0.642632(19) 0.34331(4)
O5_2 O 0.8524(7) 0.1428(2) 1.2878(5)
O7_2 O 1.1326(7) 0.1387(2) 1.1520(5)
O8_2 O 0.1484(7) 0.1463(2) 0.2977(5)
O8_3 O 1.1484(7) 0.1463(2) 1.2977(5)
N1A N 0.9130(8) 0.2158(2) 1.1624(6)
N8A N 0.8823(9) 0.0690(3) 1.1539(6)
loop_
_geom_bond_atom_site_label_1
_geom_bond_atom_site_label_2
_geom_bond_site_symmetry_1
_geom_bond_site_symmetry_2
Cd1 O3 1_555 1_555
Cd2 O1 1_555 1_555
O1 C18 1_555 1_555
O2 Cd2 1_555 1_555
O3 C28 1_555 1_555
O4 Cd1 1_555 1_555
O5 Cd1 1_555 1_555
O6 Cd1 1_555 1_555
O7 C37 1_555 1_555
O8 C37 1_555 1_555
N1 C1 1_555 1_555
N2 N3 1_555 1_555
N3 C32 1_555 1_555
N4 Cd1 1_555 1_555
N5 Cd1 1_555 1_555
N6 N7 1_555 1_555
N7 C31 1_555 1_555
N8 C24 1_555 1_555
C1 H1 1_555 1_555
C2 C1 1_555 1_555
H2 C2 1_555 1_555
C3 C2 1_555 1_555
C4 C3 1_555 1_555
H3 C4 1_555 1_555
C5 N1 1_555 1_555
H4 C5 1_555 1_555
C6 N2 1_555 1_555
H5 C6 1_555 1_555
C7 N4 1_555 1_555
H6 C7 1_555 1_555
C8 C7 1_555 1_555
H7 C8 1_555 1_555
C9 C8 1_555 1_555
C10 C9 1_555 1_555
H8 C10 1_555 1_555
C11 N4 1_555 1_555
H9 C11 1_555 1_555
C12 N5 1_555 1_555
H10 C12 1_555 1_555
C13 C12 1_555 1_555
H11 C13 1_555 1_555
C14 H12 1_555 1_555
C15 N5 1_555 1_555
H13 C15 1_555 1_555
C16 C13 1_555 1_555
C17 N6 1_555 1_555
H14 C17 1_555 1_555
C18 O2 1_555 1_555
C19 C18 1_555 1_555
C20 C19 1_555 1_555
H15 C20 1_555 1_555
C21 C19 1_555 1_555
H16 C21 1_555 1_555
C22 C20 1_555 1_555
H17 C22 1_555 1_555
C23 H18 1_555 1_555
C24 C23 1_555 1_555
H19 C24 1_555 1_555
C25 N8 1_555 1_555
H20 C25 1_555 1_555
C26 C25 1_555 1_555
H21 C26 1_555 1_555
C27 C23 1_555 1_555
C28 O4 1_555 1_555
C29 C22 1_555 1_555
C30 C21 1_555 1_555
H22 C30 1_555 1_555
C31 C27 1_555 1_555
H23 C31 1_555 1_555
C32 C9 1_555 1_555
H24 C32 1_555 1_555
C33 O5 1_555 1_555
C34 C33 1_555 1_555
C35 C34 1_555 1_555
H25 C35 1_555 1_555
C36 C34 1_555 1_555
H26 C36 1_555 1_555
C37 C38 1_555 1_555
C38 C39 1_555 1_555
C39 C36 1_555 1_555
H27 C39 1_555 1_555
C40 C35 1_555 1_555
H28 C40 1_555 1_555
Cd1_2 O8 1_555 1_555
Cd2_2 O7 1_555 1_555
Cd2_3 O5 1_555 1_555
Cd2A N1 1_555 1_555
Cd2A_2 N8 1_555 1_555
O5_2 Cd2 1_555 1_555
O7_2 Cd2 1_555 1_555
O8_2 Cd1 1_555 1_555
O8_3 Cd2 1_555 1_555
N1A Cd2 1_555 1_555
N8A Cd2 1_555 1_555
O6 C33 1_555 1_555
O8 Cd2_2 1_555 1_555
C3 C6 1_555 1_555
C4 C5 1_555 1_555
C10 C11 1_555 1_555
C14 C15 1_555 1_555
C14 C16 1_555 1_555
C16 C17 1_555 1_555
C26 C27 1_555 1_555
C28 C29 1_555 1_555
C29 C30 1_555 1_555
C38 C40 1_555 1_555
Cd2_3 O8_2 1_555 1_555

#END
