
#######################################################################
#
#                 Cambridge Crystallographic Data Centre
#                                CCDC 
#
#######################################################################
#
# If this CIF has been generated from an entry in the Cambridge 
# Structural Database, then it will include bibliographic, chemical, 
# crystal, experimental, refinement or atomic coordinate data resulting 
# from the CCDC's data processing and validation procedures.
#
#######################################################################

data_FUMYOC
_symmetry_cell_setting           triclinic
_symmetry_space_group_name_H-M   'P -1'
_symmetry_Int_Tables_number      2
_space_group_name_Hall           '-P 1'
loop_
_symmetry_equiv_pos_site_id
_symmetry_equiv_pos_as_xyz
1 x,y,z
2 -x,-y,-z
_cell_length_a                   17.1946(3)
_cell_length_b                   18.1317(3)
_cell_length_c                   27.9639(6)
_cell_angle_alpha                71.293(2)
_cell_angle_beta                 90.00
_cell_angle_gamma                90.00
_cell_volume                     8257.66
loop_
_atom_site_label
_atom_site_type_symbol
_atom_site_fract_x
_atom_site_fract_y
_atom_site_fract_z
Ir1 Ir 0.00018(8) 0.24171(9) 0.01333(6)
Ir2 Ir 0.50641(8) 0.73038(9) 0.03458(6)
Ir3 Ir 0.50006(8) 0.25829(9) 0.48676(7)
Ir4 Ir 0.00636(8) -0.23052(9) 0.46529(6)
Zn1 Zn 0.7052(2) 0.6887(3) 0.29345(18)
Zn2 Zn 0.2056(2) -0.1893(3) 0.20635(18)
Zn3 Zn 0.7730(2) 0.5168(3) 0.29991(19)
Zn4 Zn 0.2664(6) 0.3690(4) 0.2275(3)
Zn5 Zn 0.2726(3) -0.0168(3) 0.19975(19)
Zn6 Zn -0.2332(6) 0.1310(4) 0.2727(3)
C1 C -0.0432(9) 0.0778(10) 0.0406(6)
C2 C -0.0379(9) -0.0027(10) 0.0616(7)
H1 H -0.0749 -0.0348 0.0534
C3 C 0.0222(11) -0.0356(7) 0.0949(7)
H2 H 0.0258 -0.0900 0.1092
C4 C 0.0769(9) 0.0119(10) 0.1071(6)
C5 C 0.0715(9) 0.0924(10) 0.0861(7)
H3 H 0.1085 0.1245 0.0943
N1 N 0.0115(11) 0.1253(7) 0.0528(7)
C6 C 0.1400(18) -0.0265(19) 0.1432(12)
C7 C -0.1034(10) 0.1139(11) 0.0044(7)
C8 C -0.1664(11) 0.0774(8) -0.0096(8)
H4 H -0.1732 0.0234 0.0049
C9 C -0.2193(10) 0.1208(12) -0.0452(8)
H5 H -0.2619 0.0961 -0.0546
C10 C -0.2092(11) 0.2007(12) -0.0667(7)
H6 H -0.2450 0.2300 -0.0907
C11 C -0.1462(12) 0.2372(8) -0.0526(7)
H7 H -0.1394 0.2913 -0.0672
C12 C -0.0933(9) 0.1938(11) -0.0171(7)
C13 C -0.168(3) 0.204(3) 0.1839(17)
C14 C -0.0942(12) 0.3459(11) 0.0464(7)
C15 C -0.1429(12) 0.3766(9) 0.0749(9)
H8 H -0.1566 0.4296 0.0630
C16 C -0.1713(11) 0.3290(13) 0.1211(9)
H9 H -0.2042 0.3498 0.1403
C17 C -0.1510(12) 0.2507(13) 0.1387(7)
C18 C -0.1023(12) 0.2200(9) 0.1101(8)
H10 H -0.0886 0.1670 0.1220
N2 N -0.0740(10) 0.2676(12) 0.0640(7)
C19 C 0.188(3) 0.333(2) 0.1514(17)
C20 C -0.0686(11) 0.3979(11) -0.0025(7)
C21 C -0.0849(11) 0.4766(12) -0.0248(9)
H11 H -0.1175 0.5024 -0.0083
C22 C -0.0531(13) 0.5172(9) -0.0715(9)
H12 H -0.0641 0.5704 -0.0866
C23 C -0.0049(12) 0.4791(13) -0.0959(7)
H13 H 0.0166 0.5065 -0.1276
C24 C 0.0114(11) 0.4004(13) -0.0736(8)
H14 H 0.0440 0.3746 -0.0902
C25 C -0.0205(12) 0.3598(8) -0.0269(8)
C26 C 0.3189(18) 0.5004(13) 0.1664(8)
C27 C 0.1582(12) 0.2960(12) 0.0080(6)
C28 C 0.2272(9) 0.3272(12) 0.0191(8)
H15 H 0.2677 0.3399 -0.0047
C29 C 0.2362(9) 0.3395(11) 0.0653(9)
H16 H 0.2829 0.3606 0.0728
C30 C 0.1763(12) 0.3206(12) 0.1005(7)
C31 C 0.1073(10) 0.2895(11) 0.0895(7)
H17 H 0.0668 0.2768 0.1133
N3 N 0.0983(9) 0.2772(11) 0.0432(8)
C32 C 0.3500(18) -0.1176(19) 0.1534(12)
C33 C 0.1550(12) 0.2667(12) -0.0345(7)
C34 C 0.2131(9) 0.2713(13) -0.0699(9)
H18 H 0.2616 0.2931 -0.0666
C35 C 0.1995(11) 0.2437(14) -0.1101(8)
H19 H 0.2388 0.2469 -0.1341
C36 C 0.1277(13) 0.2115(13) -0.1150(7)
H20 H 0.1185 0.1929 -0.1422
C37 C 0.0696(9) 0.2069(12) -0.0796(8)
H21 H 0.0211 0.1851 -0.0829
C38 C 0.0832(10) 0.2344(12) -0.0393(7)
C39 C 0.681(2) 0.632(3) 0.2157(15)
C40 C 0.3468(11) 0.6838(10) 0.0281(6)
C41 C 0.2776(9) 0.6421(12) 0.0387(7)
H22 H 0.2366 0.6545 0.0152
C42 C 0.2690(9) 0.5820(11) 0.0841(8)
H23 H 0.2222 0.5537 0.0912
C43 C 0.3296(11) 0.5636(10) 0.1188(6)
C44 C 0.3987(9) 0.6054(11) 0.1082(7)
H24 H 0.4397 0.5929 0.1317
N4 N 0.4074(8) 0.6655(10) 0.0628(7)
C45 C 0.3255(12) 0.2992(15) 0.3115(8)
C46 C 0.3559(12) 0.7477(10) -0.0168(7)
C47 C 0.2973(9) 0.7766(12) -0.0521(9)
H25 H 0.2480 0.7528 -0.0472
C48 C 0.3115(11) 0.8405(13) -0.0946(8)
H26 H 0.2718 0.8600 -0.1184
C49 C 0.3843(13) 0.8756(11) -0.1018(7)
H27 H 0.3939 0.9189 -0.1305
C50 C 0.4429(9) 0.8468(11) -0.0665(9)
H28 H 0.4922 0.8706 -0.0714
C51 C 0.4288(10) 0.7829(12) -0.0240(8)
C52 C 0.6405(19) 0.527(2) 0.3578(13)
C53 C 0.5370(10) -0.1245(11) 0.0538(7)
C54 C 0.5312(10) -0.0626(10) 0.0728(8)
H29 H 0.5674 -0.0217 0.0630
C55 C 0.4717(11) -0.0613(10) 0.1062(8)
H30 H 0.4678 -0.0195 0.1190
C56 C 0.4182(10) -0.1219(11) 0.1206(7)
C57 C 0.4240(10) -0.1837(9) 0.1016(7)
H31 H 0.3878 -0.2247 0.1113
N5 N 0.4835(11) -0.1850(9) 0.0682(7)
C58 C -0.310(3) 0.174(2) 0.3500(17)
C59 C 0.6026(9) -0.1278(11) 0.0196(6)
C60 C 0.6585(11) -0.0709(9) -0.0007(8)
H32 H 0.6636 -0.0287 0.0116
C61 C 0.7068(10) -0.0766(9) -0.0392(8)
H33 H 0.7445 -0.0381 -0.0530
C62 C 0.6992(9) -0.1391(11) -0.0574(6)
H34 H 0.7319 -0.1430 -0.0835
C63 C 0.6434(10) -0.1960(9) -0.0371(7)
H35 H 0.6383 -0.2383 -0.0494
C64 C 0.5951(9) -0.1903(9) 0.0014(7)
C65 C -0.1449(18) -0.383(2) 0.3462(12)
C66 C 0.6078(12) 0.5989(12) 0.0766(6)
C67 C 0.6609(12) 0.5481(10) 0.1079(9)
H36 H 0.6798 0.5053 0.0994
C68 C 0.6862(10) 0.5607(11) 0.1519(8)
H37 H 0.7221 0.5264 0.1731
C69 C 0.6582(12) 0.6240(13) 0.1645(6)
C70 C 0.6051(11) 0.6747(10) 0.1332(7)
H38 H 0.5862 0.7175 0.1417
N6 N 0.5799(9) 0.6622(10) 0.0892(7)
C71 C 0.1842(12) -0.1341(13) 0.2883(7)
C72 C 0.5864(10) 0.5881(12) 0.0294(6)
C73 C 0.6113(10) 0.5295(10) 0.0108(8)
H39 H 0.6440 0.4898 0.0305
C74 C 0.5879(11) 0.5299(10) -0.0368(9)
H40 H 0.6047 0.4903 -0.0494
C75 C 0.5396(11) 0.5887(13) -0.0659(6)
H41 H 0.5238 0.5889 -0.0981
C76 C 0.5147(9) 0.6472(10) -0.0473(7)
H42 H 0.4820 0.6870 -0.0670
C77 C 0.5381(10) 0.6469(9) 0.0003(7)
C78 C -0.1814(15) 0.0013(12) 0.3331(7)
C79 C 0.4038(12) 0.1540(12) 0.4541(6)
C80 C 0.3553(13) 0.1235(9) 0.4254(9)
H43 H 0.3411 0.0706 0.4374
C81 C 0.3278(11) 0.1710(13) 0.3791(8)
H44 H 0.2950 0.1503 0.3597
C82 C 0.3488(11) 0.2491(12) 0.3614(6)
C83 C 0.3973(11) 0.2797(9) 0.3901(8)
H45 H 0.4114 0.3325 0.3781
N7 N 0.4248(10) 0.2322(13) 0.4364(7)
C84 C 0.4312(12) 0.1025(12) 0.5023(7)
C85 C 0.4162(11) 0.0233(12) 0.5232(9)
H46 H 0.3841 -0.0019 0.5061
C86 C 0.4486(13) -0.0186(9) 0.5695(9)
H47 H 0.4384 -0.0721 0.5837
C87 C 0.4960(13) 0.0187(12) 0.5949(7)
H48 H 0.5179 -0.0096 0.6262
C88 C 0.5110(11) 0.0979(12) 0.5739(8)
H49 H 0.5431 0.1231 0.5910
C89 C 0.4787(12) 0.1398(8) 0.5276(8)
C90 C 0.4564(9) 0.4219(11) 0.4590(7)
C91 C 0.4613(10) 0.5024(10) 0.4378(8)
H50 H 0.4234 0.5343 0.4454
C92 C 0.5222(12) 0.5356(7) 0.4053(7)
H51 H 0.5256 0.5900 0.3910
C93 C 0.5782(9) 0.4883(11) 0.3941(7)
C94 C 0.5733(9) 0.4078(10) 0.4153(7)
H52 H 0.6112 0.3759 0.4078
N8 N 0.5124(11) 0.3746(7) 0.4478(7)
C95 C 0.3969(9) 0.3853(10) 0.4956(7)
C96 C 0.3338(11) 0.4223(8) 0.5091(8)
H53 H 0.3273 0.4763 0.4943
C97 C 0.2805(10) 0.3795(11) 0.5445(8)
H54 H 0.2379 0.4046 0.5537
C98 C 0.2903(10) 0.2996(11) 0.5665(7)
H55 H 0.2542 0.2707 0.5904
C99 C 0.3533(11) 0.2626(8) 0.5530(7)
H56 H 0.3599 0.2085 0.5678
C100 C 0.4066(9) 0.3054(10) 0.5175(7)
O1 O 0.1886(12) 0.0188(12) 0.1516(10)
O2 O 0.1429(11) -0.0989(12) 0.1605(8)
C101 C -0.3386(13) 0.2043(12) 0.4922(6)
C102 C -0.2710(10) 0.1719(12) 0.4803(8)
H57 H -0.2296 0.1590 0.5034
C103 C -0.2647(9) 0.1584(11) 0.4342(9)
H58 H -0.2190 0.1365 0.4262
C104 C -0.3260(12) 0.1775(12) 0.4000(7)
C105 C -0.3936(10) 0.2099(11) 0.4119(7)
H59 H -0.4350 0.2228 0.3888
N9 N -0.3999(9) 0.2233(10) 0.4580(8)
O3 O -0.1993(18) 0.2364(17) 0.2163(11)
O4 O -0.1675(18) 0.1327(17) 0.1984(11)
C106 C -0.3466(13) 0.2333(12) 0.5350(7)
C107 C -0.2880(10) 0.2301(13) 0.5699(9)
H60 H -0.2394 0.2086 0.5665
C108 C -0.3013(11) 0.2587(13) 0.6097(8)
H61 H -0.2617 0.2566 0.6332
C109 C -0.3733(13) 0.2905(13) 0.6147(7)
H62 H -0.3823 0.3099 0.6416
C110 C -0.4319(9) 0.2937(12) 0.5798(9)
H63 H -0.4805 0.3152 0.5832
C111 C -0.4185(10) 0.2651(12) 0.5400(7)
O5 O 0.2511(15) 0.3273(16) 0.1674(11)
O6 O 0.1257(17) 0.3399(19) 0.1729(11)
C112 C 0.0413(9) -0.3743(12) 0.4448(7)
C113 C 0.0345(10) -0.4364(10) 0.4260(8)
H64 H 0.0714 -0.4767 0.4349
C114 C -0.0268(12) -0.4387(10) 0.3941(7)
H65 H -0.0314 -0.4806 0.3814
C115 C -0.0814(9) -0.3789(12) 0.3810(7)
C116 C -0.0746(9) -0.3169(10) 0.3998(7)
H66 H -0.1115 -0.2765 0.3909
N10 N -0.0133(10) -0.3146(9) 0.4317(7)
O7 O 0.3758(16) 0.4563(16) 0.1844(10)
O8 O 0.2562(15) 0.4909(15) 0.1890(9)
C117 C 0.1012(10) -0.3743(11) 0.4805(7)
C118 C 0.1572(12) -0.4310(9) 0.5007(8)
H67 H 0.1613 -0.4741 0.4891
C119 C 0.2071(10) -0.4241(10) 0.5382(8)
H68 H 0.2449 -0.4625 0.5518
C120 C 0.2010(10) -0.3604(12) 0.5553(7)
H69 H 0.2348 -0.3557 0.5806
C121 C 0.1451(11) -0.3036(10) 0.5351(7)
H70 H 0.1410 -0.2606 0.5467
C122 C 0.0951(9) -0.3106(10) 0.4977(8)
O9 O 0.3020(12) -0.1705(13) 0.1642(8)
O10 O 0.3542(11) -0.0623(12) 0.1703(8)
C123 C 0.1080(11) -0.1006(11) 0.4241(6)
C124 C 0.1612(11) -0.0499(10) 0.3928(8)
H71 H 0.1806 -0.0075 0.4016
C125 C 0.1857(10) -0.0618(11) 0.3485(7)
H72 H 0.2217 -0.0275 0.3274
C126 C 0.1571(10) -0.1245(12) 0.3355(6)
C127 C 0.1039(10) -0.1752(10) 0.3667(7)
H73 H 0.0845 -0.2176 0.3579
N11 N 0.0793(9) -0.1633(10) 0.4110(6)
O11 O 0.7399(14) 0.5918(19) 0.2342(10)
O12 O 0.6552(16) 0.6832(16) 0.2290(10)
C128 C 0.0868(11) -0.0877(12) 0.4707(6)
C129 C 0.1105(10) -0.0284(10) 0.4889(7)
H74 H 0.1428 0.0116 0.4692
C130 C 0.0864(11) -0.0283(10) 0.5364(8)
H75 H 0.1024 0.0118 0.5487
C131 C 0.0386(12) -0.0875(13) 0.5656(6)
H76 H 0.0223 -0.0874 0.5976
C132 C 0.0149(10) -0.1468(10) 0.5474(7)
H77 H -0.0174 -0.1868 0.5671
C133 C 0.0390(10) -0.1469(10) 0.4999(8)
O13 O 0.3313(17) 0.3733(14) 0.3001(10)
O14 O 0.2994(16) 0.2616(14) 0.2820(9)
C134 C -0.1534(11) -0.1813(9) 0.4721(6)
C135 C -0.2230(9) -0.1404(11) 0.4606(7)
H78 H -0.2641 -0.1525 0.4840
C136 C -0.2317(8) -0.0815(11) 0.4147(8)
H79 H -0.2788 -0.0539 0.4070
C137 C -0.1708(11) -0.0636(9) 0.3802(6)
C138 C -0.1012(9) -0.1045(11) 0.3916(6)
H80 H -0.0601 -0.0923 0.3682
N12 N -0.0925(8) -0.1633(10) 0.4375(7)
O15 O 0.6423(11) 0.5965(13) 0.3392(8)
O16 O 0.6900(14) 0.4803(13) 0.3493(10)
C139 C -0.1447(12) -0.2507(10) 0.5174(7)
C140 C -0.2021(9) -0.2786(13) 0.5537(9)
H81 H -0.2513 -0.2547 0.5494
C141 C -0.1867(12) -0.3419(14) 0.5964(8)
H82 H -0.2255 -0.3608 0.6210
C142 C -0.1140(14) -0.3772(11) 0.6027(7)
H83 H -0.1037 -0.4200 0.6316
C143 C -0.0567(10) -0.3493(12) 0.5664(9)
H84 H -0.0075 -0.3732 0.5707
C144 C -0.0720(10) -0.2860(12) 0.5237(7)
O17 O -0.3685(19) 0.1614(18) 0.3259(12)
O18 O -0.2484(16) 0.1726(16) 0.3332(10)
O19 O -0.1983(11) -0.3317(13) 0.3364(8)
O20 O -0.1420(12) -0.4400(12) 0.3303(8)
O21 O 0.2416(12) -0.0910(16) 0.2642(8)
O22 O 0.1546(14) -0.1845(14) 0.2703(8)
O23 O -0.1224(17) 0.0464(15) 0.3164(11)
C145 C 0.777(2) 0.950(3) 0.2031(18)
N13 N 0.3452(18) -0.3903(17) 0.2746(13)
C146 C 0.774(3) 0.967(3) 0.1458(17)
O24 O 0.7654(17) 0.7928(15) 0.2467(12)
O25 O 0.2586(17) -0.2887(15) 0.2551(12)
C147 C 0.273(4) -0.463(4) 0.3497(18)
C148 C 0.284(2) -0.449(2) 0.2931(17)
C149 C 0.825(3) 0.8176(19) 0.250(2)
O26 O 0.8170(16) 0.4205(16) 0.2838(11)
O27 O 0.6380(15) 0.7611(17) 0.3161(11)
O28 O 0.3209(17) 0.0798(17) 0.2128(12)
O29 O -0.2470(14) 0.0116(15) 0.3104(10)
C150 C 0.903(3) 0.932(3) 0.2475(19)
C151 C 0.977(3) 0.935(4) 0.217(3)
N14 N 0.8404(18) 0.8978(18) 0.2241(13)
O30 O 0.158(3) 0.385(3) 0.2486(18)
O31 O 0.1350(14) -0.2578(14) 0.1845(10)
C152 C 0.410(3) -0.420(3) 0.251(2)
C153 C 0.476(3) -0.444(5) 0.289(3)
C154 C 0.318(2) -0.314(2) 0.2449(18)
O33 O -0.337(2) 0.117(2) 0.2509(16)
C155 C 0.134(3) -0.3257(19) 0.188(2)
C156 C 0.060(3) -0.447(2) 0.223(3)
C157 C -0.022(5) -0.275(5) 0.236(4)
C158 C -0.028(4) -0.463(4) 0.218(4)
C159 C 0.043(4) -0.337(4) 0.2566(19)
N15 N 0.067(3) -0.364(2) 0.2144(19)
C160 C 0.627(3) 0.828(2) 0.317(2)
C161 C 0.550(4) 0.839(4) 0.2421(19)
C162 C 0.532(4) 0.933(3) 0.289(3)
C163 C 0.492(5) 0.770(5) 0.253(3)
C164 C 0.558(7) 0.990(4) 0.238(4)
N16 N 0.557(3) 0.855(3) 0.291(2)
Ir2_2 Ir 0.50641(8) -0.26962(9) 0.03458(6)
Ir3_2 Ir -0.49994(8) 0.25829(9) 0.48676(7)
Zn1_2 Zn -0.2948(2) -0.3113(3) 0.29345(18)
Zn3_2 Zn -0.2270(2) -0.4832(3) 0.29991(19)
N5_2 N 0.4835(11) 0.8150(9) 0.0682(7)
C64_2 C 0.5951(9) 0.8097(9) 0.0014(7)
N9_2 N 0.6001(9) 0.2233(10) 0.4580(8)
C111_2 C 0.5815(10) 0.2651(12) 0.5400(7)
O19_2 O 0.8017(11) 0.6683(13) 0.3364(8)
O20_2 O 0.8580(12) 0.5600(12) 0.3303(8)
O32 O 0.1331(18) 0.7216(18) 0.6516(13)
C165 C 0.438(6) 0.613(3) 0.763(3)
O34 O 0.405(5) 0.627(4) 0.723(3)
C166 C 0.419(6) 0.750(6) 0.837(4)
C167 C 0.389(4) 0.685(6) 0.817(4)
C168 C 0.527(3) 0.702(5) 0.788(3)
C169 C 0.530(6) 0.790(5) 0.759(5)
N17 N 0.447(4) 0.677(4) 0.780(2)
O35 O 0.367(2) 0.218(2) 0.1540(14)
N18 N 0.973(3) 0.846(3) 0.715(2)
O36 O 0.898(4) 0.785(5) 0.671(3)
C170 C 0.880(4) 0.869(4) 0.775(3)
C171 C 1.015(5) 0.710(4) 0.747(4)
C172 C 1.038(3) 0.794(5) 0.714(4)
C173 C 0.967(4) 0.869(6) 0.761(3)
C174 C 0.900(3) 0.822(7) 0.700(4)
loop_
_geom_bond_atom_site_label_1
_geom_bond_atom_site_label_2
_geom_bond_site_symmetry_1
_geom_bond_site_symmetry_2
Ir1 N1 1_555 1_555
Ir2 N4 1_555 1_555
Ir3 N7 1_555 1_555
Ir4 N10 1_555 1_555
Zn1 O12 1_555 1_555
Zn2 O2 1_555 1_555
Zn3 O11 1_555 1_555
Zn4 O5 1_555 1_555
Zn5 O1 1_555 1_555
Zn6 O3 1_555 1_555
C1 C2 1_555 1_555
C2 H1 1_555 1_555
C3 C2 1_555 1_555
H2 C3 1_555 1_555
C4 C3 1_555 1_555
C5 C4 1_555 1_555
H3 C5 1_555 1_555
N1 C1 1_555 1_555
C6 C4 1_555 1_555
C7 C1 1_555 1_555
C8 C7 1_555 1_555
H4 C8 1_555 1_555
C9 C8 1_555 1_555
H5 C9 1_555 1_555
C10 C9 1_555 1_555
H6 C10 1_555 1_555
C11 C10 1_555 1_555
H7 C11 1_555 1_555
C12 Ir1 1_555 1_555
C13 C17 1_555 1_555
C14 C15 1_555 1_555
C15 H8 1_555 1_555
C16 C15 1_555 1_555
H9 C16 1_555 1_555
C17 C16 1_555 1_555
C18 C17 1_555 1_555
H10 C18 1_555 1_555
N2 Ir1 1_555 1_555
C19 C30 1_555 1_555
C20 C14 1_555 1_555
C21 C20 1_555 1_555
H11 C21 1_555 1_555
C22 C21 1_555 1_555
H12 C22 1_555 1_555
C23 C22 1_555 1_555
H13 C23 1_555 1_555
C24 C23 1_555 1_555
H14 C24 1_555 1_555
C25 Ir1 1_555 1_555
C26 C43 1_555 1_555
C27 C28 1_555 1_555
C28 H15 1_555 1_555
C29 C28 1_555 1_555
H16 C29 1_555 1_555
C30 C29 1_555 1_555
C31 C30 1_555 1_555
H17 C31 1_555 1_555
N3 Ir1 1_555 1_555
C32 C56 1_555 1_555
C33 C27 1_555 1_555
C34 C33 1_555 1_555
H18 C34 1_555 1_555
C35 C34 1_555 1_555
H19 C35 1_555 1_555
C36 C35 1_555 1_555
H20 C36 1_555 1_555
C37 C36 1_555 1_555
H21 C37 1_555 1_555
C38 Ir1 1_555 1_555
C39 C69 1_555 1_555
C40 C41 1_555 1_555
C41 H22 1_555 1_555
C42 C41 1_555 1_555
H23 C42 1_555 1_555
C43 C42 1_555 1_555
C44 C43 1_555 1_555
H24 C44 1_555 1_555
N4 C40 1_555 1_555
C45 C82 1_555 1_555
C46 C40 1_555 1_555
C47 C46 1_555 1_555
H25 C47 1_555 1_555
C48 C47 1_555 1_555
H26 C48 1_555 1_555
C49 C48 1_555 1_555
H27 C49 1_555 1_555
C50 C49 1_555 1_555
H28 C50 1_555 1_555
C51 Ir2 1_555 1_555
C52 C93 1_555 1_555
C53 C54 1_555 1_555
C54 H29 1_555 1_555
C55 C54 1_555 1_555
H30 C55 1_555 1_555
C56 C55 1_555 1_555
C57 C56 1_555 1_555
H31 C57 1_555 1_555
N5 C53 1_555 1_555
C58 C104 1_555 1_555
C59 C53 1_555 1_555
C60 C59 1_555 1_555
H32 C60 1_555 1_555
C61 C60 1_555 1_555
H33 C61 1_555 1_555
C62 C61 1_555 1_555
H34 C62 1_555 1_555
C63 C62 1_555 1_555
H35 C63 1_555 1_555
C64 C59 1_555 1_555
C65 C115 1_555 1_555
C66 C67 1_555 1_555
C67 H36 1_555 1_555
C68 C67 1_555 1_555
H37 C68 1_555 1_555
C69 C68 1_555 1_555
C70 C69 1_555 1_555
H38 C70 1_555 1_555
N6 Ir2 1_555 1_555
C71 C126 1_555 1_555
C72 C66 1_555 1_555
C73 C72 1_555 1_555
H39 C73 1_555 1_555
C74 C73 1_555 1_555
H40 C74 1_555 1_555
C75 C74 1_555 1_555
H41 C75 1_555 1_555
C76 C75 1_555 1_555
H42 C76 1_555 1_555
C77 Ir2 1_555 1_555
C78 C137 1_555 1_555
C79 C80 1_555 1_555
C80 H43 1_555 1_555
C81 C80 1_555 1_555
H44 C81 1_555 1_555
C82 C81 1_555 1_555
C83 C82 1_555 1_555
H45 C83 1_555 1_555
N7 C79 1_555 1_555
C84 C79 1_555 1_555
C85 C84 1_555 1_555
H46 C85 1_555 1_555
C86 C85 1_555 1_555
H47 C86 1_555 1_555
C87 C86 1_555 1_555
H48 C87 1_555 1_555
C88 C87 1_555 1_555
H49 C88 1_555 1_555
C89 Ir3 1_555 1_555
C90 C91 1_555 1_555
C91 H50 1_555 1_555
C92 C91 1_555 1_555
H51 C92 1_555 1_555
C93 C92 1_555 1_555
C94 C93 1_555 1_555
H52 C94 1_555 1_555
N8 Ir3 1_555 1_555
C95 C90 1_555 1_555
C96 C95 1_555 1_555
H53 C96 1_555 1_555
C97 C96 1_555 1_555
H54 C97 1_555 1_555
C98 C97 1_555 1_555
H55 C98 1_555 1_555
C99 C98 1_555 1_555
H56 C99 1_555 1_555
C100 Ir3 1_555 1_555
O1 C6 1_555 1_555
O2 C6 1_555 1_555
C101 C102 1_555 1_555
C102 H57 1_555 1_555
C103 C102 1_555 1_555
H58 C103 1_555 1_555
C104 C103 1_555 1_555
C105 C104 1_555 1_555
H59 C105 1_555 1_555
N9 C101 1_555 1_555
O3 C13 1_555 1_555
O4 C13 1_555 1_555
C106 C101 1_555 1_555
C107 C106 1_555 1_555
H60 C107 1_555 1_555
C108 C107 1_555 1_555
H61 C108 1_555 1_555
C109 C108 1_555 1_555
H62 C109 1_555 1_555
C110 C109 1_555 1_555
H63 C110 1_555 1_555
C111 C106 1_555 1_555
O5 C19 1_555 1_555
O6 C19 1_555 1_555
C112 C113 1_555 1_555
C113 H64 1_555 1_555
C114 C113 1_555 1_555
H65 C114 1_555 1_555
C115 C114 1_555 1_555
C116 C115 1_555 1_555
H66 C116 1_555 1_555
N10 C112 1_555 1_555
O7 C26 1_555 1_555
O8 Zn4 1_555 1_555
C117 C112 1_555 1_555
C118 C117 1_555 1_555
H67 C118 1_555 1_555
C119 C118 1_555 1_555
H68 C119 1_555 1_555
C120 C119 1_555 1_555
H69 C120 1_555 1_555
C121 C120 1_555 1_555
H70 C121 1_555 1_555
C122 Ir4 1_555 1_555
O9 Zn2 1_555 1_555
O10 Zn5 1_555 1_555
C123 C124 1_555 1_555
C124 H71 1_555 1_555
C125 C124 1_555 1_555
H72 C125 1_555 1_555
C126 C125 1_555 1_555
C127 C126 1_555 1_555
H73 C127 1_555 1_555
N11 Ir4 1_555 1_555
O11 C39 1_555 1_555
O12 C39 1_555 1_555
C128 C123 1_555 1_555
C129 C128 1_555 1_555
H74 C129 1_555 1_555
C130 C129 1_555 1_555
H75 C130 1_555 1_555
C131 C130 1_555 1_555
H76 C131 1_555 1_555
C132 C131 1_555 1_555
H77 C132 1_555 1_555
C133 Ir4 1_555 1_555
O13 C45 1_555 1_555
O14 Zn4 1_555 1_555
C134 C135 1_555 1_555
C135 H78 1_555 1_555
C136 C135 1_555 1_555
H79 C136 1_555 1_555
C137 C136 1_555 1_555
C138 C137 1_555 1_555
H80 C138 1_555 1_555
N12 Ir4 1_555 1_555
O15 Zn1 1_555 1_555
O16 Zn3 1_555 1_555
C139 C134 1_555 1_555
C140 C139 1_555 1_555
H81 C140 1_555 1_555
C141 C140 1_555 1_555
H82 C141 1_555 1_555
C142 C141 1_555 1_555
H83 C142 1_555 1_555
C143 C142 1_555 1_555
H84 C143 1_555 1_555
C144 Ir4 1_555 1_555
O17 C58 1_555 1_555
O18 Zn6 1_555 1_555
O19 C65 1_555 1_555
O20 C65 1_555 1_555
O21 Zn5 1_555 1_555
O22 Zn2 1_555 1_555
O23 C78 1_555 1_555
C145 C146 1_555 1_555
N13 C148 1_555 1_555
O24 Zn1 1_555 1_555
O25 Zn2 1_555 1_555
C147 C148 1_555 1_555
C149 O24 1_555 1_555
O26 Zn3 1_555 1_555
O27 Zn1 1_555 1_555
O28 Zn5 1_555 1_555
O29 Zn6 1_555 1_555
C150 C151 1_555 1_555
N14 C145 1_555 1_555
O30 Zn4 1_555 1_555
O31 Zn2 1_555 1_555
C152 N13 1_555 1_555
C153 C152 1_555 1_555
C154 N13 1_555 1_555
O33 Zn6 1_555 1_555
C155 O31 1_555 1_555
C156 C158 1_555 1_555
C157 C159 1_555 1_555
C159 N15 1_555 1_555
N15 C155 1_555 1_555
C160 O27 1_555 1_555
C161 C163 1_555 1_555
C162 C164 1_555 1_555
N16 C160 1_555 1_555
C165 O34 1_555 1_555
C166 C167 1_555 1_555
C167 N17 1_555 1_555
C168 C169 1_555 1_555
N17 C165 1_555 1_555
N18 C172 1_555 1_555
O36 C174 1_555 1_555
C170 C173 1_555 1_555
C171 C172 1_555 1_555
C173 N18 1_555 1_555
C174 N18 1_555 1_555
Ir2_2 N5 1_555 1_555
Ir3_2 N9 1_555 1_555
Zn1_2 O19 1_555 1_555
Zn3_2 O20 1_555 1_555
N5_2 Ir2 1_555 1_555
C64_2 Ir2 1_555 1_555
N9_2 Ir3 1_555 1_555
C111_2 Ir3 1_555 1_555
O19_2 Zn1 1_555 1_555
O20_2 Zn3 1_555 1_555
C5 N1 1_555 1_555
C7 C12 1_555 1_555
C11 C12 1_555 1_555
C14 N2 1_555 1_555
C18 N2 1_555 1_555
C20 C25 1_555 1_555
C24 C25 1_555 1_555
C26 O8 1_555 1_555
C27 N3 1_555 1_555
C31 N3 1_555 1_555
C32 O9 1_555 1_555
C32 O10 1_555 1_555
C33 C38 1_555 1_555
C37 C38 1_555 1_555
C44 N4 1_555 1_555
C45 O14 1_555 1_555
C46 C51 1_555 1_555
C50 C51 1_555 1_555
C52 O15 1_555 1_555
C52 O16 1_555 1_555
C57 N5 1_555 1_555
C58 O18 1_555 1_555
C63 C64 1_555 1_555
C64 Ir2_2 1_555 1_555
C66 N6 1_555 1_555
C70 N6 1_555 1_555
C71 O21 1_555 1_555
C71 O22 1_555 1_555
C72 C77 1_555 1_555
C76 C77 1_555 1_555
C78 O29 1_555 1_555
C83 N7 1_555 1_555
C84 C89 1_555 1_555
C88 C89 1_555 1_555
C90 N8 1_555 1_555
C94 N8 1_555 1_555
C95 C100 1_555 1_555
C99 C100 1_555 1_555
C105 N9 1_555 1_555
C110 C111 1_555 1_555
C111 Ir3_2 1_555 1_555
C116 N10 1_555 1_555
C117 C122 1_555 1_555
C121 C122 1_555 1_555
C123 N11 1_555 1_555
C127 N11 1_555 1_555
C128 C133 1_555 1_555
C132 C133 1_555 1_555
C134 N12 1_555 1_555
C138 N12 1_555 1_555
C139 C144 1_555 1_555
C143 C144 1_555 1_555
O25 C154 1_555 1_555
C149 N14 1_555 1_555
C150 N14 1_555 1_555
C156 N15 1_555 1_555
C161 N16 1_555 1_555
C162 N16 1_555 1_555
C168 N17 1_555 1_555

#END
