
#######################################################################
#
#                 Cambridge Crystallographic Data Centre
#                                CCDC 
#
#######################################################################
#
# If this CIF has been generated from an entry in the Cambridge 
# Structural Database, then it will include bibliographic, chemical, 
# crystal, experimental, refinement or atomic coordinate data resulting 
# from the CCDC's data processing and validation procedures.
#
#######################################################################

data_FUNBIA
_symmetry_cell_setting           orthorhombic
_symmetry_space_group_name_H-M   'P m c 21'
_symmetry_Int_Tables_number      26
_space_group_name_Hall           'P 2c -2'
loop_
_symmetry_equiv_pos_site_id
_symmetry_equiv_pos_as_xyz
1 x,y,z
2 -x,-y,1/2+z
3 x,-y,1/2+z
4 -x,y,z
_cell_length_a                   15.6540(10)
_cell_length_b                   15.9467(11)
_cell_length_c                   11.6268(8)
_cell_angle_alpha                90
_cell_angle_beta                 90
_cell_angle_gamma                90
_cell_volume                     2902.39
loop_
_atom_site_label
_atom_site_type_symbol
_atom_site_fract_x
_atom_site_fract_y
_atom_site_fract_z
Zn1 Zn 0.0000 0.42024(5) 0.85803(14)
Zn2 Zn 0.0000 0.23809(5) 0.85703(13)
O1 O 0.0994(4) 0.3963(4) 0.7508(5)
O2 O 0.0830(4) 0.3984(4) -0.0053(5)
O3 O 0.1022(4) 0.2624(4) 0.7583(6)
O4 O 0.0784(4) 0.2590(4) -0.0017(5)
N1 N 0.0000 0.5470(3) 0.8574(8)
N2 N 0.0000 0.8109(4) 0.8338(10)
N3 N 0.0000 1.1140(5) 0.8727(10)
N4 N 0.0000 0.8512(6) 0.9217(11)
C1 C 0.0000 0.9405(7) 0.9013(9)
C2 C 0.1950(7) 0.3271(5) 0.0836(10)
C3 C 0.1214(6) 0.3241(5) 0.0086(8)
C4 C 0.1982(6) 0.3256(5) 0.6268(8)
C5 C 0.1188(6) 0.3327(4) 0.7071(8)
C6 C 0.3441(6) 0.3229(5) 0.4847(8)
C7 C 0.0000 0.6735(4) 0.7514(7)
H1 H 0.0000 0.6998 0.6800
C8 C 0.3379(7) 0.3177(6) 0.2244(9)
C9 C 0.0000 0.5922(5) 0.9553(8)
H2 H 0.0000 0.5644 1.0257
C10 C 0.0000 0.5888(5) 0.7582(8)
H3 H 0.0000 0.5582 0.6901
C11 C 0.4205(7) 0.3197(6) 0.2916(8)
C12 C 0.4221(7) 0.3149(6) 0.4101(8)
C13 C 0.2582(6) 0.3890(6) 0.6387(7)
H4 H 0.2510 0.4312 0.6929
C14 C 0.5000 0.3226(7) 0.2379(10)
H5 H 0.5000 0.3269 0.1582
C15 C 0.5000 0.3090(11) 0.4716(14)
H6 H 0.5000 0.3013 0.5509
C16 C 0.2758(5) 0.2609(5) 0.4735(7)
H7 H 0.2782 0.2198 0.4169
C17 C 0.2077(6) 0.2646(5) 0.5489(7)
H8 H 0.1664 0.2228 0.5452
C18 C 0.3241(6) 0.2531(6) 0.1461(8)
H9 H 0.3605 0.2070 0.1436
C19 C 0.0000 0.7211(4) 0.8516(9)
C20 C 0.2564(6) 0.2587(6) 0.0735(8)
H10 H 0.2491 0.2183 0.0166
C21 C 0.0000 0.6802(5) 0.9535(9)
H11 H 0.0000 0.7103 1.0221
C22 C 0.3289(6) 0.3877(6) 0.5680(8)
H12 H 0.3687 0.4307 0.5745
C23 C 0.0000 0.9927(10) 0.9975(15)
H13 H 0.0000 0.9719 1.0722
C24 C 0.0000 1.0768(12) 0.9744(14)
H14 H 0.0000 1.1122 1.0379
C25 C 0.0000 1.0597(11) 0.7855(15)
H15 H 0.0000 1.0826 0.7119
C26 C 0.2145(6) 0.3893(6) 0.1630(8)
H16 H 0.1789 0.4358 0.1674
C27 C 0.0000 0.9727(11) 0.7924(13)
H17 H 0.0000 0.9388 0.7273
C28 C 0.2847(5) 0.3857(5) 0.2363(7)
H18 H 0.2951 0.4272 0.2906
Zn1_2 Zn 0.0000 0.42024(5) -0.14197(14)
Zn1_3 Zn 1.0000 0.42024(5) -0.14197(14)
Zn1_4 Zn 1.0000 0.42024(5) 0.85803(14)
Zn2_2 Zn 0.0000 0.23809(5) -0.14297(13)
Zn2_3 Zn 0.0000 1.23809(5) 0.85703(13)
Zn2_4 Zn 1.0000 0.23809(5) -0.14297(13)
Zn2_5 Zn 1.0000 0.23809(5) 0.85703(13)
O1C O 0.9006(4) 0.3963(4) 0.7508(5)
O1C_2 O -0.0994(4) 0.3963(4) 0.7508(5)
O2C O 0.9170(4) 0.3984(4) -0.0053(5)
O2_2 O 0.0830(4) 0.3984(4) 0.9947(5)
O2C_2 O -0.0830(4) 0.3984(4) 0.9947(5)
O3C O 0.8978(4) 0.2624(4) 0.7583(6)
O3C_2 O -0.1022(4) 0.2624(4) 0.7583(6)
O4C O 0.9216(4) 0.2590(4) -0.0017(5)
O4_2 O 0.0784(4) 0.2590(4) 0.9983(5)
O4C_2 O -0.0784(4) 0.2590(4) 0.9983(5)
N3_2 N 0.0000 0.1140(5) 0.8727(10)
C2C C 0.8050(7) 0.3271(5) 0.0836(10)
C3C C 0.8786(6) 0.3241(5) 0.0086(8)
C4C C 0.8018(6) 0.3256(5) 0.6268(8)
C5C C 0.8812(6) 0.3327(4) 0.7071(8)
C6C C 0.6559(6) 0.3229(5) 0.4847(8)
C8C C 0.6621(7) 0.3177(6) 0.2244(9)
C11C C 0.5795(7) 0.3197(6) 0.2916(8)
C12C C 0.5779(7) 0.3149(6) 0.4101(8)
C13C C 0.7418(6) 0.3890(6) 0.6387(7)
H4C H 0.7490 0.4312 0.6929
C16C C 0.7242(5) 0.2609(5) 0.4735(7)
H7C H 0.7218 0.2198 0.4169
C17C C 0.7923(6) 0.2646(5) 0.5489(7)
H8C H 0.8336 0.2228 0.5452
C18C C 0.6759(6) 0.2531(6) 0.1461(8)
H9C H 0.6395 0.2070 0.1436
C20C C 0.7436(6) 0.2587(6) 0.0735(8)
H10C H 0.7509 0.2183 0.0166
C22C C 0.6711(6) 0.3877(6) 0.5680(8)
H12C H 0.6313 0.4307 0.5745
C26C C 0.7855(6) 0.3893(6) 0.1630(8)
H16C H 0.8211 0.4358 0.1674
C28C C 0.7153(5) 0.3857(5) 0.2363(7)
H18C H 0.7049 0.4272 0.2906
loop_
_geom_bond_atom_site_label_1
_geom_bond_atom_site_label_2
_geom_bond_site_symmetry_1
_geom_bond_site_symmetry_2
Zn1 O1 1_555 1_555
Zn2 O3 1_555 1_555
O1 C5 1_555 1_555
O2 C3 1_555 1_555
O3 C5 1_555 1_555
O4 C3 1_555 1_555
N1 Zn1 1_555 1_555
N2 N4 1_555 1_555
N3 C24 1_555 1_555
N4 C1 1_555 1_555
C1 C23 1_555 1_555
C2 C3 1_555 1_555
C4 C5 1_555 1_555
C6 C12 1_555 1_555
C7 H1 1_555 1_555
C8 C11 1_555 1_555
C9 N1 1_555 1_555
H2 C9 1_555 1_555
C10 N1 1_555 1_555
H3 C10 1_555 1_555
C11 C12 1_555 1_555
C12 C15 1_555 1_555
C13 C4 1_555 1_555
H4 C13 1_555 1_555
C14 C11 1_555 1_555
H5 C14 1_555 1_555
C15 H6 1_555 1_555
C16 C6 1_555 1_555
H7 C16 1_555 1_555
C17 C4 1_555 1_555
H8 C17 1_555 1_555
C18 C8 1_555 1_555
H9 C18 1_555 1_555
C19 N2 1_555 1_555
C20 C2 1_555 1_555
H10 C20 1_555 1_555
C21 C9 1_555 1_555
H11 C21 1_555 1_555
C22 C6 1_555 1_555
H12 C22 1_555 1_555
C23 H13 1_555 1_555
C24 C23 1_555 1_555
H14 C24 1_555 1_555
C25 N3 1_555 1_555
H15 C25 1_555 1_555
C26 C2 1_555 1_555
H16 C26 1_555 1_555
C27 C1 1_555 1_555
H17 C27 1_555 1_555
C28 C8 1_555 1_555
H18 C28 1_555 1_555
Zn1_2 O2 1_555 1_555
Zn1_3 O2C 1_555 1_555
Zn1_4 O1C 1_555 1_555
Zn2_2 O4 1_555 1_555
Zn2_3 N3 1_555 1_555
Zn2_4 O4C 1_555 1_555
Zn2_5 O3C 1_555 1_555
O1C C5C 1_555 1_555
O1C_2 Zn1 1_555 1_555
O2C C3C 1_555 1_555
O2_2 Zn1 1_555 1_555
O2C_2 Zn1 1_555 1_555
O3C C5C 1_555 1_555
O3C_2 Zn2 1_555 1_555
O4C C3C 1_555 1_555
O4_2 Zn2 1_555 1_555
O4C_2 Zn2 1_555 1_555
N3_2 Zn2 1_555 1_555
C2C C3C 1_555 1_555
C4C C5C 1_555 1_555
C6C C12C 1_555 1_555
C8C C11C 1_555 1_555
C11C C14 1_555 1_555
C12C C15 1_555 1_555
C13C C4C 1_555 1_555
H4C C13C 1_555 1_555
C16C C6C 1_555 1_555
H7C C16C 1_555 1_555
C17C C4C 1_555 1_555
H8C C17C 1_555 1_555
C18C C8C 1_555 1_555
H9C C18C 1_555 1_555
C20C C2C 1_555 1_555
H10C C20C 1_555 1_555
C22C C6C 1_555 1_555
H12C C22C 1_555 1_555
C26C C2C 1_555 1_555
H16C C26C 1_555 1_555
C28C C8C 1_555 1_555
H18C C28C 1_555 1_555
C7 C10 1_555 1_555
C7 C19 1_555 1_555
C13 C22 1_555 1_555
C16 C17 1_555 1_555
C18 C20 1_555 1_555
C19 C21 1_555 1_555
C25 C27 1_555 1_555
C26 C28 1_555 1_555
C11C C12C 1_555 1_555
C13C C22C 1_555 1_555
C16C C17C 1_555 1_555
C18C C20C 1_555 1_555
C26C C28C 1_555 1_555

#END
