
#######################################################################
#
#                 Cambridge Crystallographic Data Centre
#                                CCDC 
#
#######################################################################
#
# If this CIF has been generated from an entry in the Cambridge 
# Structural Database, then it will include bibliographic, chemical, 
# crystal, experimental, refinement or atomic coordinate data resulting 
# from the CCDC's data processing and validation procedures.
#
#######################################################################

data_FUNBAS
_symmetry_cell_setting           monoclinic
_symmetry_space_group_name_H-M   'P 21'
_symmetry_Int_Tables_number      4
_space_group_name_Hall           'P 2yb'
loop_
_symmetry_equiv_pos_site_id
_symmetry_equiv_pos_as_xyz
1 x,y,z
2 -x,1/2+y,-z
_cell_length_a                   14.008(3)
_cell_length_b                   11.5210(13)
_cell_length_c                   15.701(3)
_cell_angle_alpha                90
_cell_angle_beta                 96.679(10)
_cell_angle_gamma                90
_cell_volume                     2516.73
loop_
_atom_site_label
_atom_site_type_symbol
_atom_site_fract_x
_atom_site_fract_y
_atom_site_fract_z
Zn1 Zn 0.8043(3) 0.9048(5) 1.01692(19)
Zn2 Zn 0.5954(3) 0.9044(4) 0.9979(2)
O1 O 0.615(2) 0.7710(19) 0.9138(15)
O2 O 0.7768(19) 0.7709(17) 0.9326(14)
O3 O 0.624(2) 0.7680(19) 0.0803(15)
O4 O 0.791(2) 0.7662(18) 0.0964(14)
O5 O 0.7653(19) 0.0088(19) 0.9146(14)
O6 O 0.610(2) 0.014(2) 0.8988(15)
O7 O 0.636(2) 0.0167(18) 0.0953(14)
O8 O 0.784(2) 0.0166(19) 0.1123(15)
N1 N 0.4501(15) 0.903(3) 0.9938(14)
N2 N -0.0553(18) 0.906(3) 1.0143(15)
C1 C 0.687(3) 0.760(3) 0.886(2)
C2 C 0.6910(16) 0.6693(15) 0.8100(11)
C3 C 0.7690(14) 0.5967(17) 0.8031(11)
H1 H 0.8201 0.5931 0.8484
C4 C 0.7721(14) 0.5294(16) 0.7300(13)
H2 H 0.8254 0.4798 0.7253
C5 C 0.6973(17) 0.5348(17) 0.6637(10)
C6 C 0.6193(14) 0.6073(19) 0.6706(12)
H3 H 0.5681 0.6110 0.6253
C7 C 0.6161(13) 0.6746(16) 0.7437(14)
H4 H 0.5628 0.7242 0.7484
C8 C 0.719(3) 0.468(3) 0.585(2)
C9 C 0.698(3) 0.351(3) 0.589(2)
C10 C 0.708(3) 0.286(3) 0.507(2)
H5 H 0.7034 0.2036 0.5044
C11 C 0.725(3) 0.350(3) 0.434(2)
C12 C 0.705(3) 0.475(3) 0.431(2)
C13 C 0.716(3) 0.519(3) 0.513(2)
H6 H 0.7224 0.6009 0.5166
C14 C 0.712(3) 0.273(3) 0.350(2)
C15 C 0.638(3) 0.196(3) 0.328(2)
H7 H 0.5875 0.1895 0.3633
C16 C 0.639(3) 0.126(3) 0.252(2)
H8 H 0.5879 0.0735 0.2340
C17 C 0.714(3) 0.138(3) 0.211(2)
C18 C 0.784(3) 0.223(3) 0.230(2)
H9 H 0.8323 0.2355 0.1928
C19 C 0.784(3) 0.286(3) 0.299(2)
H10 H 0.8343 0.3400 0.3146
C20 C 0.707(3) 0.268(3) 0.667(2)
C21 C 0.779(3) 0.201(3) 0.699(2)
H11 H 0.8358 0.1984 0.6720
C22 C 0.773(3) 0.140(3) 0.765(2)
H12 H 0.8298 0.1014 0.7897
C23 C 0.696(3) 0.126(3) 0.803(2)
C24 C 0.623(3) 0.217(3) 0.780(2)
H13 H 0.5715 0.2283 0.8136
C25 C 0.632(3) 0.284(3) 0.708(2)
H14 H 0.5844 0.3405 0.6893
C26 C 0.724(3) 0.536(3) 0.353(2)
C27 C 0.785(3) 0.614(3) 0.343(2)
H15 H 0.8322 0.6316 0.3903
C28 C 0.788(3) 0.672(3) 0.271(2)
H16 H 0.8453 0.7128 0.2640
C29 C 0.703(3) 0.681(3) 0.194(2)
C30 C 0.637(3) 0.601(3) 0.212(2)
H17 H 0.5803 0.5956 0.1727
C31 C 0.644(3) 0.526(3) 0.281(2)
H18 H 0.5972 0.4663 0.2828
C32 C 0.399(3) 0.799(3) 0.9981(18)
H19 H 0.4322 0.7279 1.0088
C33 C 0.315(2) 0.803(3) 0.988(2)
H20 H 0.2832 0.7322 0.9715
C34 C 0.255(2) 0.899(3) 0.9977(16)
C35 C 0.295(3) 1.011(3) 0.9973(19)
H21 H 0.2612 1.0826 1.0014
C36 C 0.401(3) 0.998(3) 0.989(2)
H22 H 0.4351 1.0672 0.9790
C37 C 0.148(2) 0.915(4) 0.999(2)
C38 C 0.111(3) 0.804(3) 1.023(2)
H23 H 0.1478 0.7350 1.0276
C39 C -0.006(3) 0.810(3) 1.043(2)
H24 H -0.0352 0.7490 1.0714
C40 C -0.001(3) 0.982(3) 0.980(2)
H25 H -0.0388 1.0480 0.9625
C41 C 0.098(3) 0.999(3) 0.960(2)
H26 H 0.1214 1.0590 0.9262
C42 C 0.704(3) 0.754(3) 0.131(2)
C43 C 0.694(3) 0.063(3) 0.884(2)
C44 C 0.717(3) 0.054(3) 0.125(2)
Zn1_2 Zn -0.1957(3) 0.9048(5) 1.01692(19)
Zn1_3 Zn 0.8043(3) -0.0952(5) 0.01692(19)
Zn1_4 Zn 0.8043(3) -0.0952(5) 1.01692(19)
Zn1_5 Zn 0.8043(3) 0.9048(5) 0.01692(19)
Zn2_2 Zn 0.5954(3) -0.0956(4) -0.0021(2)
Zn2_3 Zn 0.5954(3) -0.0956(4) 0.9979(2)
Zn2_4 Zn 0.5954(3) 0.9044(4) -0.0021(2)
O3_2 O 0.624(2) 0.7680(19) 1.0803(15)
O4_2 O 0.791(2) 0.7662(18) 1.0964(14)
O5_2 O 0.7653(19) 1.0088(19) 0.9146(14)
O6_2 O 0.610(2) 1.014(2) 0.8988(15)
O7_2 O 0.636(2) 1.0167(18) 1.0953(14)
O8_2 O 0.784(2) 1.0166(19) 1.1123(15)
N2_2 N 0.9447(18) 0.906(3) 1.0143(15)
N3 N 0.428(5) 0.376(5) 0.485(5)
C45 C 0.405(5) 0.451(6) 0.555(6)
C46 C 0.435(6) 0.253(5) 0.501(5)
C47 C 0.438(5) 0.419(4) 0.409(5)
O9 O 0.454(6) 0.361(5) 0.347(5)
N4 N 0.908(5) 0.900(6) 0.646(4)
C48 C 0.965(5) 0.847(7) 0.720(5)
C49 C 0.875(4) 0.826(5) 0.575(4)
C50 C 0.885(5) 1.010(5) 0.646(4)
O10 O 0.835(6) 1.060(5) 0.587(5)
loop_
_geom_bond_atom_site_label_1
_geom_bond_atom_site_label_2
_geom_bond_site_symmetry_1
_geom_bond_site_symmetry_2
Zn1 O2 1_555 1_555
Zn2 O1 1_555 1_555
O1 C1 1_555 1_555
O2 C1 1_555 1_555
O3 C42 1_555 1_555
O4 C42 1_555 1_555
O5 C43 1_555 1_555
O6 C43 1_555 1_555
O7 C44 1_555 1_555
O8 C44 1_555 1_555
N1 Zn2 1_555 1_555
N2 C39 1_555 1_555
C1 C2 1_555 1_555
C2 C3 1_555 1_555
C3 H1 1_555 1_555
C4 C3 1_555 1_555
H2 C4 1_555 1_555
C5 C4 1_555 1_555
C6 C5 1_555 1_555
H3 C6 1_555 1_555
C7 C2 1_555 1_555
H4 C7 1_555 1_555
C8 C5 1_555 1_555
C9 C8 1_555 1_555
C10 C9 1_555 1_555
H5 C10 1_555 1_555
C11 C10 1_555 1_555
C12 C11 1_555 1_555
C13 C8 1_555 1_555
H6 C13 1_555 1_555
C14 C11 1_555 1_555
C15 C14 1_555 1_555
H7 C15 1_555 1_555
C16 C15 1_555 1_555
H8 C16 1_555 1_555
C17 C16 1_555 1_555
C18 C17 1_555 1_555
H9 C18 1_555 1_555
C19 C14 1_555 1_555
H10 C19 1_555 1_555
C20 C9 1_555 1_555
C21 C20 1_555 1_555
H11 C21 1_555 1_555
C22 C21 1_555 1_555
H12 C22 1_555 1_555
C23 C22 1_555 1_555
C24 C23 1_555 1_555
H13 C24 1_555 1_555
C25 C20 1_555 1_555
H14 C25 1_555 1_555
C26 C12 1_555 1_555
C27 C26 1_555 1_555
H15 C27 1_555 1_555
C28 C27 1_555 1_555
H16 C28 1_555 1_555
C29 C28 1_555 1_555
C30 C29 1_555 1_555
H17 C30 1_555 1_555
C31 C26 1_555 1_555
H18 C31 1_555 1_555
C32 N1 1_555 1_555
H19 C32 1_555 1_555
C33 C32 1_555 1_555
H20 C33 1_555 1_555
C34 C33 1_555 1_555
C35 C34 1_555 1_555
H21 C35 1_555 1_555
C36 N1 1_555 1_555
H22 C36 1_555 1_555
C37 C34 1_555 1_555
C38 C37 1_555 1_555
H23 C38 1_555 1_555
C39 C38 1_555 1_555
H24 C39 1_555 1_555
C40 N2 1_555 1_555
H25 C40 1_555 1_555
C41 C37 1_555 1_555
H26 C41 1_555 1_555
C42 C29 1_555 1_555
C43 C23 1_555 1_555
C44 C17 1_555 1_555
N3 C45 1_555 1_555
C46 N3 1_555 1_555
C47 N3 1_555 1_555
O9 C47 1_555 1_555
N4 C48 1_555 1_555
C49 N4 1_555 1_555
C50 N4 1_555 1_555
O10 C50 1_555 1_555
Zn1_2 N2 1_555 1_555
Zn1_3 O8 1_555 1_555
Zn1_4 O5 1_555 1_555
Zn1_5 O4 1_555 1_555
Zn2_2 O7 1_555 1_555
Zn2_3 O6 1_555 1_555
Zn2_4 O3 1_555 1_555
O3_2 Zn2 1_555 1_555
O4_2 Zn1 1_555 1_555
O5_2 Zn1 1_555 1_555
O6_2 Zn2 1_555 1_555
O7_2 Zn2 1_555 1_555
O8_2 Zn1 1_555 1_555
N2_2 Zn1 1_555 1_555
C6 C7 1_555 1_555
C12 C13 1_555 1_555
C18 C19 1_555 1_555
C24 C25 1_555 1_555
C30 C31 1_555 1_555
C35 C36 1_555 1_555
C40 C41 1_555 1_555

#END
