
#######################################################################
#
#                 Cambridge Crystallographic Data Centre
#                                CCDC 
#
#######################################################################
#
# If this CIF has been generated from an entry in the Cambridge 
# Structural Database, then it will include bibliographic, chemical, 
# crystal, experimental, refinement or atomic coordinate data resulting 
# from the CCDC's data processing and validation procedures.
#
#######################################################################

data_FUNFOL
_symmetry_cell_setting           triclinic
_symmetry_space_group_name_H-M   'P -1'
_symmetry_Int_Tables_number      2
_space_group_name_Hall           '-P 1'
loop_
_symmetry_equiv_pos_site_id
_symmetry_equiv_pos_as_xyz
1 x,y,z
2 -x,-y,-z
_cell_length_a                   10.0510(8)
_cell_length_b                   17.7700(13)
_cell_length_c                   17.9534(13)
_cell_angle_alpha                67.2500(10)
_cell_angle_beta                 74.9280(10)
_cell_angle_gamma                81.5690(10)
_cell_volume                     2851.57
loop_
_atom_site_label
_atom_site_type_symbol
_atom_site_fract_x
_atom_site_fract_y
_atom_site_fract_z
Co1 Co 0.70228(4) 0.43109(2) 0.48700(2)
Co2 Co 1.5000 0.0000 0.5000
C1 C 0.9433(3) 0.36698(18) 0.48834(19)
C2 C 1.0869(3) 0.33172(17) 0.49231(19)
C3 C 1.1332(3) 0.26144(18) 0.4759(2)
H1 H 1.0743 0.2352 0.4627
C4 C 1.2677(3) 0.22972(18) 0.4792(2)
C5 C 1.3562(3) 0.27110(18) 0.4956(2)
H2 H 1.4473 0.2514 0.4951
C6 C 1.3115(3) 0.34150(16) 0.51279(18)
C7 C 1.1746(3) 0.37131(17) 0.51218(19)
H3 H 1.1423 0.4176 0.5251
C8 C 1.3161(3) 0.15142(19) 0.4631(2)
C9 C 1.4079(3) 0.38854(17) 0.52785(18)
C10 C 0.7465(3) 0.4974(2) 0.2911(2)
H4 H 0.7655 0.5503 0.2823
C11 C 0.7020(5) 0.3735(2) 0.3454(2)
H5 H 0.6820 0.3220 0.3855
C12 C 0.7583(3) 0.5136(2) 0.1444(2)
C13 C 0.7966(4) 0.4682(2) 0.0938(2)
H6 H 0.8072 0.4116 0.1167
C14 C 0.8186(4) 0.5074(2) 0.0103(2)
H7 H 0.8439 0.4768 -0.0236
C15 C 0.8043(4) 0.5912(2) -0.0253(2)
C16 C 0.7626(4) 0.6358(2) 0.0260(2)
H8 H 0.7486 0.6923 0.0033
C17 C 0.7418(4) 0.5966(2) 0.1109(2)
H9 H 0.7167 0.6268 0.1452
C18 C 0.9097(4) 0.6994(2) -0.1557(2)
C19 C 0.9034(4) 0.7474(3) -0.2372(2)
H10 H 0.8409 0.7364 -0.2614
C20 C 0.9900(4) 0.8115(3) -0.2823(2)
H11 H 0.9854 0.8434 -0.3366
C21 C 1.0819(4) 0.8279(2) -0.2473(2)
C22 C 1.0859(4) 0.7828(2) -0.1659(2)
H12 H 1.1457 0.7957 -0.1413
C23 C 1.0007(4) 0.7185(2) -0.1212(2)
H13 H 1.0051 0.6875 -0.0666
C24 C 1.2534(4) 0.9040(2) -0.3714(2)
H14 H 1.2475 0.8760 -0.4046
C25 C 1.3074(5) 0.9826(3) -0.3250(3)
H15 H 1.3526 1.0228 -0.3217
C26 C 0.7964(4) 0.5874(2) -0.1587(2)
C27 C 0.8939(4) 0.5711(2) -0.2210(2)
H16 H 0.9832 0.5880 -0.2341
C28 C 0.8605(4) 0.5302(2) -0.2641(2)
H17 H 0.9270 0.5194 -0.3061
C29 C 0.7291(3) 0.5054(2) -0.2452(2)
C30 C 0.6306(4) 0.5194(2) -0.1816(2)
H18 H 0.5418 0.5017 -0.1681
C31 C 0.6658(4) 0.5595(2) -0.1386(2)
H19 H 0.6004 0.5682 -0.0950
C32 C 0.7587(3) 0.45964(19) -0.36416(19)
H20 H 0.8473 0.4767 -0.3921
C33 C 0.5647(4) 0.4102(3) -0.3288(2)
H21 H 0.4908 0.3847 -0.3295
N1 N 0.7226(3) 0.43716(16) 0.36426(16)
N2 N 0.7392(3) 0.47128(16) 0.23212(16)
N3 N 0.7124(4) 0.38974(18) 0.26687(18)
N4 N 0.8291(3) 0.63067(18) -0.11335(16)
N5 N 1.1786(3) 0.89019(19) -0.2958(2)
N6 N 1.2122(5) 0.9421(3) -0.2650(3)
N7 N 1.3372(3) 0.96249(17) -0.39329(19)
N8 N 0.6805(3) 0.42519(16) -0.38960(16)
N9 N 0.6915(3) 0.46622(17) -0.29236(16)
N10 N 0.5651(3) 0.4347(2) -0.26878(19)
O1 O 0.8465(2) 0.32115(13) 0.50472(15)
O2 O 0.9208(2) 0.44301(12) 0.46885(13)
O3 O 1.2376(3) 0.12202(16) 0.4393(2)
O4 O 1.4314(2) 0.12114(12) 0.47670(16)
O5 O 1.3600(2) 0.44917(12) 0.54775(13)
O6 O 1.5328(2) 0.36432(12) 0.51821(14)
O7 O 1.3756(3) -0.01584(15) 0.42747(17)
H22 H 1.3645 0.0351 0.3834
H23 H 1.2868 -0.0333 0.4620
Co1A Co 1.29772(4) 0.56891(2) 0.51300(2)
C1A C 1.0567(3) 0.63302(18) 0.51166(19)
C2A C 0.9131(3) 0.66828(17) 0.50769(19)
C3A C 0.8668(3) 0.73856(18) 0.5241(2)
H1A H 0.9257 0.7648 0.5373
C4A C 0.7323(3) 0.77028(18) 0.5208(2)
C5A C 0.6438(3) 0.72890(18) 0.5044(2)
H2A H 0.5527 0.7486 0.5049
C6A C 0.6885(3) 0.65850(16) 0.48721(18)
C7A C 0.8254(3) 0.62869(17) 0.48782(19)
H3A H 0.8577 0.5824 0.4749
C8A C 0.6839(3) 0.84858(19) 0.5369(2)
C9A C 0.5921(3) 0.61146(17) 0.47215(18)
C10A C 1.2535(3) 0.5026(2) 0.7089(2)
H4A H 1.2345 0.4497 0.7177
C11A C 1.2980(5) 0.6265(2) 0.6546(2)
H5A H 1.3180 0.6780 0.6145
C12A C 1.2417(3) 0.4864(2) 0.8556(2)
C13A C 1.2034(4) 0.5318(2) 0.9062(2)
H6A H 1.1928 0.5884 0.8833
C14A C 1.1814(4) 0.4926(2) 0.9897(2)
H7A H 1.1561 0.5232 1.0236
C15A C 1.1957(4) 0.4088(2) 1.0253(2)
C16A C 1.2374(4) 0.3642(2) 0.9740(2)
H8A H 1.2514 0.3077 0.9967
C17A C 1.2582(4) 0.4034(2) 0.8891(2)
H9A H 1.2833 0.3732 0.8548
C18A C 1.0903(4) 0.3006(2) 1.1557(2)
C19A C 1.0966(4) 0.2526(3) 1.2372(2)
H10A H 1.1591 0.2636 1.2614
C20A C 1.0100(4) 0.1885(3) 1.2823(2)
H11A H 1.0146 0.1566 1.3366
C21A C 0.9181(4) 0.1721(2) 1.2473(2)
C22A C 0.9141(4) 0.2172(2) 1.1659(2)
H12A H 0.8543 0.2043 1.1413
C23A C 0.9993(4) 0.2815(2) 1.1212(2)
H13A H 0.9949 0.3125 1.0666
C24A C 0.7466(4) 0.0960(2) 1.3714(2)
H14A H 0.7525 0.1240 1.4046
C25A C 0.6926(5) 0.0174(3) 1.3250(3)
H15A H 0.6474 -0.0228 1.3217
C26A C 1.2036(4) 0.4126(2) 1.1587(2)
C27A C 1.1061(4) 0.4289(2) 1.2210(2)
H16A H 1.0168 0.4120 1.2341
C28A C 1.1395(4) 0.4698(2) 1.2641(2)
H17A H 1.0730 0.4806 1.3061
C29A C 1.2709(3) 0.4946(2) 1.2452(2)
C30A C 1.3694(4) 0.4806(2) 1.1816(2)
H18A H 1.4582 0.4983 1.1681
C31A C 1.3342(4) 0.4405(2) 1.1386(2)
H19A H 1.3996 0.4318 1.0950
C32A C 1.2413(3) 0.54036(19) 1.36416(19)
H20A H 1.1527 0.5233 1.3921
C33A C 1.4353(4) 0.5898(3) 1.3288(2)
H21A H 1.5092 0.6153 1.3295
N1A N 1.2774(3) 0.56284(16) 0.63574(16)
N2A N 1.2608(3) 0.52872(16) 0.76788(16)
N3A N 1.2876(4) 0.61026(18) 0.73313(18)
N4A N 1.1709(3) 0.36933(18) 1.11335(16)
N5A N 0.8214(3) 0.10981(19) 1.2958(2)
N6A N 0.7878(5) 0.0579(3) 1.2650(3)
N7A N 0.6628(3) 0.03751(17) 1.39329(19)
N8A N 1.3195(3) 0.57481(16) 1.38960(16)
N9A N 1.3085(3) 0.53378(17) 1.29236(16)
N10A N 1.4349(3) 0.5653(2) 1.26878(19)
O1A O 1.1535(2) 0.67885(13) 0.49528(15)
O2A O 1.0792(2) 0.55699(12) 0.53115(13)
O3A O 0.7624(3) 0.87798(16) 0.5607(2)
O4A O 0.5686(2) 0.87886(12) 0.52330(16)
O5A O 0.6400(2) 0.55083(12) 0.45225(13)
O6A O 0.4672(2) 0.63568(12) 0.48179(14)
O7A O 1.6244(3) 0.01584(15) 0.57253(17)
H22A H 1.6355 -0.0351 0.6166
H23A H 1.7132 0.0333 0.5380
Co1_2 Co 0.70228(4) 0.43109(2) -0.51300(2)
Co1_3 Co 1.70228(4) 0.43109(2) 0.48700(2)
Co1A_2 Co 0.29772(4) 0.56891(2) 0.51300(2)
Co1A_3 Co 1.29772(4) 0.56891(2) 1.51300(2)
Co2_2 Co 0.5000 0.0000 1.5000
Co2_3 Co 0.5000 1.0000 0.5000
Co2_4 Co 1.5000 1.0000 -0.5000
N7_2 N 1.3372(3) -0.03751(17) 0.60671(19)
N7A_2 N 1.6628(3) 0.03751(17) 0.39329(19)
N8_2 N 0.6805(3) 0.42519(16) 0.61040(16)
N8A_2 N 1.3195(3) 0.57481(16) 0.38960(16)
O4A_2 O 1.5686(2) -0.12114(12) 0.52330(16)
O6_2 O 0.5328(2) 0.36432(12) 0.51821(14)
O6A_2 O 1.4672(2) 0.63568(12) 0.48179(14)
O8 O 0.7747(5) 0.1702(2) 0.5064(3)
H24 H 0.7959 0.2150 0.5059
H25 H 0.7047 0.1525 0.5454
O9 O 0.9909(5) 0.0593(3) 0.5298(4)
H26 H 1.0681 0.0791 0.5011
H27 H 0.9376 0.0960 0.5433
loop_
_geom_bond_atom_site_label_1
_geom_bond_atom_site_label_2
_geom_bond_site_symmetry_1
_geom_bond_site_symmetry_2
Co1 N1 1_555 1_555
Co2 O4 1_555 1_555
C1 C2 1_555 1_555
C2 C3 1_555 1_555
C3 H1 1_555 1_555
C4 C3 1_555 1_555
C5 C4 1_555 1_555
H2 C5 1_555 1_555
C6 C5 1_555 1_555
C7 C2 1_555 1_555
H3 C7 1_555 1_555
C8 C4 1_555 1_555
C9 C6 1_555 1_555
C10 H4 1_555 1_555
C11 H5 1_555 1_555
C12 C13 1_555 1_555
C13 H6 1_555 1_555
C14 C13 1_555 1_555
H7 C14 1_555 1_555
C15 C14 1_555 1_555
C16 C15 1_555 1_555
H8 C16 1_555 1_555
C17 C12 1_555 1_555
H9 C17 1_555 1_555
C18 C19 1_555 1_555
C19 H10 1_555 1_555
C20 C19 1_555 1_555
H11 C20 1_555 1_555
C21 C20 1_555 1_555
C22 C21 1_555 1_555
H12 C22 1_555 1_555
C23 C18 1_555 1_555
H13 C23 1_555 1_555
C24 H14 1_555 1_555
C25 H15 1_555 1_555
C26 C27 1_555 1_555
C27 H16 1_555 1_555
C28 C27 1_555 1_555
H17 C28 1_555 1_555
C29 C28 1_555 1_555
C30 C29 1_555 1_555
H18 C30 1_555 1_555
C31 C26 1_555 1_555
H19 C31 1_555 1_555
C32 H20 1_555 1_555
C33 H21 1_555 1_555
N1 C10 1_555 1_555
N2 C10 1_555 1_555
N3 C11 1_555 1_555
N4 C15 1_555 1_555
N5 C21 1_555 1_555
N6 C25 1_555 1_555
N7 C24 1_555 1_555
N8 C32 1_555 1_555
N9 C29 1_555 1_555
N10 C33 1_555 1_555
O1 Co1 1_555 1_555
O2 Co1 1_555 1_555
O3 C8 1_555 1_555
O4 C8 1_555 1_555
O5 C9 1_555 1_555
O6 C9 1_555 1_555
O7 Co2 1_555 1_555
H22 O7 1_555 1_555
H23 O7 1_555 1_555
O8 H24 1_555 1_555
H25 O8 1_555 1_555
O9 H26 1_555 1_555
H27 O9 1_555 1_555
Co1A O5 1_555 1_555
C1A C2A 1_555 1_555
C2A C3A 1_555 1_555
C3A H1A 1_555 1_555
C4A C3A 1_555 1_555
C5A C4A 1_555 1_555
H2A C5A 1_555 1_555
C6A C5A 1_555 1_555
C7A C2A 1_555 1_555
H3A C7A 1_555 1_555
C8A C4A 1_555 1_555
C9A C6A 1_555 1_555
C10A H4A 1_555 1_555
C11A H5A 1_555 1_555
C12A C13A 1_555 1_555
C13A H6A 1_555 1_555
C14A C13A 1_555 1_555
H7A C14A 1_555 1_555
C15A C14A 1_555 1_555
C16A C15A 1_555 1_555
H8A C16A 1_555 1_555
C17A C12A 1_555 1_555
H9A C17A 1_555 1_555
C18A C19A 1_555 1_555
C19A H10A 1_555 1_555
C20A C19A 1_555 1_555
H11A C20A 1_555 1_555
C21A C20A 1_555 1_555
C22A C21A 1_555 1_555
H12A C22A 1_555 1_555
C23A C18A 1_555 1_555
H13A C23A 1_555 1_555
C24A H14A 1_555 1_555
C25A H15A 1_555 1_555
C26A C27A 1_555 1_555
C27A H16A 1_555 1_555
C28A C27A 1_555 1_555
H17A C28A 1_555 1_555
C29A C28A 1_555 1_555
C30A C29A 1_555 1_555
H18A C30A 1_555 1_555
C31A C26A 1_555 1_555
H19A C31A 1_555 1_555
C32A H20A 1_555 1_555
C33A H21A 1_555 1_555
N1A Co1A 1_555 1_555
N2A C10A 1_555 1_555
N3A C11A 1_555 1_555
N4A C15A 1_555 1_555
N5A C21A 1_555 1_555
N6A C25A 1_555 1_555
N7A C24A 1_555 1_555
N8A C32A 1_555 1_555
N9A C29A 1_555 1_555
N10A C33A 1_555 1_555
O1A Co1A 1_555 1_555
O2A Co1A 1_555 1_555
O3A C8A 1_555 1_555
O4A C8A 1_555 1_555
O5A Co1 1_555 1_555
O6A C9A 1_555 1_555
O7A Co2 1_555 1_555
H22A O7A 1_555 1_555
H23A O7A 1_555 1_555
Co1_2 N8 1_555 1_555
Co1_3 O6 1_555 1_555
Co1A_2 O6A 1_555 1_555
Co1A_3 N8A 1_555 1_555
Co2_2 N7A 1_555 1_555
Co2_3 O4A 1_555 1_555
Co2_4 N7 1_555 1_555
N7_2 Co2 1_555 1_555
N7A_2 Co2 1_555 1_555
N8_2 Co1 1_555 1_555
N8A_2 Co1A 1_555 1_555
O4A_2 Co2 1_555 1_555
O6_2 Co1 1_555 1_555
O6A_2 Co1A 1_555 1_555
C1 O1 1_555 1_555
C1 O2 1_555 1_555
C6 C7 1_555 1_555
C11 N1 1_555 1_555
C12 N2 1_555 1_555
C16 C17 1_555 1_555
C18 N4 1_555 1_555
C22 C23 1_555 1_555
C24 N5 1_555 1_555
C25 N7 1_555 1_555
C26 N4 1_555 1_555
C30 C31 1_555 1_555
C32 N9 1_555 1_555
C33 N8 1_555 1_555
N2 N3 1_555 1_555
N5 N6 1_555 1_555
N9 N10 1_555 1_555
C1A O1A 1_555 1_555
C1A O2A 1_555 1_555
C6A C7A 1_555 1_555
C9A O5A 1_555 1_555
C10A N1A 1_555 1_555
C11A N1A 1_555 1_555
C12A N2A 1_555 1_555
C16A C17A 1_555 1_555
C18A N4A 1_555 1_555
C22A C23A 1_555 1_555
C24A N5A 1_555 1_555
C25A N7A 1_555 1_555
C26A N4A 1_555 1_555
C30A C31A 1_555 1_555
C32A N9A 1_555 1_555
C33A N8A 1_555 1_555
N2A N3A 1_555 1_555
N5A N6A 1_555 1_555
N9A N10A 1_555 1_555

#END
