
#######################################################################
#
#                 Cambridge Crystallographic Data Centre
#                                CCDC 
#
#######################################################################
#
# If this CIF has been generated from an entry in the Cambridge 
# Structural Database, then it will include bibliographic, chemical, 
# crystal, experimental, refinement or atomic coordinate data resulting 
# from the CCDC's data processing and validation procedures.
#
#######################################################################

data_FUNVIU
_symmetry_cell_setting           orthorhombic
_symmetry_space_group_name_H-M   'I m m a'
_symmetry_Int_Tables_number      74
_space_group_name_Hall           '-I 2b 2'
loop_
_symmetry_equiv_pos_site_id
_symmetry_equiv_pos_as_xyz
1 x,y,z
2 -x,1/2-y,z
3 -x,1/2+y,-z
4 x,-y,-z
5 1/2+x,1/2+y,1/2+z
6 1/2-x,-y,1/2+z
7 1/2-x,y,1/2-z
8 1/2+x,1/2-y,1/2-z
9 -x,-y,-z
10 x,1/2+y,-z
11 x,1/2-y,z
12 -x,y,z
13 1/2-x,1/2-y,1/2-z
14 1/2+x,y,1/2-z
15 1/2+x,-y,1/2+z
16 1/2-x,1/2+y,1/2+z
_cell_length_a                   17.841(4)
_cell_length_b                   6.8729(15)
_cell_length_c                   11.839(3)
_cell_angle_alpha                90
_cell_angle_beta                 90
_cell_angle_gamma                90
_cell_volume                     1451.69
loop_
_atom_site_label
_atom_site_type_symbol
_atom_site_fract_x
_atom_site_fract_y
_atom_site_fract_z
Fe1 Fe 0.0000 0.5000 0.5000
O1 O 0.0000 0.2500 0.4246(6)
O2 O 0.0819(4) 0.5865(10) 0.3934(6)
O3 O 0.1800(9) 0.408(2) 0.3035(15)
C1 C 0.1099(8) 0.7500 0.3690(13)
C2 C 0.1817(8) 0.7500 0.3068(14)
C3 C 0.2159(6) 0.5734(15) 0.2767(10)
Fe1A Fe 0.0000 0.0000 0.5000
Fe1A_2 Fe 0.0000 1.0000 0.5000
Fe1E Fe 0.5000 0.5000 0.0000
Fe1D Fe 0.5000 1.0000 0.0000
O1B O 0.0000 0.7500 0.5754(6)
O2J O 0.0819(4) 0.9135(10) 0.3934(6)
O2F O 0.4181(4) 0.5865(10) 0.1066(6)
O2L O 0.4181(4) 0.9135(10) 0.1066(6)
O2C O 0.0819(4) 0.4135(10) 0.6066(6)
O2H O -0.0819(4) 0.4135(10) 0.6066(6)
O2K O -0.0819(4) 0.5865(10) 0.3934(6)
O3F O 0.3200(9) 0.408(2) 0.1965(15)
O3L O 0.3200(9) 1.092(2) 0.1965(15)
O3J O 0.1800(9) 1.092(2) 0.3035(15)
C1F C 0.3901(8) 0.7500 0.1310(13)
C2F C 0.3183(8) 0.7500 0.1932(14)
C3F C 0.2841(6) 0.5734(15) 0.2233(10)
C3L C 0.2841(6) 0.9266(15) 0.2233(10)
C3J C 0.2159(6) 0.9266(15) 0.2767(10)
loop_
_geom_bond_atom_site_label_1
_geom_bond_atom_site_label_2
_geom_bond_site_symmetry_1
_geom_bond_site_symmetry_2
Fe1 O1 1_555 1_555
O1 Fe1A 1_555 1_555
O2 Fe1 1_555 1_555
O3 C3 1_555 1_555
C1 O2 1_555 1_555
C2 C1 1_555 1_555
C3 C2 1_555 1_555
Fe1A_2 O1B 1_555 1_555
Fe1E O2F 1_555 1_555
Fe1D O2L 1_555 1_555
O1B Fe1 1_555 1_555
O2J C1 1_555 1_555
O2F C1F 1_555 1_555
O2L C1F 1_555 1_555
O2C Fe1 1_555 1_555
O2H Fe1 1_555 1_555
O2K Fe1 1_555 1_555
O3F C3F 1_555 1_555
O3L C3L 1_555 1_555
O3J C3J 1_555 1_555
C1F C2F 1_555 1_555
C2F C3F 1_555 1_555
C3F C3 1_555 1_555
C3L C2F 1_555 1_555
C3J C2 1_555 1_555
Fe1A_2 O2J 1_555 1_555
C3L C3J 1_555 1_555

#END
