
#######################################################################
#
#                 Cambridge Crystallographic Data Centre
#                                CCDC 
#
#######################################################################
#
# If this CIF has been generated from an entry in the Cambridge 
# Structural Database, then it will include bibliographic, chemical, 
# crystal, experimental, refinement or atomic coordinate data resulting 
# from the CCDC's data processing and validation procedures.
#
#######################################################################

data_FURSES
_symmetry_cell_setting           monoclinic
_symmetry_space_group_name_H-M   'P 21/m'
_symmetry_Int_Tables_number      11
_space_group_name_Hall           '-P 2yb'
loop_
_symmetry_equiv_pos_site_id
_symmetry_equiv_pos_as_xyz
1 x,y,z
2 -x,1/2+y,-z
3 -x,-y,-z
4 x,1/2-y,z
_cell_length_a                   10.0150(9)
_cell_length_b                   6.6124(5)
_cell_length_c                   12.4721(11)
_cell_angle_alpha                90
_cell_angle_beta                 109.412(2)
_cell_angle_gamma                90
_cell_volume                     778.99
loop_
_atom_site_label
_atom_site_type_symbol
_atom_site_fract_x
_atom_site_fract_y
_atom_site_fract_z
Cu1 Cu 0.1358(2) 0.7500 0.7673(2)
Cu2 Cu 0.0000 1.0000 0.5000
C1 C 0.3914(19) 0.7500 0.8547(16)
C2 C 0.5507(16) 0.7500 0.8998(14)
C3 C 0.6294(17) 0.7500 0.8292(14)
H1 H 0.5816 0.7500 0.7512
C4 C 0.7779(16) 0.7500 0.8667(16)
C5 C 0.8467(16) 0.7500 0.9848(13)
H2 H 0.9451 0.7500 1.0137
C6 C 0.7691(17) 0.7500 1.0591(16)
C7 C 0.6267(16) 0.7500 1.0170(14)
H3 H 0.5764 0.7500 1.0677
C8 C 0.8621(19) 0.7500 0.7902(16)
C9 C 0.8388(14) 0.7500 1.1872(17)
N1 N 0.8751(10) 0.918(2) 1.2484(8)
N2 N 0.9305(9) 0.8489(16) 1.3544(8)
O1 O 0.3266(12) 0.7500 0.9252(11)
O2 O 0.3265(12) 0.7500 0.7484(10)
O3 O 0.7999(13) 0.7500 0.6837(12)
O4 O 0.9964(12) 0.7500 0.8368(10)
O5 O 0.0050(11) 0.7500 0.5835(10)
H4 H -0.0779 0.7500 0.5879
O6 O -0.2543(14) 1.044(3) 0.4818(13)
H5 H -0.2759 1.0539 0.4101
H6 H -0.2803 1.1418 0.5143
N1C N 0.8751(10) 0.582(2) 1.2484(8)
N2C N 0.9305(9) 0.6511(16) 1.3544(8)
O6B O 0.2543(14) 0.956(3) 0.5182(13)
H5B H 0.2759 0.9461 0.5899
H6B H 0.2803 0.8582 0.4857
Cu1_2 Cu 1.1358(2) 0.7500 0.7673(2)
Cu1A Cu 0.8642(2) 0.2500 1.2327(2)
Cu1A_2 Cu 0.8642(2) 1.2500 1.2327(2)
Cu2_2 Cu 1.0000 1.0000 1.5000
Cu2A Cu 0.0000 0.5000 0.5000
Cu2A_2 Cu 1.0000 0.5000 1.5000
N1A N 0.1249(10) 0.418(2) 0.7516(8)
N1B N 0.1249(10) 1.082(2) 0.7516(8)
N2_2 N -0.0695(9) 0.8489(16) 0.3544(8)
N2B N 0.0695(9) 1.1511(16) 0.6456(8)
O4_2 O -0.0036(12) 0.7500 0.8368(10)
O5A O -0.0050(11) 1.2500 0.4165(10)
O7 O 0.581(3) 0.7500 0.338(3)
O8 O 1.267(4) 0.7500 0.128(2)
O9 O 1.296(5) 0.7500 0.356(3)
H7? H -0.2462 1.1629 0.5089
loop_
_geom_bond_atom_site_label_1
_geom_bond_atom_site_label_2
_geom_bond_site_symmetry_1
_geom_bond_site_symmetry_2
Cu1 O1 1_555 1_555
Cu2 O5 1_555 1_555
C1 C2 1_555 1_555
C2 C3 1_555 1_555
C3 H1 1_555 1_555
C4 C3 1_555 1_555
C5 C4 1_555 1_555
H2 C5 1_555 1_555
C6 C5 1_555 1_555
C7 C2 1_555 1_555
H3 C7 1_555 1_555
C8 C4 1_555 1_555
C9 C6 1_555 1_555
N1 C9 1_555 1_555
N2 N1 1_555 1_555
O1 C1 1_555 1_555
O2 Cu1 1_555 1_555
O3 C8 1_555 1_555
O4 C8 1_555 1_555
O5 Cu1 1_555 1_555
H4 O5 1_555 1_555
O6 Cu2 1_555 1_555
H5 O6 1_555 1_555
H6 O6 1_555 1_555
N1C C9 1_555 1_555
N2C N2 1_555 1_555
O6B Cu2 1_555 1_555
H5B O6B 1_555 1_555
H6B O6B 1_555 1_555
Cu1_2 O4 1_555 1_555
Cu1A N1C 1_555 1_555
Cu1A_2 N1 1_555 1_555
Cu2_2 N2 1_555 1_555
Cu2A O5 1_555 1_555
Cu2A_2 N2C 1_555 1_555
N1A Cu1 1_555 1_555
N1B Cu1 1_555 1_555
N2_2 Cu2 1_555 1_555
N2B Cu2 1_555 1_555
O4_2 Cu1 1_555 1_555
O5A Cu2 1_555 1_555
C1 O2 1_555 1_555
C6 C7 1_555 1_555
N1C N2C 1_555 1_555
N1B N2B 1_555 1_555

#END
