
#######################################################################
#
#                 Cambridge Crystallographic Data Centre
#                                CCDC 
#
#######################################################################
#
# If this CIF has been generated from an entry in the Cambridge 
# Structural Database, then it will include bibliographic, chemical, 
# crystal, experimental, refinement or atomic coordinate data resulting 
# from the CCDC's data processing and validation procedures.
#
#######################################################################

data_FUZKAN
_symmetry_cell_setting           orthorhombic
_symmetry_space_group_name_H-M   'P 21 21 21'
_symmetry_Int_Tables_number      19
_space_group_name_Hall           'P 2ac 2ab'
loop_
_symmetry_equiv_pos_site_id
_symmetry_equiv_pos_as_xyz
1 x,y,z
2 1/2-x,-y,1/2+z
3 1/2+x,1/2-y,-z
4 -x,1/2+y,1/2-z
_cell_length_a                   10.4874(4)
_cell_length_b                   15.9036(5)
_cell_length_c                   26.1360(12)
_cell_angle_alpha                90
_cell_angle_beta                 90
_cell_angle_gamma                90
_cell_volume                     4359.16
loop_
_atom_site_label
_atom_site_type_symbol
_atom_site_fract_x
_atom_site_fract_y
_atom_site_fract_z
C1 C 0.5081(9) 1.1103(4) 0.4639(3)
C2 C 0.5268(6) 1.0179(3) 0.4763(3)
C3 C 0.4664(6) 0.9829(3) 0.5182(2)
H1 H 0.4155 1.0170 0.5387
C4 C 0.4794(5) 0.8997(3) 0.5306(2)
C5 C 0.4132(5) 0.8603(3) 0.5756(2)
C6 C 0.5524(5) 0.8480(3) 0.4980(2)
H2 H 0.5613 0.7911 0.5054
C7 C 0.6009(6) 0.9672(3) 0.4443(3)
H3 H 0.6430 0.9898 0.4161
C8 C 0.6102(5) 0.8808(3) 0.4558(2)
C9 C 0.6837(5) 0.8216(3) 0.4206(2)
C10 C 0.0201(5) 0.6419(4) 0.2910(2)
C11 C 0.1377(5) 0.5885(3) 0.2866(2)
C12 C 0.1335(5) 0.5117(3) 0.2609(2)
H4 H 0.0584 0.4942 0.2453
C13 C 0.2415(6) 0.4613(3) 0.2587(2)
C14 C 0.3527(5) 0.4862(3) 0.2814(2)
H5 H 0.4236 0.4511 0.2808
C15 C 0.3595(5) 0.5651(3) 0.3056(2)
C16 C 0.2486(5) 0.6137(3) 0.3081(2)
H6 H 0.2512 0.6650 0.3252
C17 C 0.2332(5) 0.3758(3) 0.2313(2)
C18 C 0.4778(5) 0.5948(3) 0.3297(2)
C19 C 0.4926(6) 0.6081(4) 0.4706(3)
H7 H 0.4751 0.6652 0.4681
C20 C 0.4269(8) 0.5599(5) 0.5066(3)
H8 H 0.3699 0.5847 0.5293
C21 C 0.4495(8) 0.4729(4) 0.5075(3)
H9 H 0.4031 0.4386 0.5295
C22 C 0.5380(6) 0.4392(4) 0.4765(3)
C23 C 0.6042(6) 0.4923(3) 0.4440(2)
H10 H 0.6691 0.4698 0.4240
C24 C 0.5633(8) 0.3467(4) 0.4744(3)
H11 H 0.6545 0.3370 0.4759
H12 H 0.5249 0.3199 0.5039
C25 C 0.3756(8) 0.3192(4) 0.4214(3)
H13 H 0.3569 0.3783 0.4162
H14 H 0.3334 0.3014 0.4526
C26 C 0.3233(8) 0.2687(4) 0.3764(4)
H15 H 0.3671 0.2860 0.3455
H16 H 0.3419 0.2096 0.3819
C27 C 0.1825(8) 0.2789(4) 0.3687(3)
H17 H 0.1645 0.3378 0.3625
H18 H 0.1392 0.2629 0.4000
C28 C 0.1282(8) 0.2278(4) 0.3250(3)
H19 H 0.1654 0.2471 0.2931
H20 H 0.0369 0.2372 0.3232
C29 C 0.0970(8) 0.0981(4) 0.3771(3)
H21 H 0.0056 0.1075 0.3766
H22 H 0.1313 0.1272 0.4067
C30 C 0.1224(6) 0.0037(4) 0.3829(3)
C31 C 0.2326(9) -0.0272(5) 0.4036(4)
H23 H 0.2980 0.0094 0.4128
C32 C 0.2469(7) -0.1136(5) 0.4111(4)
H24 H 0.3187 -0.1359 0.4270
C33 C 0.1496(7) -0.1642(4) 0.3939(3)
H25 H 0.1604 -0.2221 0.3962
C34 C 0.0288(6) -0.0518(3) 0.3682(2)
H26 H -0.0457 -0.0309 0.3537
N1 N 0.5792(5) 0.5747(3) 0.4400(2)
N2 N 0.0415(4) -0.1358(3) 0.37417(19)
O1 O 0.7639(3) 0.8533(2) 0.38986(15)
O2 O 0.6579(4) 0.7455(2) 0.42568(15)
O3 O 0.3330(4) 0.9059(2) 0.59938(15)
O4 O 0.4376(4) 0.7860(2) 0.58506(15)
O5 O 0.5734(6) 1.1415(3) 0.4305(2)
O6 O 0.4205(6) 1.1488(3) 0.4861(2)
O7 O 0.0310(4) 0.7099(2) 0.31458(16)
O8 O -0.0825(4) 0.6149(2) 0.27162(16)
O9 O 0.3301(4) 0.3310(2) 0.23119(18)
O10 O 0.1285(3) 0.3589(2) 0.21124(15)
O11 O 0.4803(4) 0.6657(2) 0.35075(18)
O12 O 0.5801(4) 0.5501(2) 0.32943(17)
O13 O 0.7506(4) 0.7052(2) 0.32151(15)
Ni1 Ni 0.66178(6) 0.64378(4) 0.38119(3)
Ni2 Ni -0.10326(6) -0.21715(4) 0.35130(3)
N3 N 0.5112(7) 0.3084(3) 0.4270(3)
H27 H 0.530(6) 0.2553(15) 0.426(3)
H28 H 0.568(5) 0.332(3) 0.406(2)
N4 N 0.1531(7) 0.1342(4) 0.3307(2)
H29 H 0.113(5) 0.111(4) 0.3056(19)
H30 H 0.231(3) 0.119(4) 0.329(3)
O1_2 O -0.2361(3) -0.1467(2) 0.38986(15)
O3B O 0.8330(4) 0.5941(2) 0.40062(15)
O4B O -0.0624(4) -0.2860(2) 0.41494(15)
O7_2 O 0.0310(4) -0.2901(2) 0.31458(16)
O10C O -0.1285(3) -0.1411(2) 0.28876(15)
O13_2 O -0.2494(4) -0.2948(2) 0.32151(15)
Ni1B Ni 0.16178(6) 0.85622(4) 0.61881(3)
Ni2_2 Ni 0.89674(6) 0.78285(4) 0.35130(3)
Ni2B Ni 0.39674(6) 0.71715(4) 0.64870(3)
Ni2_3 Ni -0.10326(6) 0.78285(4) 0.35130(3)
Ni2C Ni 0.10326(6) 0.28285(4) 0.14870(3)
O14 O -0.1176(10) 0.8183(5) 0.8085(4)
O15 O -0.0942(10) 1.4114(6) 0.6800(5)
O16 O 0.3586(9) 1.1885(5) 0.5833(4)
H31 H 0.421(8) 1.214(7) 0.568(5)
O17 O 0.3959(9) 1.0631(5) 0.6544(4)
H32 H 0.462(7) 1.063(8) 0.638(5)
O18 O 0.8043(8) 1.1515(5) 0.3867(4)
H33 H 0.803(15) 1.159(9) 0.4179(12)
O19 O 0.1084(8) 1.1255(4) 0.6629(3)
H34 H 0.088(9) 1.077(3) 0.668(5)
H35 H 0.184(3) 1.134(6) 0.662(5)
O20 O -0.0922(9) 0.6980(5) 0.7168(4)
H36 H -0.082(14) 0.731(7) 0.742(3)
O21 O 0.3514(9) 1.1435(6) 0.7483(4)
H37 H 0.343(16) 1.099(5) 0.765(5)
loop_
_geom_bond_atom_site_label_1
_geom_bond_atom_site_label_2
_geom_bond_site_symmetry_1
_geom_bond_site_symmetry_2
C1 C2 1_555 1_555
C2 C3 1_555 1_555
C3 H1 1_555 1_555
C4 C3 1_555 1_555
C5 C4 1_555 1_555
C6 C4 1_555 1_555
H2 C6 1_555 1_555
C7 C2 1_555 1_555
H3 C7 1_555 1_555
C8 C6 1_555 1_555
C9 C8 1_555 1_555
C10 C11 1_555 1_555
C11 C12 1_555 1_555
C12 H4 1_555 1_555
C13 C12 1_555 1_555
C14 C13 1_555 1_555
H5 C14 1_555 1_555
C15 C14 1_555 1_555
C16 C11 1_555 1_555
H6 C16 1_555 1_555
C17 C13 1_555 1_555
C18 C15 1_555 1_555
C19 H7 1_555 1_555
C20 C19 1_555 1_555
H8 C20 1_555 1_555
C21 C20 1_555 1_555
H9 C21 1_555 1_555
C22 C21 1_555 1_555
C23 C22 1_555 1_555
H10 C23 1_555 1_555
C24 C22 1_555 1_555
H11 C24 1_555 1_555
H12 C24 1_555 1_555
C25 H13 1_555 1_555
H14 C25 1_555 1_555
C26 C25 1_555 1_555
H15 C26 1_555 1_555
H16 C26 1_555 1_555
C27 C26 1_555 1_555
H17 C27 1_555 1_555
H18 C27 1_555 1_555
C28 C27 1_555 1_555
H19 C28 1_555 1_555
H20 C28 1_555 1_555
C29 H21 1_555 1_555
H22 C29 1_555 1_555
C30 C29 1_555 1_555
C31 C30 1_555 1_555
H23 C31 1_555 1_555
C32 C31 1_555 1_555
H24 C32 1_555 1_555
C33 C32 1_555 1_555
H25 C33 1_555 1_555
C34 C30 1_555 1_555
H26 C34 1_555 1_555
N1 C19 1_555 1_555
N2 C33 1_555 1_555
O1 C9 1_555 1_555
O2 C9 1_555 1_555
O3 C5 1_555 1_555
O4 C5 1_555 1_555
O5 C1 1_555 1_555
O6 C1 1_555 1_555
O7 C10 1_555 1_555
O8 C10 1_555 1_555
O9 C17 1_555 1_555
O10 C17 1_555 1_555
O11 C18 1_555 1_555
O12 C18 1_555 1_555
O13 Ni1 1_555 1_555
Ni1 N1 1_555 1_555
Ni2 N2 1_555 1_555
N3 C24 1_555 1_555
H27 N3 1_555 1_555
H28 N3 1_555 1_555
N4 C28 1_555 1_555
H29 N4 1_555 1_555
H30 N4 1_555 1_555
O16 H31 1_555 1_555
O17 H32 1_555 1_555
O18 H33 1_555 1_555
O19 H34 1_555 1_555
H35 O19 1_555 1_555
O20 H36 1_555 1_555
O21 H37 1_555 1_555
O1_2 Ni2 1_555 1_555
O3B Ni1 1_555 1_555
O4B Ni2 1_555 1_555
O7_2 Ni2 1_555 1_555
O10C Ni2 1_555 1_555
O13_2 Ni2 1_555 1_555
Ni1B O3 1_555 1_555
Ni2_2 O1 1_555 1_555
Ni2B O4 1_555 1_555
Ni2_3 O7 1_555 1_555
Ni2C O10 1_555 1_555
C7 C8 1_555 1_555
C15 C16 1_555 1_555
C23 N1 1_555 1_555
C25 N3 1_555 1_555
C29 N4 1_555 1_555
C34 N2 1_555 1_555
O2 Ni1 1_555 1_555
O11 Ni1 1_555 1_555
O12 Ni1 1_555 1_555
O13 Ni2_2 1_555 1_555

#END
