
#######################################################################
#
#                 Cambridge Crystallographic Data Centre
#                                CCDC 
#
#######################################################################
#
# If this CIF has been generated from an entry in the Cambridge 
# Structural Database, then it will include bibliographic, chemical, 
# crystal, experimental, refinement or atomic coordinate data resulting 
# from the CCDC's data processing and validation procedures.
#
#######################################################################

data_GAJYUN
_symmetry_cell_setting           monoclinic
_symmetry_space_group_name_H-M   'P 21/c'
_symmetry_Int_Tables_number      14
_space_group_name_Hall           '-P 2ybc'
loop_
_symmetry_equiv_pos_site_id
_symmetry_equiv_pos_as_xyz
1 x,y,z
2 -x,1/2+y,1/2-z
3 -x,-y,-z
4 x,1/2-y,1/2+z
_cell_length_a                   5.6906(8)
_cell_length_b                   12.8000(18)
_cell_length_c                   21.550(3)
_cell_angle_alpha                90
_cell_angle_beta                 95.392(2)
_cell_angle_gamma                90
_cell_volume                     1562.75
loop_
_atom_site_label
_atom_site_type_symbol
_atom_site_fract_x
_atom_site_fract_y
_atom_site_fract_z
Ce1 Ce 0.36845(11) 0.85624(5) 1.03100(3)
P1 P 0.0954(5) 0.9750(2) 0.91596(12)
O1 O 0.3155(13) 1.0183(6) 0.9540(3)
O2 O 0.0416(13) 0.8709(6) 0.9450(3)
O3 O -0.1091(13) 1.0478(7) 0.9079(3)
O4 O -0.2986(16) 0.7641(7) 0.5768(4)
O5 O -0.4990(16) 0.6882(8) 0.6451(4)
O6 O 0.5922(15) 0.8055(8) 0.9421(4)
H1 H 0.6486 0.7472 0.9490
H2 H 0.4923 0.8050 0.9089
O7 O 0.1441(17) 0.6930(8) 1.0360(5)
H3 H 0.2093 0.6573 1.0662
H4 H 0.0004 0.7067 1.0426
N1 N 0.0260(15) 0.9155(7) 0.7891(4)
C1 C 0.2029(18) 0.9545(9) 0.8389(5)
H9 H 0.2654 1.0202 0.8252
H10 H 0.3327 0.9052 0.8436
C2 C 0.115(3) 0.9262(13) 0.7276(5)
H11 H 0.2576 0.8851 0.7269
H12 H 0.1555 0.9987 0.7212
C3 C -0.063(2) 0.8912(11) 0.6743(5)
H13 H -0.1975 0.9379 0.6713
H14 H 0.0096 0.8951 0.6354
C4 C -0.148(2) 0.7782(9) 0.6841(5)
H15 H -0.0098 0.7324 0.6839
C5 C -0.233(3) 0.7708(12) 0.7471(6)
H16 H -0.2767 0.6990 0.7547
H17 H -0.3732 0.8135 0.7482
C6 C -0.049(3) 0.8060(11) 0.7992(6)
H18 H -0.1144 0.8009 0.8390
H19 H 0.0879 0.7604 0.8004
C7 C -0.323(2) 0.7431(9) 0.6330(5)
Ce1B Ce 0.63155(11) 1.14376(5) 0.96900(3)
Ce1B_2 Ce -0.36845(11) 1.14376(5) 0.96900(3)
Ce1C Ce -0.63155(11) 0.64376(5) 0.53100(3)
O1B O 0.6845(13) 0.9817(6) 1.0460(3)
O3B O 0.1091(13) 0.9522(7) 1.0921(3)
O4C O 0.7014(16) 0.7359(7) 1.0768(4)
O5C O 0.5010(16) 0.8118(8) 1.1451(4)
O8 O 0.5414(10) 0.6040(4) 0.8647(2)
H5 H 0.6441 0.5620 0.8809
H6 H 0.4098 0.5744 0.8528
O9 O 0.2981(19) 0.5698(9) 0.7329(5)
H7 H 0.1992 0.5963 0.7045
H8 H 0.4372 0.5682 0.7201
loop_
_geom_bond_atom_site_label_1
_geom_bond_atom_site_label_2
_geom_bond_site_symmetry_1
_geom_bond_site_symmetry_2
Ce1 O1 1_555 1_555
P1 O1 1_555 1_555
O1 Ce1B 1_555 1_555
O2 Ce1 1_555 1_555
O3 P1 1_555 1_555
O4 C7 1_555 1_555
O5 C7 1_555 1_555
O6 Ce1 1_555 1_555
H1 O6 1_555 1_555
H2 O6 1_555 1_555
O7 Ce1 1_555 1_555
H3 O7 1_555 1_555
H4 O7 1_555 1_555
O8 H5 1_555 1_555
H6 O8 1_555 1_555
O9 H7 1_555 1_555
H8 O9 1_555 1_555
N1 C1 1_555 1_555
C1 P1 1_555 1_555
H9 C1 1_555 1_555
H10 C1 1_555 1_555
C2 N1 1_555 1_555
H11 C2 1_555 1_555
H12 C2 1_555 1_555
C3 C2 1_555 1_555
H13 C3 1_555 1_555
H14 C3 1_555 1_555
C4 C3 1_555 1_555
H15 C4 1_555 1_555
C5 C4 1_555 1_555
H16 C5 1_555 1_555
H17 C5 1_555 1_555
C6 N1 1_555 1_555
H18 C6 1_555 1_555
H19 C6 1_555 1_555
C7 C4 1_555 1_555
Ce1B O1B 1_555 1_555
Ce1B_2 O3 1_555 1_555
Ce1C O4 1_555 1_555
O1B Ce1 1_555 1_555
O3B Ce1 1_555 1_555
O4C Ce1 1_555 1_555
O5C Ce1 1_555 1_555
P1 O2 1_555 1_555
O5 Ce1C 1_555 1_555
C5 C6 1_555 1_555

#END
