
#######################################################################
#
#                 Cambridge Crystallographic Data Centre
#                                CCDC 
#
#######################################################################
#
# If this CIF has been generated from an entry in the Cambridge 
# Structural Database, then it will include bibliographic, chemical, 
# crystal, experimental, refinement or atomic coordinate data resulting 
# from the CCDC's data processing and validation procedures.
#
#######################################################################

data_GAJZEY
_symmetry_cell_setting           monoclinic
_symmetry_space_group_name_H-M   'P 21/c'
_symmetry_Int_Tables_number      14
_space_group_name_Hall           '-P 2ybc'
loop_
_symmetry_equiv_pos_site_id
_symmetry_equiv_pos_as_xyz
1 x,y,z
2 -x,1/2+y,1/2-z
3 -x,-y,-z
4 x,1/2-y,1/2+z
_cell_length_a                   5.5871(6)
_cell_length_b                   13.4240(15)
_cell_length_c                   21.157(2)
_cell_angle_alpha                90
_cell_angle_beta                 96.1480(10)
_cell_angle_gamma                90
_cell_volume                     1577.67
loop_
_atom_site_label
_atom_site_type_symbol
_atom_site_fract_x
_atom_site_fract_y
_atom_site_fract_z
Nd1 Nd 0.37146(5) 0.86555(2) 1.028490(14)
P1 P 0.0878(3) 0.97693(11) 0.91320(7)
O1 O 0.3142(7) 1.0174(3) 0.95352(19)
O2 O 0.0368(8) 0.8767(3) 0.9426(2)
O3 O -0.1227(8) 1.0476(3) 0.9081(2)
O4 O -0.2992(8) 0.7556(4) 0.5706(2)
O5 O -0.4948(9) 0.6849(4) 0.6421(2)
O6 O 0.5784(8) 0.8123(4) 0.9363(2)
H1 H 0.6348 0.7541 0.9432
H2 H 0.4786 0.8119 0.9031
O7 O 0.1402(9) 0.7106(4) 1.0344(3)
H3 H 0.2055 0.6749 1.0647
H4 H -0.0035 0.7243 1.0411
N1 N 0.0058(9) 0.9188(4) 0.7849(2)
C1 C 0.1851(11) 0.9611(5) 0.8347(3)
H9 H 0.2353 1.0255 0.8201
H10 H 0.3257 0.9182 0.8385
C2 C 0.0868(13) 0.9328(6) 0.7210(3)
H11 H 0.2399 0.8994 0.7194
H12 H 0.1106 1.0032 0.7136
C3 C -0.0939(14) 0.8920(5) 0.6696(3)
H13 H -0.0335 0.9009 0.6287
H14 H -0.2431 0.9290 0.6691
C4 C -0.1440(12) 0.7812(5) 0.6796(3)
H15 H 0.0076 0.7452 0.6775
C5 C -0.2168(15) 0.7672(6) 0.7463(3)
H16 H -0.2362 0.6967 0.7544
H17 H -0.3705 0.7995 0.7492
C6 C -0.0283(15) 0.8109(5) 0.7968(3)
H18 H -0.0807 0.8017 0.8387
H19 H 0.1235 0.7762 0.7957
C7 C -0.3260(12) 0.7391(5) 0.6283(3)
Nd1B Nd 0.62854(5) 1.13445(2) 0.971510(14)
Nd1B_2 Nd -0.37146(5) 1.13445(2) 0.971510(14)
Nd1C Nd -0.62854(5) 0.63445(2) 0.528490(14)
O1B O 0.6858(7) 0.9826(3) 1.04648(19)
O3B O 0.1227(8) 0.9524(3) 1.0919(2)
O4C O 0.7008(8) 0.7444(4) 1.0706(2)
O5C O 0.5052(9) 0.8151(4) 1.1421(2)
O8 O 0.5045(14) 0.6181(5) 0.8712(3)
H5 H 0.6071 0.5761 0.8874
H6 H 0.3728 0.5885 0.8593
O9 O 0.3286(13) 0.5743(5) 0.7403(3)
H7 H 0.2297 0.6008 0.7119
H8 H 0.4678 0.5727 0.7275
loop_
_geom_bond_atom_site_label_1
_geom_bond_atom_site_label_2
_geom_bond_site_symmetry_1
_geom_bond_site_symmetry_2
Nd1 O1 1_555 1_555
P1 O1 1_555 1_555
O1 Nd1B 1_555 1_555
O2 Nd1 1_555 1_555
O3 P1 1_555 1_555
O4 C7 1_555 1_555
O5 C7 1_555 1_555
O6 Nd1 1_555 1_555
H1 O6 1_555 1_555
H2 O6 1_555 1_555
O7 Nd1 1_555 1_555
H3 O7 1_555 1_555
H4 O7 1_555 1_555
O8 H5 1_555 1_555
H6 O8 1_555 1_555
O9 H7 1_555 1_555
H8 O9 1_555 1_555
N1 C1 1_555 1_555
C1 P1 1_555 1_555
H9 C1 1_555 1_555
H10 C1 1_555 1_555
C2 N1 1_555 1_555
H11 C2 1_555 1_555
H12 C2 1_555 1_555
C3 C2 1_555 1_555
H13 C3 1_555 1_555
H14 C3 1_555 1_555
C4 C3 1_555 1_555
H15 C4 1_555 1_555
C5 C4 1_555 1_555
H16 C5 1_555 1_555
H17 C5 1_555 1_555
C6 N1 1_555 1_555
H18 C6 1_555 1_555
H19 C6 1_555 1_555
C7 C4 1_555 1_555
Nd1B O1B 1_555 1_555
Nd1B_2 O3 1_555 1_555
Nd1C O4 1_555 1_555
O1B Nd1 1_555 1_555
O3B Nd1 1_555 1_555
O4C Nd1 1_555 1_555
O5C Nd1 1_555 1_555
P1 O2 1_555 1_555
O5 Nd1C 1_555 1_555
C5 C6 1_555 1_555

#END
