
#######################################################################
#
#                 Cambridge Crystallographic Data Centre
#                                CCDC 
#
#######################################################################
#
# If this CIF has been generated from an entry in the Cambridge 
# Structural Database, then it will include bibliographic, chemical, 
# crystal, experimental, refinement or atomic coordinate data resulting 
# from the CCDC's data processing and validation procedures.
#
#######################################################################

data_GAJZUO
_symmetry_cell_setting           monoclinic
_symmetry_space_group_name_H-M   'P 21/c'
_symmetry_Int_Tables_number      14
_space_group_name_Hall           '-P 2ybc'
loop_
_symmetry_equiv_pos_site_id
_symmetry_equiv_pos_as_xyz
1 x,y,z
2 -x,1/2+y,1/2-z
3 -x,-y,-z
4 x,1/2-y,1/2+z
_cell_length_a                   5.5234(10)
_cell_length_b                   13.349(2)
_cell_length_c                   20.586(4)
_cell_angle_alpha                90
_cell_angle_beta                 95.290(2)
_cell_angle_gamma                90
_cell_volume                     1511.38
loop_
_atom_site_label
_atom_site_type_symbol
_atom_site_fract_x
_atom_site_fract_y
_atom_site_fract_z
Y1 Y 0.37360(12) 0.86825(5) 1.02790(3)
P1 P 0.0916(3) 0.97953(14) 0.91490(9)
O1 O 0.3202(9) 1.0201(4) 0.9545(2)
O2 O 0.0425(9) 0.8781(4) 0.9459(3)
O3 O -0.1226(10) 1.0496(4) 0.9093(3)
O4 O -0.3027(10) 0.7512(4) 0.5658(3)
O5 O -0.4951(11) 0.6790(5) 0.6406(3)
O6 O 0.5708(10) 0.8203(4) 0.9357(3)
H1 H 0.6272 0.7621 0.9426
H2 H 0.4709 0.8199 0.9024
O7 O 0.1594(11) 0.7192(5) 1.0352(3)
H3 H 0.2247 0.6835 1.0655
H4 H 0.0158 0.7329 1.0419
N1 N 0.0085(12) 0.9175(5) 0.7836(3)
C1 C 0.1889(13) 0.9631(6) 0.8334(3)
H9 H 0.2348 1.0282 0.8174
H10 H 0.3336 0.9216 0.8368
C2 C 0.0900(16) 0.9304(7) 0.7170(4)
H11 H 0.2434 0.8959 0.7146
H12 H 0.1160 1.0010 0.7089
C3 C -0.0967(17) 0.8893(6) 0.6651(4)
H13 H -0.0383 0.8979 0.6225
H14 H -0.2474 0.9265 0.6658
C4 C -0.1442(15) 0.7784(6) 0.6768(4)
H15 H 0.0098 0.7429 0.6740
C5 C -0.2157(17) 0.7640(7) 0.7453(4)
H16 H -0.2302 0.6929 0.7539
H17 H -0.3735 0.7944 0.7487
C6 C -0.0328(17) 0.8096(6) 0.7960(4)
H18 H -0.0907 0.8018 0.8388
H19 H 0.1202 0.7739 0.7960
C7 C -0.3279(15) 0.7338(6) 0.6251(4)
Y1B Y 0.62640(12) 1.13175(5) 0.97210(3)
Y1B_2 Y -0.37360(12) 1.13175(5) 0.97210(3)
Y1C Y -0.62640(12) 0.63175(5) 0.52790(3)
O1B O 0.6798(9) 0.9799(4) 1.0455(2)
O3B O 0.1226(10) 0.9504(4) 1.0907(3)
O4C O 0.6973(10) 0.7488(4) 1.0658(3)
O5C O 0.5049(11) 0.8210(5) 1.1406(3)
O8 O 0.5344(10) 0.6098(4) 0.8784(3)
H5 H 0.6370 0.5677 0.8946
H6 H 0.4028 0.5801 0.8666
O9 O 0.3169(16) 0.5721(7) 0.7406(4)
H7 H 0.2180 0.5987 0.7122
H8 H 0.4561 0.5705 0.7279
loop_
_geom_bond_atom_site_label_1
_geom_bond_atom_site_label_2
_geom_bond_site_symmetry_1
_geom_bond_site_symmetry_2
Y1 O1 1_555 1_555
P1 O1 1_555 1_555
O1 Y1B 1_555 1_555
O2 Y1 1_555 1_555
O3 P1 1_555 1_555
O4 C7 1_555 1_555
O5 C7 1_555 1_555
O6 Y1 1_555 1_555
H1 O6 1_555 1_555
H2 O6 1_555 1_555
O7 Y1 1_555 1_555
H3 O7 1_555 1_555
H4 O7 1_555 1_555
O8 H5 1_555 1_555
H6 O8 1_555 1_555
O9 H7 1_555 1_555
H8 O9 1_555 1_555
N1 C1 1_555 1_555
C1 P1 1_555 1_555
H9 C1 1_555 1_555
H10 C1 1_555 1_555
C2 N1 1_555 1_555
H11 C2 1_555 1_555
H12 C2 1_555 1_555
C3 C2 1_555 1_555
H13 C3 1_555 1_555
H14 C3 1_555 1_555
C4 C3 1_555 1_555
H15 C4 1_555 1_555
C5 C4 1_555 1_555
H16 C5 1_555 1_555
H17 C5 1_555 1_555
C6 N1 1_555 1_555
H18 C6 1_555 1_555
H19 C6 1_555 1_555
C7 C4 1_555 1_555
Y1B O1B 1_555 1_555
Y1B_2 O3 1_555 1_555
Y1C O4 1_555 1_555
O1B Y1 1_555 1_555
O3B Y1 1_555 1_555
O4C Y1 1_555 1_555
O5C Y1 1_555 1_555
P1 O2 1_555 1_555
O5 Y1C 1_555 1_555
C5 C6 1_555 1_555

#END
