
#######################################################################
#
#                 Cambridge Crystallographic Data Centre
#                                CCDC 
#
#######################################################################
#
# If this CIF has been generated from an entry in the Cambridge 
# Structural Database, then it will include bibliographic, chemical, 
# crystal, experimental, refinement or atomic coordinate data resulting 
# from the CCDC's data processing and validation procedures.
#
#######################################################################

data_GALCED
_symmetry_cell_setting           monoclinic
_symmetry_space_group_name_H-M   'P 21/c'
_symmetry_Int_Tables_number      14
_space_group_name_Hall           '-P 2ybc'
loop_
_symmetry_equiv_pos_site_id
_symmetry_equiv_pos_as_xyz
1 x,y,z
2 -x,1/2+y,1/2-z
3 -x,-y,-z
4 x,1/2-y,1/2+z
_cell_length_a                   8.1191(5)
_cell_length_b                   18.8297(11)
_cell_length_c                   18.7331(12)
_cell_angle_alpha                90
_cell_angle_beta                 100.5740(10)
_cell_angle_gamma                90
_cell_volume                     2815.29
loop_
_atom_site_label
_atom_site_type_symbol
_atom_site_fract_x
_atom_site_fract_y
_atom_site_fract_z
Cd1 Cd 0.69288(3) 0.939848(11) 0.006551(12)
C1 C 0.3222(5) 0.55338(17) -0.41339(18)
C2 C 0.3365(5) 0.60830(17) -0.35552(18)
C3 C 0.2497(6) 0.6062(2) -0.2986(2)
H1 H 0.1678 0.5704 -0.2970
C4 C 0.2828(6) 0.6564(2) -0.2441(2)
H2 H 0.2263 0.6546 -0.2040
C5 C 0.3972(6) 0.7088(2) -0.2481(2)
C6 C 0.4478(5) 0.66408(17) -0.35570(19)
H3 H 0.5064 0.6670 -0.3951
C7 C 0.4470(5) 0.76480(19) -0.19161(19)
C8 C 0.3993(6) 0.7627(2) -0.1251(2)
H4 H 0.3278 0.7261 -0.1138
C9 C 0.4574(5) 0.8150(2) -0.0748(2)
H5 H 0.4229 0.8129 -0.0291
C10 C 0.5988(7) 0.8696(2) -0.1513(2)
H6 H 0.6698 0.9069 -0.1615
C11 C 0.5438(7) 0.8203(2) -0.2054(2)
H7 H 0.5736 0.8252 -0.2519
C12 C 1.0963(6) 1.3144(2) 0.4383(2)
C13 C 1.0380(5) 1.2563(2) 0.3838(2)
C14 C 0.9047(5) 1.2129(2) 0.3897(2)
H8 H 0.8471 1.2186 0.4292
C15 C 0.8554(5) 1.1611(2) 0.3381(2)
H9 H 0.7654 1.1300 0.3422
C16 C 0.9393(5) 1.1552(2) 0.2803(2)
C17 C 1.1134(6) 1.2451(3) 0.3257(2)
H10 H 1.2063 1.2744 0.3215
C18 C 0.8913(5) 1.1033(2) 0.2206(2)
C19 C 0.7999(6) 1.0418(3) 0.2281(2)
H11 H 0.7680 1.0305 0.2731
C20 C 0.7573(6) 0.9981(2) 0.1694(2)
H12 H 0.6954 0.9564 0.1753
C21 C 0.8852(5) 1.0678(2) 0.0982(2)
H13 H 0.9158 1.0774 0.0526
C22 C 0.9351(5) 1.1145(2) 0.1540(2)
H14 H 1.0004 1.1548 0.1467
N1 N 0.4784(4) 0.71386(15) -0.30458(16)
N2 N 0.5573(4) 0.86741(15) -0.08587(14)
N3 N 1.0682(5) 1.1966(2) 0.27448(19)
N4 N 0.7968(4) 1.01007(15) 0.10440(15)
O1 O 0.4285(3) 0.55287(11) -0.45462(12)
O2 O 0.2080(4) 0.50778(13) -0.41842(13)
O3 O 1.2245(4) 1.34734(14) 0.42490(14)
O4 O 1.0267(4) 1.32552(16) 0.48966(17)
Cd1A Cd 0.30712(3) 0.439848(11) -0.506551(12)
Cd1C Cd 0.69288(3) 0.560152(11) -0.493449(12)
Cd1A_2 Cd 1.30712(3) 1.439848(11) 0.493449(12)
O1A O 0.5715(3) 1.05287(11) -0.04538(12)
O1C O 0.4285(3) 0.94713(11) 0.04538(12)
O2A O 0.7920(4) 1.00778(13) -0.08158(13)
O3A O 0.7755(4) 0.84734(14) 0.07510(14)
loop_
_geom_bond_atom_site_label_1
_geom_bond_atom_site_label_2
_geom_bond_site_symmetry_1
_geom_bond_site_symmetry_2
Cd1 N2 1_555 1_555
C1 C2 1_555 1_555
C2 C3 1_555 1_555
C3 H1 1_555 1_555
C4 C3 1_555 1_555
H2 C4 1_555 1_555
C5 C4 1_555 1_555
C6 C2 1_555 1_555
H3 C6 1_555 1_555
C7 C5 1_555 1_555
C8 C7 1_555 1_555
H4 C8 1_555 1_555
C9 C8 1_555 1_555
H5 C9 1_555 1_555
C10 H6 1_555 1_555
C11 C7 1_555 1_555
H7 C11 1_555 1_555
C12 C13 1_555 1_555
C13 C14 1_555 1_555
C14 H8 1_555 1_555
C15 C14 1_555 1_555
H9 C15 1_555 1_555
C16 C15 1_555 1_555
C17 C13 1_555 1_555
H10 C17 1_555 1_555
C18 C16 1_555 1_555
C19 C18 1_555 1_555
H11 C19 1_555 1_555
C20 C19 1_555 1_555
H12 C20 1_555 1_555
C21 H13 1_555 1_555
C22 C18 1_555 1_555
H14 C22 1_555 1_555
N1 C5 1_555 1_555
N2 C9 1_555 1_555
N3 C16 1_555 1_555
N4 Cd1 1_555 1_555
O1 C1 1_555 1_555
O2 C1 1_555 1_555
O3 C12 1_555 1_555
O4 C12 1_555 1_555
Cd1A O1 1_555 1_555
Cd1C O1 1_555 1_555
Cd1A_2 O3 1_555 1_555
O1A Cd1 1_555 1_555
O1C Cd1 1_555 1_555
O2A Cd1 1_555 1_555
O3A Cd1 1_555 1_555
C6 N1 1_555 1_555
C10 C11 1_555 1_555
C10 N2 1_555 1_555
C17 N3 1_555 1_555
C20 N4 1_555 1_555
C21 C22 1_555 1_555
C21 N4 1_555 1_555
O2 Cd1A 1_555 1_555

#END
