
#######################################################################
#
#                 Cambridge Crystallographic Data Centre
#                                CCDC 
#
#######################################################################
#
# If this CIF has been generated from an entry in the Cambridge 
# Structural Database, then it will include bibliographic, chemical, 
# crystal, experimental, refinement or atomic coordinate data resulting 
# from the CCDC's data processing and validation procedures.
#
#######################################################################

data_GAMTUK
_symmetry_cell_setting           triclinic
_symmetry_space_group_name_H-M   'P -1'
_symmetry_Int_Tables_number      2
_space_group_name_Hall           '-P 1'
loop_
_symmetry_equiv_pos_site_id
_symmetry_equiv_pos_as_xyz
1 x,y,z
2 -x,-y,-z
_cell_length_a                   11.812(7)
_cell_length_b                   12.444(8)
_cell_length_c                   12.522(9)
_cell_angle_alpha                118.949(19)
_cell_angle_beta                 108.30(2)
_cell_angle_gamma                98.387(18)
_cell_volume                     1427.51
loop_
_atom_site_label
_atom_site_type_symbol
_atom_site_fract_x
_atom_site_fract_y
_atom_site_fract_z
Ce1 Ce 0.47831(4) 0.17776(3) 0.00985(5)
Ce2 Ce 0.19730(4) 0.24333(4) -0.23604(5)
O1 O 0.6030(4) 0.2324(4) -0.1123(5)
O2 O 0.3969(4) 0.1863(4) -0.1989(5)
O3 O 0.8849(5) 0.7065(4) 0.0538(5)
O4 O 0.6956(4) 0.7231(4) 0.0011(5)
O5 O 0.9581(4) 0.1644(4) -0.3691(5)
O6 O 1.0622(5) 0.3352(4) -0.3567(6)
O7 O 0.5908(4) 0.4150(4) 0.1584(5)
O8 O 0.6686(4) 0.6313(4) 0.2808(5)
O9 O 0.5736(5) 0.7970(4) 0.8073(6)
O10 O 0.5279(4) 0.9772(4) 0.8864(5)
O11 O 1.2669(4) 0.9978(4) 0.8565(5)
O12 O 1.1102(4) 1.0248(4) 0.7258(5)
O13 O 0.6924(4) 0.2234(4) 0.1712(5)
O14 O 0.1630(4) 0.0915(4) -0.4765(5)
O15 O 0.2595(5) 0.4851(4) -0.0643(6)
C1 C 0.6082(6) 0.2724(6) -0.3288(8)
C2 C 0.6371(6) 0.4070(6) -0.2566(8)
H1 H 0.5928 0.4448 -0.2050
C3 C 0.7294(6) 0.4874(6) -0.2584(8)
C4 C 0.7899(6) 0.4350(6) -0.3381(8)
H2 H 0.8487 0.4898 -0.3443
C5 C 0.7627(6) 0.2961(6) -0.4115(8)
C6 C 0.6737(6) 0.2187(6) -0.4023(8)
H3 H 0.6579 0.1270 -0.4476
C7 C 0.4984(7) 0.1836(6) -0.3365(8)
H4 H 0.4918 0.0916 -0.3951
H5 H 0.4186 0.1917 -0.3832
C8 C 0.5035(6) 0.2060(6) -0.2058(8)
C9 C 0.7610(6) 0.6352(6) -0.1777(8)
H6 H 0.6900 0.6550 -0.2229
H7 H 0.8389 0.6781 -0.1771
C10 C 0.7822(7) 0.6911(6) -0.0335(8)
C11 C 0.8317(6) 0.2351(7) -0.4962(8)
H8 H 0.8470 0.2819 -0.5385
H9 H 0.7792 0.1416 -0.5697
C12 C 0.9577(7) 0.2459(6) -0.4031(8)
C13 C 0.7302(7) 0.6655(6) 0.5313(8)
C14 C 0.6554(7) 0.7357(6) 0.5711(8)
H10 H 0.5654 0.6965 0.5176
C15 C 0.7084(7) 0.8640(6) 0.6889(8)
C16 C 0.8389(6) 0.9191(6) 0.7615(8)
H11 H 0.8766 1.0082 0.8375
C17 C 0.9178(6) 0.8501(6) 0.7283(8)
C18 C 0.8601(7) 0.7212(6) 0.6083(8)
H12 H 0.9121 0.6726 0.5807
C19 C 0.6689(7) 0.5275(6) 0.4014(7)
H13 H 0.7264 0.4782 0.4082
H14 H 0.5880 0.4819 0.3940
C20 C 0.6412(6) 0.5240(6) 0.2734(9)
C21 C 0.6262(7) 0.9371(6) 0.7351(8)
H15 H 0.5548 0.9202 0.6546
H16 H 0.6769 1.0325 0.7944
C22 C 0.5716(7) 0.9000(6) 0.8123(8)
C23 C 1.0614(6) 0.9071(7) 0.8219(8)
H17 H 1.0746 0.9675 0.9165
H18 H 1.0879 0.8336 0.8173
C24 C 1.1519(7) 0.9813(6) 0.7955(8)
Ce1A Ce 0.52169(4) 0.82224(3) -0.00985(5)
Ce1A_2 Ce 0.52169(4) 0.82224(3) 0.99015(5)
Ce1_2 Ce 0.47831(4) 1.17776(3) 1.00985(5)
Ce1_3 Ce 1.47831(4) 1.17776(3) 1.00985(5)
Ce2A Ce 0.80270(4) 0.75667(4) 0.23604(5)
Ce2_2 Ce 1.19730(4) 0.24333(4) -0.23604(5)
Ce2_3 Ce 1.19730(4) 1.24333(4) 0.76396(5)
O3A O 0.1151(5) 0.2935(4) -0.0538(5)
O4A O 0.3044(4) 0.2769(4) -0.0011(5)
O5_2 O -0.0419(4) 0.1644(4) -0.3691(5)
O6_2 O 0.0622(5) 0.3352(4) -0.3567(6)
O8A O 0.3314(4) 0.3687(4) -0.2808(5)
O9A O 0.4264(5) 0.2030(4) 0.1927(6)
O10_2 O 0.5279(4) -0.0228(4) -0.1136(5)
O10A O 0.4721(4) 0.0228(4) 0.1136(5)
O11_2 O 0.2669(4) -0.0022(4) -0.1435(5)
O12_2 O 0.1102(4) 0.0248(4) -0.2742(5)
O16 O 0.9037(5) 0.3993(4) 0.2340(7)
O17 O 0.1075(6) 0.6668(6) 0.0231(8)
loop_
_geom_bond_atom_site_label_1
_geom_bond_atom_site_label_2
_geom_bond_site_symmetry_1
_geom_bond_site_symmetry_2
Ce1 O1 1_555 1_555
Ce2 O2 1_555 1_555
O1 C8 1_555 1_555
O2 Ce1 1_555 1_555
O3 C10 1_555 1_555
O4 C10 1_555 1_555
O5 C12 1_555 1_555
O6 C12 1_555 1_555
O7 Ce1 1_555 1_555
O8 C20 1_555 1_555
O9 C22 1_555 1_555
O10 C22 1_555 1_555
O11 C24 1_555 1_555
O12 C24 1_555 1_555
O13 Ce1 1_555 1_555
O14 Ce2 1_555 1_555
O15 Ce2 1_555 1_555
C1 C2 1_555 1_555
C2 H1 1_555 1_555
C3 C2 1_555 1_555
C4 C3 1_555 1_555
H2 C4 1_555 1_555
C5 C4 1_555 1_555
C6 C1 1_555 1_555
H3 C6 1_555 1_555
C7 C1 1_555 1_555
H4 C7 1_555 1_555
H5 C7 1_555 1_555
C8 O2 1_555 1_555
C9 C3 1_555 1_555
H6 C9 1_555 1_555
H7 C9 1_555 1_555
C10 C9 1_555 1_555
C11 C5 1_555 1_555
H8 C11 1_555 1_555
H9 C11 1_555 1_555
C12 C11 1_555 1_555
C13 C14 1_555 1_555
C14 H10 1_555 1_555
C15 C14 1_555 1_555
C16 C15 1_555 1_555
H11 C16 1_555 1_555
C17 C16 1_555 1_555
C18 C13 1_555 1_555
H12 C18 1_555 1_555
C19 C13 1_555 1_555
H13 C19 1_555 1_555
H14 C19 1_555 1_555
C20 O7 1_555 1_555
C21 C15 1_555 1_555
H15 C21 1_555 1_555
H16 C21 1_555 1_555
C22 C21 1_555 1_555
C23 C17 1_555 1_555
H17 C23 1_555 1_555
H18 C23 1_555 1_555
C24 C23 1_555 1_555
Ce1A O4 1_555 1_555
Ce1A_2 O9 1_555 1_555
Ce1_2 O10 1_555 1_555
Ce1_3 O11 1_555 1_555
Ce2A O3 1_555 1_555
Ce2_2 O5 1_555 1_555
Ce2_3 O12 1_555 1_555
O3A Ce2 1_555 1_555
O4A Ce1 1_555 1_555
O5_2 Ce2 1_555 1_555
O6_2 Ce2 1_555 1_555
O8A Ce2 1_555 1_555
O9A Ce1 1_555 1_555
O10_2 Ce1 1_555 1_555
O10A Ce1 1_555 1_555
O11_2 Ce1 1_555 1_555
O12_2 Ce2 1_555 1_555
Ce2 O4A 1_555 1_555
O4 Ce2A 1_555 1_555
O6 Ce2_2 1_555 1_555
O8 Ce2A 1_555 1_555
O10 Ce1A_2 1_555 1_555
C5 C6 1_555 1_555
C7 C8 1_555 1_555
C17 C18 1_555 1_555
C19 C20 1_555 1_555

#END
