
#######################################################################
#
#                 Cambridge Crystallographic Data Centre
#                                CCDC 
#
#######################################################################
#
# If this CIF has been generated from an entry in the Cambridge 
# Structural Database, then it will include bibliographic, chemical, 
# crystal, experimental, refinement or atomic coordinate data resulting 
# from the CCDC's data processing and validation procedures.
#
#######################################################################

data_GATHAL
_symmetry_cell_setting           orthorhombic
_symmetry_space_group_name_H-M   'F d d d'
_symmetry_Int_Tables_number      70
_space_group_name_Hall           '-F 2uv 2vw'
loop_
_symmetry_equiv_pos_site_id
_symmetry_equiv_pos_as_xyz
1 x,y,z
2 x,1/2+y,1/2+z
3 x,1/4-y,1/4-z
4 1/2+x,y,1/2+z
5 1/4-x,y,1/4-z
6 1/2+x,1/2+y,z
7 1/4-x,1/4-y,z
8 3/4-x,3/4-y,z
9 3/4-x,y,3/4-z
10 x,3/4-y,3/4-z
11 3/4-x,1/4-y,1/2+z
12 3/4-x,1/2+y,1/4-z
13 1/4-x,3/4-y,1/2+z
14 1/2+x,3/4-y,1/4-z
15 1/4-x,1/2+y,3/4-z
16 1/2+x,1/4-y,3/4-z
17 -x,-y,-z
18 -x,1/2-y,1/2-z
19 -x,3/4+y,3/4+z
20 1/2-x,-y,1/2-z
21 3/4+x,-y,3/4+z
22 1/2-x,1/2-y,-z
23 3/4+x,3/4+y,-z
24 1/4+x,1/4+y,-z
25 1/4+x,-y,1/4+z
26 -x,1/4+y,1/4+z
27 1/4+x,3/4+y,1/2-z
28 1/4+x,1/2-y,3/4+z
29 3/4+x,1/4+y,1/2-z
30 1/2-x,1/4+y,3/4+z
31 3/4+x,1/2-y,1/4+z
32 1/2-x,3/4+y,1/4+z
_cell_length_a                   8.7550(3)
_cell_length_b                   20.7786(7)
_cell_length_c                   34.4075(13)
_cell_angle_alpha                90
_cell_angle_beta                 90
_cell_angle_gamma                90
_cell_volume                     6259.3
loop_
_atom_site_label
_atom_site_type_symbol
_atom_site_fract_x
_atom_site_fract_y
_atom_site_fract_z
Sc1 Sc 0.3750 0.3750 0.114326(4)
O1 O 0.24144(8) 0.41664(4) 0.07046(2)
O2 O 0.00466(9) 0.41578(5) 0.09257(2)
O3 O 0.50514(9) 0.45836(3) 0.11471(3)
C1 C 0.10238(10) 0.43029(5) 0.06762(2)
C2 C 0.04973(10) 0.46628(6) 0.03254(2)
C3 C 0.15381(11) 0.48582(9) 0.00464(4)
H1 H 0.2570 0.4764 0.0076
C4 C -0.10378(11) 0.48043(9) 0.02788(4)
H2 H -0.1738 0.4673 0.0466
C5 C 0.6250 0.48638(5) 0.1250
C6 C 0.6250 0.55826(5) 0.1250
C7 C 0.48851(12) 0.59144(4) 0.12457(6)
H3 H 0.3966 0.5691 0.1237
Sc1W Sc -0.3750 0.6250 -0.114326(4)
Sc1D Sc -0.1250 0.3750 0.135674(4)
Sc1CA Sc 0.1250 0.6250 -0.135674(4)
Sc1D_2 Sc 0.8750 0.3750 0.135674(4)
Sc1B Sc 0.3750 0.8750 0.135674(4)
Sc1E Sc 0.8750 0.8750 0.114326(4)
Sc1U Sc 1.1250 0.1250 -0.114326(4)
Sc1AA Sc 0.6250 0.1250 -0.135674(4)
O1P O -0.24144(8) 0.58336(4) -0.07046(2)
O1G O 0.50856(8) 0.33336(4) 0.07046(2)
O1V O 0.99144(8) 0.16664(4) -0.07046(2)
O1W O -0.50856(8) 0.66664(4) -0.07046(2)
O2P O -0.00466(9) 0.58422(5) -0.09257(2)
O2G O 0.74534(9) 0.33422(5) 0.09257(2)
O2V O 0.75466(9) 0.16578(5) -0.09257(2)
O2D O 0.24534(9) 0.41578(5) 0.15743(2)
O2M O 0.50466(9) 0.33422(5) 0.15743(2)
O2CA O -0.50466(9) 0.66578(5) -0.15743(2)
O2T O -0.24534(9) 0.58422(5) -0.15743(2)
O3D O 0.74486(9) 0.45836(3) 0.13529(3)
O3B O 0.50514(9) 0.79164(3) 0.13529(3)
O3F O 0.74486(9) 0.79164(3) 0.11471(3)
O3G O 0.24486(9) 0.29164(3) 0.11471(3)
O3W O -0.24486(9) 0.70836(3) -0.11471(3)
O3P O -0.50514(9) 0.54164(3) -0.11471(3)
C1P C -0.10238(10) 0.56971(5) -0.06762(2)
C1G C 0.64762(10) 0.31971(5) 0.06762(2)
C1V C 0.85238(10) 0.18029(5) -0.06762(2)
C2P C -0.04973(10) 0.53372(6) -0.03254(2)
C2G C 0.70027(10) 0.28372(6) 0.03254(2)
C2V C 0.79973(10) 0.21628(6) -0.03254(2)
C3P C -0.15381(11) 0.51418(9) -0.00464(4)
C3G C 0.59619(11) 0.26418(9) 0.00464(4)
C3V C 0.90381(11) 0.23582(9) -0.00464(4)
H1P H -0.2570 0.5236 -0.0076
H1G H 0.4930 0.2736 0.0076
H1V H 1.0070 0.2264 -0.0076
C4P C 0.10378(11) 0.51957(9) -0.02788(4)
C4G C 0.85378(11) 0.26957(9) 0.02788(4)
C4V C 0.64622(11) 0.23043(9) -0.02788(4)
H2P H 0.1738 0.5327 -0.0466
H2G H 0.9238 0.2827 0.0466
H2V H 0.5762 0.2173 -0.0466
C5B C 0.6250 0.76362(5) 0.1250
C6B C 0.6250 0.69174(5) 0.1250
C7B C 0.48851(12) 0.65856(4) 0.12543(6)
C7F C 0.76149(12) 0.65856(4) 0.12457(6)
C7D C 0.76149(12) 0.59144(4) 0.12543(6)
H3D H 0.8534 0.5691 0.1263
H3F H 0.8534 0.6809 0.1237
H3B H 0.3966 0.6809 0.1263
O4 O -0.04002(12) 0.03800(4) 0.03600(6)
loop_
_geom_bond_atom_site_label_1
_geom_bond_atom_site_label_2
_geom_bond_site_symmetry_1
_geom_bond_site_symmetry_2
Sc1 O1 1_555 1_555
O1 C1 1_555 1_555
O2 C1 1_555 1_555
O3 Sc1 1_555 1_555
C1 C2 1_555 1_555
C2 C3 1_555 1_555
C3 H1 1_555 1_555
C4 C2 1_555 1_555
H2 C4 1_555 1_555
C5 O3 1_555 1_555
C6 C5 1_555 1_555
C7 C6 1_555 1_555
H3 C7 1_555 1_555
Sc1W O1P 1_555 1_555
Sc1D O2 1_555 1_555
Sc1CA O2P 1_555 1_555
Sc1D_2 O2G 1_555 1_555
Sc1B O3B 1_555 1_555
Sc1E O3F 1_555 1_555
Sc1U O1V 1_555 1_555
Sc1AA O2V 1_555 1_555
O1P C1P 1_555 1_555
O1G Sc1 1_555 1_555
O1V C1V 1_555 1_555
O1W Sc1W 1_555 1_555
O2P C1P 1_555 1_555
O2G C1G 1_555 1_555
O2V C1V 1_555 1_555
O2D Sc1 1_555 1_555
O2M Sc1 1_555 1_555
O2CA Sc1W 1_555 1_555
O2T Sc1W 1_555 1_555
O3D C5 1_555 1_555
O3B C5B 1_555 1_555
O3F C5B 1_555 1_555
O3G Sc1 1_555 1_555
O3W Sc1W 1_555 1_555
O3P Sc1W 1_555 1_555
C1P C2P 1_555 1_555
C1G O1G 1_555 1_555
C1V C2V 1_555 1_555
C2P C3P 1_555 1_555
C2G C1G 1_555 1_555
C2V C3V 1_555 1_555
C3P C4 1_555 1_555
C3G C2G 1_555 1_555
C3V H1V 1_555 1_555
H1P C3P 1_555 1_555
H1G C3G 1_555 1_555
C4P C3 1_555 1_555
C4G C2G 1_555 1_555
C4V C2V 1_555 1_555
H2P C4P 1_555 1_555
H2G C4G 1_555 1_555
H2V C4V 1_555 1_555
C5B C6B 1_555 1_555
C6B C7B 1_555 1_555
C7B C7 1_555 1_555
C7F C6B 1_555 1_555
C7D C6 1_555 1_555
H3D C7D 1_555 1_555
H3F C7F 1_555 1_555
H3B C7B 1_555 1_555
Sc1D_2 O3D 1_555 1_555
C2P C4P 1_555 1_555
C3G C4V 1_555 1_555
C3V C4G 1_555 1_555
C7F C7D 1_555 1_555

#END
