
#######################################################################
#
#                 Cambridge Crystallographic Data Centre
#                                CCDC 
#
#######################################################################
#
# If this CIF has been generated from an entry in the Cambridge 
# Structural Database, then it will include bibliographic, chemical, 
# crystal, experimental, refinement or atomic coordinate data resulting 
# from the CCDC's data processing and validation procedures.
#
#######################################################################

data_GAWBEM
_symmetry_cell_setting           triclinic
_symmetry_space_group_name_H-M   'P -1'
_symmetry_Int_Tables_number      2
_space_group_name_Hall           '-P 1'
loop_
_symmetry_equiv_pos_site_id
_symmetry_equiv_pos_as_xyz
1 x,y,z
2 -x,-y,-z
_cell_length_a                   9.6189(18)
_cell_length_b                   10.639(2)
_cell_length_c                   10.986(2)
_cell_angle_alpha                79.523(3)
_cell_angle_beta                 64.995(3)
_cell_angle_gamma                70.574(3)
_cell_volume                     959.759
loop_
_atom_site_label
_atom_site_type_symbol
_atom_site_fract_x
_atom_site_fract_y
_atom_site_fract_z
Mo1 Mo 0.64671(3) 0.79159(3) 0.59385(3)
Cu1 Cu 1.34826(5) 0.84292(4) 0.45421(4)
Cu2 Cu 1.0000 0.5000 0.5000
O1 O 1.0584(6) 0.8051(5) 0.2709(5)
O2 O 1.1836(4) 0.6484(3) 0.4045(3)
O3 O 1.2125(3) 0.8518(3) 0.3638(2)
O4 O 0.5021(3) 0.7915(3) 0.5352(2)
O5 O 0.5631(3) 0.7882(3) 0.7668(3)
O6 O 0.7066(3) 0.9342(3) 0.5342(3)
O7 O 0.8114(3) 0.6508(2) 0.5398(2)
N1 N 1.1575(4) 0.7628(4) 0.3517(3)
N2 N 1.5269(3) 0.8507(3) 0.2681(3)
N3 N 2.1654(3) 0.8370(3) -0.3619(3)
N4 N 0.9993(3) 0.4935(3) 0.3210(3)
C1 C 1.5255(4) 0.8167(4) 0.1579(4)
H1 H 1.4389 0.7902 0.1662
C2 C 1.6445(4) 0.8188(4) 0.0334(4)
H2 H 1.6363 0.7968 -0.0410
C3 C 1.7761(4) 0.8534(3) 0.0187(3)
C4 C 1.9117(4) 0.8482(3) -0.1126(3)
C5 C 1.8882(4) 0.8687(4) -0.2303(3)
H3 H 1.7859 0.8865 -0.2283
C6 C 2.0158(4) 0.8630(4) -0.3501(3)
H4 H 1.9966 0.8783 -0.4285
C7 C 2.1880(4) 0.8170(4) -0.2470(4)
H5 H 2.2917 0.7989 -0.2519
C8 C 2.0676(4) 0.8218(4) -0.1238(4)
H6 H 2.0896 0.8075 -0.0469
C9 C 1.7755(4) 0.8923(4) 0.1317(4)
H7 H 1.8607 0.9192 0.1261
C10 C 1.6501(4) 0.8913(4) 0.2520(3)
H8 H 1.6509 0.9207 0.3264
C11 C 0.8610(5) 0.5110(4) 0.1817(4)
H9 H 0.7649 0.5202 0.1750
C12 C 0.8654(4) 0.5090(4) 0.3051(4)
H10 H 0.7703 0.5190 0.3809
C13 C 0.9996(4) 0.4995(3) 0.0674(3)
C14 C 1.1367(4) 0.4855(4) 0.0859(4)
H11 H 1.2330 0.4785 0.0118
C15 C 1.1330(4) 0.4818(4) 0.2118(4)
H12 H 1.2280 0.4707 0.2214
Mo1A Mo 1.35329(3) 0.20841(3) 0.40615(3)
Cu1A Cu 0.65174(5) 0.15708(4) 0.54579(4)
Cu1_2 Cu 0.34826(5) 0.84292(4) 0.45421(4)
Cu1A_2 Cu 0.65174(5) 1.15708(4) 0.54579(4)
Cu1_3 Cu 2.34826(5) 0.84292(4) -0.54579(4)
Cu1_4 Cu 0.34826(5) 0.84292(4) 1.45421(4)
Cu1A_3 Cu 1.65174(5) 0.15708(4) 0.54579(4)
Cu1_5 Cu 1.34826(5) -0.15708(4) 0.45421(4)
Cu2_2 Cu 1.0000 0.5000 -0.5000
O1A O 0.9416(6) 0.1949(5) 0.7291(5)
O2A O 0.8164(4) 0.3516(3) 0.5955(3)
O3A O 0.7875(3) 0.1482(3) 0.6362(2)
O4_2 O 1.5021(3) 0.7915(3) 0.5352(2)
O4A O 1.4979(3) 0.2085(3) 0.4648(2)
O4A_2 O 0.4979(3) 0.2085(3) 0.4648(2)
O5A O 1.4369(3) 0.2118(3) 0.2332(3)
O6A O 1.2934(3) 1.0658(3) 0.4658(3)
O6A_2 O 1.2934(3) 0.0658(3) 0.4658(3)
O6_2 O 0.7066(3) -0.0658(3) 0.5342(3)
O7A O 1.1886(3) 0.3492(2) 0.4602(2)
N1A N 0.8425(4) 0.2372(4) 0.6483(3)
N2_2 N 0.5269(3) 0.8507(3) 1.2681(3)
N2A N 0.4731(3) 0.1493(3) 0.7319(3)
N3_2 N 1.1654(3) 0.8370(3) 0.6381(3)
N3A N 0.8346(3) 0.1630(3) 0.3619(3)
N4A N 1.0007(3) 0.5065(3) -0.3210(3)
N4A_2 N 1.0007(3) 0.5065(3) 0.6790(3)
C1_2 C 0.5255(4) 0.8167(4) 1.1579(4)
H1_2 H 0.4389 0.7902 1.1662
C2_2 C 0.6445(4) 0.8188(4) 1.0334(4)
H2_2 H 0.6363 0.7968 0.9590
C3_2 C 0.7761(4) 0.8534(3) 1.0187(3)
C4_2 C 0.9117(4) 0.8482(3) 0.8874(3)
C5_2 C 0.8882(4) 0.8687(4) 0.7697(3)
H3_2 H 0.7859 0.8865 0.7717
C6_2 C 1.0158(4) 0.8630(4) 0.6499(3)
H4_2 H 0.9966 0.8783 0.5715
C7_2 C 1.1880(4) 0.8170(4) 0.7530(4)
H5_2 H 1.2917 0.7989 0.7481
C8_2 C 1.0676(4) 0.8218(4) 0.8762(4)
H6_2 H 1.0896 0.8075 0.9531
C9_2 C 0.7755(4) 0.8923(4) 1.1317(4)
H7_2 H 0.8607 0.9192 1.1261
C10_2 C 0.6501(4) 0.8913(4) 1.2520(3)
H8_2 H 0.6509 0.9207 1.3264
C11A C 1.1390(5) 0.4890(4) -0.1817(4)
H9A H 1.2351 0.4798 -0.1750
C12A C 1.1346(4) 0.4910(4) -0.3051(4)
H10A H 1.2297 0.4810 -0.3809
C13A C 1.0004(4) 0.5005(3) -0.0674(3)
C14A C 0.8633(4) 0.5145(4) -0.0859(4)
H11A H 0.7670 0.5215 -0.0118
C15A C 0.8670(4) 0.5182(4) -0.2118(4)
H12A H 0.7720 0.5293 -0.2214
O8 O 0.4928(7) 0.5097(7) 0.3595(11)
O9 O 1.4547(19) 0.567(2) -0.1054(18)
O10? O 1.374(2) 0.679(2) 0.0007(16)
loop_
_geom_bond_atom_site_label_1
_geom_bond_atom_site_label_2
_geom_bond_site_symmetry_1
_geom_bond_site_symmetry_2
Mo1 O4 1_555 1_555
Cu1 O3 1_555 1_555
Cu2 O2 1_555 1_555
O1 N1 1_555 1_555
O2 N1 1_555 1_555
O3 N1 1_555 1_555
O4 Cu1_2 1_555 1_555
O5 Mo1 1_555 1_555
O6 Mo1 1_555 1_555
O7 Mo1 1_555 1_555
N2 Cu1 1_555 1_555
N3 C6 1_555 1_555
N4 Cu2 1_555 1_555
C1 N2 1_555 1_555
H1 C1 1_555 1_555
C2 C1 1_555 1_555
H2 C2 1_555 1_555
C3 C2 1_555 1_555
C4 C3 1_555 1_555
C5 C4 1_555 1_555
H3 C5 1_555 1_555
C6 C5 1_555 1_555
H4 C6 1_555 1_555
C7 N3 1_555 1_555
H5 C7 1_555 1_555
C8 C4 1_555 1_555
H6 C8 1_555 1_555
C9 C3 1_555 1_555
H7 C9 1_555 1_555
C10 N2 1_555 1_555
H8 C10 1_555 1_555
C11 H9 1_555 1_555
C12 N4 1_555 1_555
H10 C12 1_555 1_555
C13 C11 1_555 1_555
C14 C13 1_555 1_555
H11 C14 1_555 1_555
C15 N4 1_555 1_555
H12 C15 1_555 1_555
Mo1A O4A 1_555 1_555
Cu1A O3A 1_555 1_555
Cu1A_2 O6 1_555 1_555
Cu1_3 N3 1_555 1_555
Cu1_4 N2_2 1_555 1_555
Cu1A_3 O4A 1_555 1_555
Cu1_5 O6A_2 1_555 1_555
Cu2_2 N4A 1_555 1_555
O1A N1A 1_555 1_555
O2A Cu2 1_555 1_555
O3A N1A 1_555 1_555
O4_2 Cu1 1_555 1_555
O4A_2 Cu1A 1_555 1_555
O5A Mo1A 1_555 1_555
O6A Cu1 1_555 1_555
O6A_2 Mo1A 1_555 1_555
O6_2 Cu1A 1_555 1_555
O7A Cu2 1_555 1_555
N1A O2A 1_555 1_555
N2_2 C1_2 1_555 1_555
N2A Cu1A 1_555 1_555
N3_2 Cu1 1_555 1_555
N3A Cu1A 1_555 1_555
N4A C12A 1_555 1_555
N4A_2 Cu2 1_555 1_555
C1_2 H1_2 1_555 1_555
C2_2 C1_2 1_555 1_555
H2_2 C2_2 1_555 1_555
C3_2 C2_2 1_555 1_555
C4_2 C3_2 1_555 1_555
C5_2 C4_2 1_555 1_555
H3_2 C5_2 1_555 1_555
C6_2 N3_2 1_555 1_555
H4_2 C6_2 1_555 1_555
C7_2 N3_2 1_555 1_555
H5_2 C7_2 1_555 1_555
C8_2 C4_2 1_555 1_555
H6_2 C8_2 1_555 1_555
C9_2 C3_2 1_555 1_555
H7_2 C9_2 1_555 1_555
C10_2 N2_2 1_555 1_555
H8_2 C10_2 1_555 1_555
C11A H9A 1_555 1_555
C12A C11A 1_555 1_555
H10A C12A 1_555 1_555
C13A C13 1_555 1_555
C14A C13A 1_555 1_555
H11A C14A 1_555 1_555
C15A N4A 1_555 1_555
H12A C15A 1_555 1_555
Cu2 O7 1_555 1_555
C7 C8 1_555 1_555
C9 C10 1_555 1_555
C11 C12 1_555 1_555
C14 C15 1_555 1_555
Mo1A O7A 1_555 1_555
C5_2 C6_2 1_555 1_555
C7_2 C8_2 1_555 1_555
C9_2 C10_2 1_555 1_555
C11A C13A 1_555 1_555
C14A C15A 1_555 1_555

#END
