
#######################################################################
#
#                 Cambridge Crystallographic Data Centre
#                                CCDC 
#
#######################################################################
#
# If this CIF has been generated from an entry in the Cambridge 
# Structural Database, then it will include bibliographic, chemical, 
# crystal, experimental, refinement or atomic coordinate data resulting 
# from the CCDC's data processing and validation procedures.
#
#######################################################################

data_GAWJEV
_symmetry_cell_setting           monoclinic
_symmetry_space_group_name_H-M   'C 2/c'
_symmetry_Int_Tables_number      15
_space_group_name_Hall           '-C 2yn'
loop_
_symmetry_equiv_pos_site_id
_symmetry_equiv_pos_as_xyz
1 x,y,z
2 -x,y,1/2-z
3 1/2+x,1/2+y,z
4 1/2-x,1/2+y,1/2-z
5 -x,-y,-z
6 x,-y,1/2+z
7 1/2-x,1/2-y,-z
8 1/2+x,1/2-y,1/2+z
_cell_length_a                   22.9839(9)
_cell_length_b                   10.6211(4)
_cell_length_c                   27.5720(14)
_cell_angle_alpha                90
_cell_angle_beta                 114.276(1)
_cell_angle_gamma                90
_cell_volume                     6135.56
loop_
_atom_site_label
_atom_site_type_symbol
_atom_site_fract_x
_atom_site_fract_y
_atom_site_fract_z
Zn1 Zn 0.0000 0.06303(5) 0.2500
Zn2 Zn 0.0000 0.5000 0.0000
Zn3 Zn 0.210380(17) 0.03740(3) -0.116320(14)
Zn4 Zn 0.100932(16) 0.61011(4) -0.043021(14)
O1 O 0.16670(10) -0.0213(2) -0.07212(8)
O2 O 0.09847(10) 0.46284(19) 0.01523(8)
O3 O 0.16660(10) -0.1219(2) 0.31434(8)
O4 O 0.01768(10) 0.1414(2) 0.19319(8)
O5 O 0.07452(10) -0.0300(2) 0.30151(8)
O6 O 0.21023(12) -0.1357(2) -0.15270(9)
H1 H 0.2253 -0.1901 -0.1298
C1 C 0.10750(15) -0.2136(3) 0.20927(12)
O7 O -0.05502(10) -0.4933(2) 0.10155(8)
O8 O 0.19229(11) 0.6200(3) -0.02195(10)
H2 H 0.1995 0.6337 -0.0482
O9 O 0.01942(10) -0.4297(2) 0.07338(8)
O10 O -0.09714(10) 0.1824(2) -0.02533(9)
O11 O 0.09878(11) 0.2256(2) 0.26088(8)
O12 O 0.23000(10) 0.0829(2) 0.00112(8)
C2 C 0.10712(15) -0.1095(3) 0.28935(12)
O13 O 0.19813(10) 0.4898(2) 0.07150(8)
O14 O -0.03223(10) 0.33254(19) 0.02411(8)
O15 O 0.09233(11) 0.7625(2) -0.09771(9)
H3 H 0.0552 0.7680 -0.1195
C3 C 0.13086(14) 0.3666(3) 0.09946(12)
O16 O 0.21551(13) 0.2298(2) -0.08934(11)
C4 C 0.13386(15) 0.3621(3) 0.18783(12)
H4 H 0.1486 0.3948 0.2221
C5 C 0.02074(15) -0.3433(3) 0.15243(12)
C6 C -0.00735(14) -0.4282(3) 0.10518(12)
C7 C -0.04378(15) 0.2287(3) -0.00345(12)
C8 C 0.17650(15) 0.0473(3) -0.03081(12)
C9 C 0.14432(14) 0.4420(3) 0.05964(11)
C10 C 0.00588(15) 0.1078(3) -0.05288(12)
H5 H -0.0352 0.0913 -0.0781
C11 C 0.09135(13) 0.2590(3) 0.08509(11)
C12 C 0.05774(14) 0.0672(3) -0.06179(12)
H6 H 0.0518 0.0271 -0.0935
C13 C 0.07548(14) 0.1944(3) 0.03251(11)
C14 C 0.01617(14) -0.2494(3) 0.23096(11)
C15 C 0.11865(14) 0.0871(3) -0.02300(12)
C16 C 0.09226(14) 0.2602(3) 0.17327(12)
C17 C 0.07996(15) -0.2866(3) 0.16444(12)
H7 H 0.1007 -0.2983 0.1421
C18 C 0.15297(14) 0.4143(3) 0.15107(12)
H8 H 0.1810 0.4822 0.1608
C19 C -0.01014(14) -0.3233(3) 0.18579(11)
H9 H -0.0497 -0.3606 0.1775
C20 C 0.07215(14) 0.2081(3) 0.12241(12)
H10 H 0.0454 0.1382 0.1135
C21 C 0.06900(15) 0.2067(3) 0.21253(12)
C22 C 0.12811(15) 0.1480(3) 0.02484(12)
C23 C 0.07536(14) -0.1934(3) 0.24241(11)
C24 C 0.01416(14) 0.1729(3) -0.00682(12)
H18 H 0.1153(15) 0.828(2) -0.0899(15)
H19 H 0.216(2) 0.557(4) -0.007(2)
H20 H 0.1743(9) -0.153(4) -0.1775(10)
H23 H 0.2313(19) 0.252(4) -0.0575(16)
H25 H 0.219(2) 0.291(3) -0.1075(18)
Zn2_2 Zn 0.0000 -0.5000 0.0000
Zn2A Zn 0.0000 -0.5000 0.5000
Zn2A_2 Zn 0.0000 0.5000 0.5000
Zn3A Zn -0.210380(17) 0.03740(3) 0.616320(14)
Zn3E Zn 0.210380(17) -0.03740(3) 0.383680(14)
Zn3F Zn 0.289620(17) 0.46260(3) 0.116320(14)
Zn3D Zn -0.210380(17) -0.03740(3) 0.116320(14)
Zn3G Zn -0.289620(17) 0.46260(3) 0.383680(14)
Zn4A Zn -0.100932(16) 0.61011(4) 0.543021(14)
Zn4D Zn -0.100932(16) -0.61011(4) 0.043021(14)
Zn4D_2 Zn -0.100932(16) 0.38989(4) 0.043021(14)
Zn4E Zn 0.100932(16) -0.61011(4) 0.456979(14)
Zn4E_2 Zn 0.100932(16) 0.38989(4) 0.456979(14)
O1A O -0.16670(10) -0.0213(2) 0.57212(8)
O2A O -0.09847(10) 0.46284(19) 0.48477(8)
O2D O -0.09847(10) 0.53716(19) -0.01523(8)
O3A O -0.16660(10) -0.1219(2) 0.18566(8)
O3E O 0.16660(10) 0.1219(2) -0.18566(8)
O3D O -0.16660(10) 0.1219(2) 0.68566(8)
O4A O -0.01768(10) 0.1414(2) 0.30681(8)
O5A O -0.07452(10) -0.0300(2) 0.19849(8)
O6A O -0.21023(12) -0.1357(2) 0.65270(9)
H1A H -0.2253 -0.1901 0.6298
C1A C -0.10750(15) -0.2136(3) 0.29073(12)
O7A O 0.05502(10) -0.4933(2) 0.39845(8)
O7D O 0.05502(10) 0.4933(2) -0.10155(8)
O7E O -0.05502(10) 0.4933(2) 0.60155(8)
O8A O -0.19229(11) 0.6200(3) 0.52195(10)
H2A H -0.1995 0.6337 0.5482
O9A O -0.01942(10) -0.4297(2) 0.42662(8)
O9D O -0.01942(10) 0.4297(2) -0.07338(8)
O9_2 O 0.01942(10) 0.5703(2) 0.07338(8)
O10A O 0.09714(10) 0.1824(2) 0.52533(9)
O11A O -0.09878(11) 0.2256(2) 0.23912(8)
O12A O -0.23000(10) 0.0829(2) 0.49888(8)
C2A C -0.10712(15) -0.1095(3) 0.21065(12)
O13A O -0.19813(10) 0.4898(2) 0.42850(8)
O13F O 0.30187(10) 0.0102(2) -0.07150(8)
O13G O -0.30187(10) 0.0102(2) 0.57150(8)
O14A O 0.03223(10) 0.33254(19) 0.47589(8)
O14D O 0.03223(10) 0.66746(19) -0.02411(8)
O14E O -0.03223(10) 0.66746(19) 0.52411(8)
O15A O -0.09233(11) 0.7625(2) 0.59771(9)
H3A H -0.0552 0.7680 0.6195
C3A C -0.13086(14) 0.3666(3) 0.40054(12)
O16A O -0.21551(13) 0.2298(2) 0.58934(11)
C4A C -0.13386(15) 0.3621(3) 0.31217(12)
H4A H -0.1486 0.3948 0.2779
C5A C -0.02074(15) -0.3433(3) 0.34757(12)
C6A C 0.00735(14) -0.4282(3) 0.39482(12)
C7A C 0.04378(15) 0.2287(3) 0.50345(12)
C8A C -0.17650(15) 0.0473(3) 0.53081(12)
C9A C -0.14432(14) 0.4420(3) 0.44036(11)
C10A C -0.00588(15) 0.1078(3) 0.55288(12)
H5A H 0.0352 0.0913 0.5781
C11A C -0.09135(13) 0.2590(3) 0.41491(11)
C12A C -0.05774(14) 0.0672(3) 0.56179(12)
H6A H -0.0518 0.0271 0.5935
C13A C -0.07548(14) 0.1944(3) 0.46749(11)
C14A C -0.01617(14) -0.2494(3) 0.26904(11)
C15A C -0.11865(14) 0.0871(3) 0.52300(12)
C16A C -0.09226(14) 0.2602(3) 0.32673(12)
C17A C -0.07996(15) -0.2866(3) 0.33556(12)
H7A H -0.1007 -0.2983 0.3579
C18A C -0.15297(14) 0.4143(3) 0.34893(12)
H8A H -0.1810 0.4822 0.3392
C19A C 0.01014(14) -0.3233(3) 0.31421(11)
H9A H 0.0497 -0.3606 0.3225
C20A C -0.07215(14) 0.2081(3) 0.37759(12)
H10A H -0.0454 0.1382 0.3865
C21A C -0.06900(15) 0.2067(3) 0.28747(12)
C22A C -0.12811(15) 0.1480(3) 0.47516(12)
C23A C -0.07536(14) -0.1934(3) 0.25759(11)
C24A C -0.01416(14) 0.1729(3) 0.50682(12)
H18A H -0.1153(15) 0.828(2) 0.5899(15)
H19A H -0.216(2) 0.557(4) 0.507(2)
H20A H -0.1743(9) -0.153(4) 0.6775(10)
H23A H -0.2313(19) 0.252(4) 0.5575(16)
H25A H -0.219(2) 0.291(3) 0.6075(18)
O17 O 0.38811(15) 0.9431(3) 0.17888(13)
H22 H 0.407(2) 0.939(4) 0.1582(18)
H24 H 0.399(2) 0.886(5) 0.1968(19)
O18 O 0.27549(14) 0.0589(3) 0.14293(10)
H11 H 0.3087 0.0180 0.1545
C25 C 0.2601(2) 0.0968(4) 0.18627(19)
H12 H 0.2384 0.1775 0.1783
H13 H 0.2990 0.1061 0.2184
C26 C 0.2192(2) 0.0027(5) 0.1947(2)
H14 H 0.1799 -0.0036 0.1634
H15 H 0.2101 0.0269 0.2245
H16 H 0.2404 -0.0774 0.2018
O19 O 0.23505(12) 0.8311(2) 0.08103(11)
H17 H 0.240(2) 0.902(2) 0.0966(16)
H21 H 0.1961(7) 0.824(4) 0.0612(16)
loop_
_geom_bond_atom_site_label_1
_geom_bond_atom_site_label_2
_geom_bond_site_symmetry_1
_geom_bond_site_symmetry_2
Zn1 O4 1_555 1_555
Zn2 O2 1_555 1_555
Zn3 O1 1_555 1_555
Zn4 O2 1_555 1_555
O1 C8 1_555 1_555
O2 C9 1_555 1_555
O3 C2 1_555 1_555
O4 C21 1_555 1_555
O5 Zn1 1_555 1_555
O6 Zn3 1_555 1_555
H1 O6 1_555 1_555
C1 C17 1_555 1_555
O7 C6 1_555 1_555
O8 Zn4 1_555 1_555
H2 O8 1_555 1_555
O9 C6 1_555 1_555
O10 C7 1_555 1_555
O11 C21 1_555 1_555
O12 C8 1_555 1_555
C2 O5 1_555 1_555
O13 C9 1_555 1_555
O14 Zn2 1_555 1_555
O15 Zn4 1_555 1_555
H3 O15 1_555 1_555
C3 C9 1_555 1_555
O16 Zn3 1_555 1_555
C4 H4 1_555 1_555
C5 C6 1_555 1_555
C7 O14 1_555 1_555
C8 C15 1_555 1_555
C10 H5 1_555 1_555
C11 C3 1_555 1_555
C12 C10 1_555 1_555
H6 C12 1_555 1_555
C13 C11 1_555 1_555
C14 C19 1_555 1_555
C15 C12 1_555 1_555
C16 C4 1_555 1_555
C17 C5 1_555 1_555
H7 C17 1_555 1_555
C18 C3 1_555 1_555
H8 C18 1_555 1_555
C19 C5 1_555 1_555
H9 C19 1_555 1_555
C20 C11 1_555 1_555
H10 C20 1_555 1_555
C21 C16 1_555 1_555
C22 C13 1_555 1_555
C23 C1 1_555 1_555
C24 C7 1_555 1_555
O17 H22 1_555 1_555
O18 H11 1_555 1_555
O19 H17 1_555 1_555
C25 O18 1_555 1_555
H12 C25 1_555 1_555
H13 C25 1_555 1_555
C26 C25 1_555 1_555
H14 C26 1_555 1_555
H15 C26 1_555 1_555
H16 C26 1_555 1_555
H18 O15 1_555 1_555
H19 O8 1_555 1_555
H20 O6 1_555 1_555
H21 O19 1_555 1_555
H23 O16 1_555 1_555
H24 O17 1_555 1_555
H25 O16 1_555 1_555
Zn2_2 O9 1_555 1_555
Zn2A O9A 1_555 1_555
Zn2A_2 O2A 1_555 1_555
Zn3A O1A 1_555 1_555
Zn3E O3 1_555 1_555
Zn3F O13 1_555 1_555
Zn3D O3A 1_555 1_555
Zn3G O13A 1_555 1_555
Zn4A O2A 1_555 1_555
Zn4D O7 1_555 1_555
Zn4D_2 O14 1_555 1_555
Zn4E O7A 1_555 1_555
Zn4E_2 O14A 1_555 1_555
O1A C8A 1_555 1_555
O2A C9A 1_555 1_555
O2D Zn2 1_555 1_555
O3A C2A 1_555 1_555
O3E Zn3 1_555 1_555
O3D Zn3A 1_555 1_555
O4A Zn1 1_555 1_555
O5A Zn1 1_555 1_555
O6A Zn3A 1_555 1_555
H1A O6A 1_555 1_555
C1A C17A 1_555 1_555
O7A C6A 1_555 1_555
O7D Zn4 1_555 1_555
O7E Zn4A 1_555 1_555
O8A Zn4A 1_555 1_555
H2A O8A 1_555 1_555
O9A C6A 1_555 1_555
O9D Zn2 1_555 1_555
O9_2 Zn2 1_555 1_555
O10A C7A 1_555 1_555
O11A C21A 1_555 1_555
O12A C8A 1_555 1_555
C2A O5A 1_555 1_555
O13A C9A 1_555 1_555
O13F Zn3 1_555 1_555
O13G Zn3A 1_555 1_555
O14A Zn2A_2 1_555 1_555
O14D Zn2 1_555 1_555
O14E Zn2A_2 1_555 1_555
O15A Zn4A 1_555 1_555
H3A O15A 1_555 1_555
C3A C9A 1_555 1_555
O16A Zn3A 1_555 1_555
C4A H4A 1_555 1_555
C5A C6A 1_555 1_555
C7A O14A 1_555 1_555
C8A C15A 1_555 1_555
C10A H5A 1_555 1_555
C11A C3A 1_555 1_555
C12A C10A 1_555 1_555
H6A C12A 1_555 1_555
C13A C11A 1_555 1_555
C14A C14 1_555 1_555
C15A C12A 1_555 1_555
C16A C4A 1_555 1_555
C17A C5A 1_555 1_555
H7A C17A 1_555 1_555
C18A C3A 1_555 1_555
H8A C18A 1_555 1_555
C19A C5A 1_555 1_555
H9A C19A 1_555 1_555
C20A C11A 1_555 1_555
H10A C20A 1_555 1_555
C21A O4A 1_555 1_555
C22A C13A 1_555 1_555
C23A C1A 1_555 1_555
C24A C7A 1_555 1_555
H18A O15A 1_555 1_555
H19A O8A 1_555 1_555
H20A O6A 1_555 1_555
H23A O16A 1_555 1_555
H25A O16A 1_555 1_555
Zn4 O14D 1_555 1_555
C2 C23 1_555 1_555
C4 C18 1_555 1_555
C10 C24 1_555 1_555
C13 C24 1_555 1_555
C14 C23 1_555 1_555
C15 C22 1_555 1_555
C16 C20 1_555 1_555
Zn4A O14E 1_555 1_555
Zn4D_2 O2D 1_555 1_555
C2A C23A 1_555 1_555
C4A C18A 1_555 1_555
C10A C24A 1_555 1_555
C13A C24A 1_555 1_555
C14A C19A 1_555 1_555
C14A C23A 1_555 1_555
C15A C22A 1_555 1_555
C16A C20A 1_555 1_555
C16A C21A 1_555 1_555

#END
