
#######################################################################
#
#                 Cambridge Crystallographic Data Centre
#                                CCDC 
#
#######################################################################
#
# If this CIF has been generated from an entry in the Cambridge 
# Structural Database, then it will include bibliographic, chemical, 
# crystal, experimental, refinement or atomic coordinate data resulting 
# from the CCDC's data processing and validation procedures.
#
#######################################################################

data_GAWKEW
_symmetry_cell_setting           monoclinic
_symmetry_space_group_name_H-M   'P 21/c'
_symmetry_Int_Tables_number      14
_space_group_name_Hall           '-P 2ybc'
loop_
_symmetry_equiv_pos_site_id
_symmetry_equiv_pos_as_xyz
1 x,y,z
2 -x,1/2+y,1/2-z
3 -x,-y,-z
4 x,1/2-y,1/2+z
_cell_length_a                   18.432(5)
_cell_length_b                   14.907(5)
_cell_length_c                   33.284(5)
_cell_angle_alpha                90
_cell_angle_beta                 97.890(5)
_cell_angle_gamma                90
_cell_volume                     9058.73
loop_
_atom_site_label
_atom_site_type_symbol
_atom_site_fract_x
_atom_site_fract_y
_atom_site_fract_z
W1 W 0.10197(5) 0.13925(6) 0.50040(3)
P1 P 0.1660(3) 0.2627(3) 0.42160(18)
O1 O 0.3253(8) 0.2222(10) 0.5611(6)
C1 C 0.3566(12) -0.1113(16) 0.3692(10)
H1 H 0.3368 -0.0613 0.3803
O2 O -0.0963(9) 0.2628(16) 0.1681(6)
Cu1 Cu 0.51941(14) -0.05247(18) 0.38710(11)
N1 N 0.0299(12) 0.1637(16) 0.1722(9)
O3 O 0.7054(17) -0.0530(16) 0.3200(10)
W2 W 0.41878(5) 0.33394(6) 0.27736(3)
P2 P 0.3351(3) 0.3383(3) 0.36801(18)
O4 O 0.0905(8) 0.0745(9) 0.5417(6)
N2 N 0.4256(9) -0.1227(11) 0.3686(7)
C2 C 0.0896(16) 0.117(2) 0.1681(12)
H2 H 0.1000 0.0943 0.1436
O5 O 0.5740(7) -0.1399(10) 0.3586(5)
O6 O 0.5425(11) -0.1295(15) 0.4518(8)
Cu2 Cu 0.68378(14) -0.13861(18) 0.37606(11)
Cu3 Cu -0.04798(15) 0.2556(2) 0.22662(11)
W3 W -0.00597(5) 0.15597(6) 0.40976(3)
O7 O 0.1097(9) -0.0104(10) 0.3257(6)
N3 N -0.1267(9) 0.3354(12) 0.2379(7)
C3 C 0.6256(12) 0.0891(14) 0.4248(8)
H3 H 0.5892 0.1294 0.4296
O8 O 0.8446(9) 0.1431(13) 0.4751(7)
W4 W 0.44384(5) 0.51491(6) 0.34026(3)
O9 O 0.0637(7) 0.0833(10) 0.3883(6)
N4 N 0.1314(9) 0.1069(12) 0.2019(7)
C4 C 0.7392(14) -0.2931(16) 0.3328(9)
H4 H 0.7858 -0.2693 0.3328
Cu4 Cu 0.05186(18) 0.6969(3) 0.37117(12)
O10 O 0.7585(16) 0.3027(14) 0.4370(8)
W5 W 0.25294(5) 0.05853(6) 0.44752(3)
N5 N -0.1928(9) 0.3394(12) 0.2123(7)
O11 O 0.4431(9) 0.3216(11) 0.2302(6)
C5 C 0.0939(13) 0.1499(16) 0.2283(9)
H5 H 0.1092 0.1519 0.2561
O12 O 0.6452(10) 0.2369(18) 0.4873(8)
Cu5 Cu 0.22938(14) 0.03409(17) 0.20739(10)
W6 W 0.52704(5) 0.31774(6) 0.36887(3)
Cu6 Cu 0.20471(13) 0.78835(17) 0.34195(9)
N6 N 0.4322(9) -0.2083(12) 0.3518(7)
O13 O 0.3734(9) 0.6267(11) 0.4543(7)
C6 C -0.2302(13) 0.4028(15) 0.2271(9)
H6 H -0.2764 0.4212 0.2151
O14 O 0.5300(10) -0.3068(11) 0.4160(6)
Cu7 Cu 0.52862(13) -0.26234(17) 0.35016(10)
W7 W 0.14664(5) 0.07232(6) 0.35781(3)
O15 O 0.3431(8) 0.5388(9) 0.3247(5)
C7 C 0.3660(11) -0.2384(14) 0.3434(8)
H7 H 0.3553 -0.2952 0.3327
O16 O 0.7931(8) -0.1469(12) 0.3931(6)
Cu8 Cu 0.74513(15) 0.19060(19) 0.47960(10)
W8 W 0.08385(5) 0.46522(6) 0.38945(4)
N7 N 0.7166(10) -0.3741(12) 0.3186(7)
C8 C -0.1301(13) 0.3954(14) 0.2671(9)
H8 H -0.0928 0.4057 0.2884
O17 O 0.3822(8) 0.2203(9) 0.2882(6)
C9 C 0.7582(13) 0.2179(15) 0.5690(9)
H9 H 0.7135 0.1895 0.5696
W9 W 0.28321(5) 0.25589(6) 0.51399(3)
N8 N 0.6839(9) -0.2527(12) 0.3469(7)
O19 O 0.5082(8) 0.3047(9) 0.3091(5)
C10 C 0.7291(12) 0.0261(14) 0.4259(8)
H10 H 0.7787 0.0125 0.4310
W10 W 0.41076(5) 0.13245(6) 0.39624(3)
N9 N 0.6795(10) -0.0266(12) 0.4054(7)
O21 O 0.2676(8) 0.3839(10) 0.3437(5)
O22 O -0.0169(17) 0.771(2) 0.4044(11)
C11 C 0.8490(12) 0.2789(16) 0.5494(10)
H11 H 0.8818 0.3026 0.5333
W11 W 0.02034(5) 0.33750(6) 0.47223(4)
N10 N 0.7842(11) 0.2412(13) 0.5341(7)
O23 O 0.1929(8) 0.5423(10) 0.5166(6)
C12 C 0.6472(13) -0.3765(16) 0.3225(9)
H12 H 0.6169 -0.4246 0.3140
N11 N 0.8607(10) 0.2786(13) 0.5882(7)
W12 W 0.05906(5) 0.28868(6) 0.32741(3)
O25 O 0.3304(8) 0.2339(10) 0.3649(6)
O26 O 0.5038(19) 0.013(2) 0.3127(11)
N12 N 0.8015(9) 0.2389(12) 0.6005(7)
W13 W 0.24243(5) 0.53426(6) 0.33781(4)
O27 O 0.2851(8) 0.5403(10) 0.3922(5)
N13 N 0.6994(9) 0.1017(11) 0.4386(6)
W14 W 0.30590(5) 0.14469(6) 0.30606(3)
O29 O 0.0982(8) 0.2347(9) 0.4416(5)
O30 O 0.2893(18) -0.055(2) 0.1823(13)
N14 N 0.6239(10) -0.3040(12) 0.3398(7)
W15 W 0.20130(5) 0.45005(6) 0.48634(4)
O31 O 0.0377(9) 0.5679(12) 0.3898(6)
O32 O 0.022(2) 0.402(2) 0.2130(14)
O33 O -0.1022(16) 0.1244(18) 0.2484(10)
N15 N 0.3153(10) -0.1816(13) 0.3514(7)
W16 W 0.21813(5) 0.35828(6) 0.27540(4)
O34 O 0.4443(8) 0.4586(9) 0.2877(5)
N16 N 0.6129(9) 0.0160(11) 0.4050(7)
W17 W 0.35989(5) 0.51872(6) 0.43567(4)
O35 O 0.2993(9) 0.0709(10) 0.2664(6)
N17 N -0.1942(10) 0.4395(12) 0.2621(7)
W18 W 0.44198(5) 0.32605(7) 0.46284(4)
O36 O 0.6191(9) 0.2913(11) 0.3788(6)
O37 O -0.0041(8) 0.2693(10) 0.2841(5)
N18 N 0.0342(10) 0.1881(12) 0.2108(7)
O38 O 0.1527(8) 0.5012(10) 0.3543(6)
O39 O 0.1369(8) 0.3248(9) 0.3867(6)
O40 O 0.0251(8) 0.4039(9) 0.4245(5)
O41 O -0.0431(9) 0.3979(11) 0.4975(6)
O42 O 0.3639(8) 0.3040(10) 0.4937(5)
O43 O 0.1306(7) 0.3401(9) 0.3000(5)
O44 O 0.3791(7) 0.0863(9) 0.3414(5)
O45 O 0.2331(7) 0.0919(9) 0.3352(5)
O46 O 0.4829(7) 0.2044(9) 0.3730(5)
O47 O 0.1664(7) 0.0689(9) 0.4711(5)
O48 O 0.1765(9) 0.3525(11) 0.2248(6)
O49 O 0.0284(8) 0.4046(10) 0.3431(6)
O50 O 0.2921(8) 0.1481(9) 0.4826(5)
O51 O 0.2918(8) 0.4798(9) 0.4688(6)
O52 O 0.2400(8) 0.2343(9) 0.2871(6)
O53 O 0.4242(8) 0.2084(9) 0.4403(6)
O54 O 0.4336(7) 0.4537(9) 0.4684(5)
O55 O 0.1962(7) 0.0052(9) 0.4008(6)
O56 O 0.1980(8) 0.1760(10) 0.4056(5)
O57 O 0.3183(8) 0.3720(10) 0.2663(6)
O58 O 0.0403(8) 0.2394(9) 0.5107(6)
O59 O 0.3276(7) 0.0822(9) 0.4147(5)
O60 O -0.0435(8) 0.2512(10) 0.4402(6)
O61 O 0.2108(8) 0.4839(9) 0.2847(5)
O62 O 0.5037(8) 0.3450(10) 0.4205(6)
O63 O 0.2888(10) -0.0371(11) 0.4721(6)
O64 O 0.5293(7) 0.4458(9) 0.3584(5)
O65 O 0.3483(8) 0.3710(10) 0.4117(6)
O66 O 0.1094(8) 0.1773(10) 0.3309(5)
O67 O 0.0218(8) 0.0980(10) 0.4616(6)
O68 O -0.0878(8) 0.0991(11) 0.3936(6)
O69 O 0.2205(7) 0.3110(9) 0.4537(5)
O70 O 0.2507(7) 0.3727(9) 0.5267(5)
O71 O 0.0028(7) 0.2362(9) 0.3673(5)
O72 O 0.1536(8) 0.4837(10) 0.4344(6)
O73 O 0.4691(8) 0.0410(10) 0.4128(6)
O74 O 0.4829(8) 0.6202(9) 0.3317(6)
O75 O 0.5109(10) 0.2995(13) 0.5014(6)
O76 O 0.4254(7) 0.5273(10) 0.3947(5)
O77 O 0.1089(8) 0.3908(9) 0.4932(5)
O78 O 0.2226(9) 0.6455(10) 0.3266(6)
O79 O 0.4042(7) 0.3665(9) 0.3470(5)
O80 O 0.1858(7) 0.2066(9) 0.5189(5)
O1B O 0.6747(8) -0.2222(10) 0.4389(6)
O2A O 0.0963(9) 0.7628(16) 0.3319(6)
N1A N -0.0299(12) 0.6637(16) 0.3278(9)
Cu2B Cu 0.31622(14) 0.13861(18) 0.62394(11)
Cu4A Cu -0.05186(18) 0.1969(3) 0.12883(12)
Cu4B Cu 0.94814(18) 0.3031(3) 0.62883(12)
N5A N 0.1928(9) 0.8394(12) 0.2877(7)
Cu5A Cu 0.77062(14) -0.46591(17) 0.29261(10)
Cu5A_2 Cu -0.22938(14) 0.53409(17) 0.29261(10)
Cu6A Cu -0.20471(13) 0.28835(17) 0.15805(9)
Cu6B Cu 0.79529(13) 0.21165(17) 0.65805(9)
Cu6_2 Cu 0.20471(13) -0.21165(17) 0.34195(9)
Cu7_2 Cu 0.52862(13) 0.73766(17) 0.35016(10)
N7A N 0.2834(10) 0.1259(12) 0.1814(7)
N11B N 0.1393(10) 0.7214(13) 0.4118(7)
N12B N 0.1985(9) 0.7611(12) 0.3995(7)
N15_2 N 0.3153(10) 0.8184(13) 0.3514(7)
N17A N 0.1942(10) -0.0605(12) 0.2379(7)
O74_2 O 0.4829(8) -0.3798(9) 0.3317(6)
O18 O 0.5856(12) -0.4738(13) 0.4449(7)
O20 O 0.9288(10) 0.0897(12) 0.5465(8)
O24 O 0.2977(16) 0.003(2) 0.0995(9)
O28 O 0.887(2) -0.064(2) 0.3563(13)
loop_
_geom_bond_atom_site_label_1
_geom_bond_atom_site_label_2
_geom_bond_site_symmetry_1
_geom_bond_site_symmetry_2
W1 O4 1_555 1_555
P1 O29 1_555 1_555
O1 W9 1_555 1_555
C1 H1 1_555 1_555
O2 Cu3 1_555 1_555
Cu1 N2 1_555 1_555
N1 C2 1_555 1_555
O3 Cu2 1_555 1_555
W2 O11 1_555 1_555
P2 O21 1_555 1_555
N2 C1 1_555 1_555
C2 H2 1_555 1_555
O5 Cu1 1_555 1_555
O6 Cu1 1_555 1_555
Cu2 O5 1_555 1_555
Cu3 N3 1_555 1_555
W3 O9 1_555 1_555
O7 W7 1_555 1_555
N3 N5 1_555 1_555
C3 H3 1_555 1_555
O8 Cu8 1_555 1_555
W4 O15 1_555 1_555
O9 W7 1_555 1_555
N4 C2 1_555 1_555
C4 H4 1_555 1_555
Cu4 O22 1_555 1_555
O10 Cu8 1_555 1_555
W5 O47 1_555 1_555
N5 C6 1_555 1_555
C5 N4 1_555 1_555
H5 C5 1_555 1_555
O12 Cu8 1_555 1_555
Cu5 N4 1_555 1_555
W6 O19 1_555 1_555
Cu6 O78 1_555 1_555
N6 N2 1_555 1_555
O13 W17 1_555 1_555
C6 H6 1_555 1_555
O14 Cu7 1_555 1_555
Cu7 O5 1_555 1_555
W7 O45 1_555 1_555
O15 W13 1_555 1_555
C7 N6 1_555 1_555
H7 C7 1_555 1_555
O16 Cu2 1_555 1_555
Cu8 N10 1_555 1_555
W8 O31 1_555 1_555
N7 C4 1_555 1_555
C8 N3 1_555 1_555
H8 C8 1_555 1_555
O17 W2 1_555 1_555
C9 H9 1_555 1_555
W9 O42 1_555 1_555
N8 Cu2 1_555 1_555
O19 W2 1_555 1_555
C10 H10 1_555 1_555
W10 O25 1_555 1_555
N9 Cu2 1_555 1_555
O21 W13 1_555 1_555
C11 H11 1_555 1_555
W11 O29 1_555 1_555
N10 C9 1_555 1_555
O23 W15 1_555 1_555
C12 N7 1_555 1_555
H12 C12 1_555 1_555
N11 C11 1_555 1_555
W12 O37 1_555 1_555
O25 P2 1_555 1_555
O26 Cu1 1_555 1_555
N12 C9 1_555 1_555
W13 O27 1_555 1_555
O27 W17 1_555 1_555
N13 C3 1_555 1_555
W14 O17 1_555 1_555
O29 W1 1_555 1_555
O30 Cu5 1_555 1_555
N14 Cu7 1_555 1_555
W15 O51 1_555 1_555
O31 Cu4 1_555 1_555
O32 Cu3 1_555 1_555
O33 Cu3 1_555 1_555
N15 C1 1_555 1_555
W16 O21 1_555 1_555
O34 W2 1_555 1_555
N16 Cu1 1_555 1_555
W17 O51 1_555 1_555
O35 Cu5 1_555 1_555
N17 C6 1_555 1_555
W18 O42 1_555 1_555
O36 W6 1_555 1_555
O37 Cu3 1_555 1_555
N18 N1 1_555 1_555
O38 W8 1_555 1_555
O39 P1 1_555 1_555
O40 W8 1_555 1_555
O41 W11 1_555 1_555
O43 W12 1_555 1_555
O44 W10 1_555 1_555
O45 W14 1_555 1_555
O46 W6 1_555 1_555
O47 W1 1_555 1_555
O48 W16 1_555 1_555
O49 W8 1_555 1_555
O50 W5 1_555 1_555
O52 W14 1_555 1_555
O53 W10 1_555 1_555
O54 W17 1_555 1_555
O55 W5 1_555 1_555
O56 P1 1_555 1_555
O57 W2 1_555 1_555
O58 W1 1_555 1_555
O59 W5 1_555 1_555
O60 W3 1_555 1_555
O61 W13 1_555 1_555
O62 W6 1_555 1_555
O63 W5 1_555 1_555
O64 W4 1_555 1_555
O65 P2 1_555 1_555
O66 W7 1_555 1_555
O67 W1 1_555 1_555
O68 W3 1_555 1_555
O69 P1 1_555 1_555
O70 W9 1_555 1_555
O71 W3 1_555 1_555
O72 W8 1_555 1_555
O73 Cu1 1_555 1_555
O74 W4 1_555 1_555
O75 W18 1_555 1_555
O76 W4 1_555 1_555
O77 W11 1_555 1_555
O78 W13 1_555 1_555
O79 W2 1_555 1_555
O80 W1 1_555 1_555
O1B Cu2 1_555 1_555
O2A Cu4 1_555 1_555
N1A Cu4 1_555 1_555
Cu2B O1 1_555 1_555
Cu4A O2 1_555 1_555
Cu4B N11 1_555 1_555
N5A Cu6 1_555 1_555
Cu5A N7 1_555 1_555
Cu5A_2 N17 1_555 1_555
Cu6A O2 1_555 1_555
Cu6B N12 1_555 1_555
Cu6_2 N15 1_555 1_555
Cu7_2 O74 1_555 1_555
N7A Cu5 1_555 1_555
N11B Cu4 1_555 1_555
N12B Cu6 1_555 1_555
N15_2 Cu6 1_555 1_555
N17A Cu5 1_555 1_555
O74_2 Cu7 1_555 1_555
N1 Cu4A 1_555 1_555
P2 O79 1_555 1_555
Cu3 N18 1_555 1_555
W3 O29 1_555 1_555
W3 O67 1_555 1_555
C3 N16 1_555 1_555
W4 O34 1_555 1_555
W4 O79 1_555 1_555
C4 N8 1_555 1_555
W5 O56 1_555 1_555
N5 Cu6A 1_555 1_555
C5 N18 1_555 1_555
W6 O64 1_555 1_555
W6 O79 1_555 1_555
Cu6 O2A 1_555 1_555
N6 Cu7 1_555 1_555
W7 O55 1_555 1_555
W7 O56 1_555 1_555
C7 N15 1_555 1_555
Cu8 N13 1_555 1_555
W8 O39 1_555 1_555
C8 N17 1_555 1_555
W9 O50 1_555 1_555
W9 O69 1_555 1_555
W9 O80 1_555 1_555
N8 N14 1_555 1_555
C10 N9 1_555 1_555
C10 N13 1_555 1_555
W10 O46 1_555 1_555
W10 O59 1_555 1_555
W10 O73 1_555 1_555
N9 N16 1_555 1_555
C11 N10 1_555 1_555
W11 O40 1_555 1_555
W11 O58 1_555 1_555
W11 O60 1_555 1_555
C12 N14 1_555 1_555
N11 N12 1_555 1_555
W12 O39 1_555 1_555
W12 O49 1_555 1_555
W12 O66 1_555 1_555
W12 O71 1_555 1_555
O25 W14 1_555 1_555
W13 O38 1_555 1_555
W14 O35 1_555 1_555
W14 O44 1_555 1_555
W15 O69 1_555 1_555
W15 O70 1_555 1_555
W15 O72 1_555 1_555
W15 O77 1_555 1_555
W16 O43 1_555 1_555
W16 O52 1_555 1_555
W16 O57 1_555 1_555
W16 O61 1_555 1_555
W17 O65 1_555 1_555
W17 O76 1_555 1_555
W18 O53 1_555 1_555
W18 O54 1_555 1_555
W18 O62 1_555 1_555
W18 O65 1_555 1_555
N11B N12B 1_555 1_555

#END
