
#######################################################################
#
#                 Cambridge Crystallographic Data Centre
#                                CCDC 
#
#######################################################################
#
# If this CIF has been generated from an entry in the Cambridge 
# Structural Database, then it will include bibliographic, chemical, 
# crystal, experimental, refinement or atomic coordinate data resulting 
# from the CCDC's data processing and validation procedures.
#
#######################################################################

data_GAWTOP
_symmetry_cell_setting           orthorhombic
_symmetry_space_group_name_H-M   'P b c n'
_symmetry_Int_Tables_number      60
_space_group_name_Hall           '-P 2n 2ab'
loop_
_symmetry_equiv_pos_site_id
_symmetry_equiv_pos_as_xyz
1 x,y,z
2 1/2-x,1/2-y,1/2+z
3 -x,y,1/2-z
4 1/2+x,1/2-y,-z
5 -x,-y,-z
6 1/2+x,1/2+y,1/2-z
7 x,-y,1/2+z
8 1/2-x,1/2+y,z
_cell_length_a                   23.695(4)
_cell_length_b                   10.2775(18)
_cell_length_c                   9.9729(18)
_cell_angle_alpha                90
_cell_angle_beta                 90
_cell_angle_gamma                90
_cell_volume                     2428.65
loop_
_atom_site_label
_atom_site_type_symbol
_atom_site_fract_x
_atom_site_fract_y
_atom_site_fract_z
N2 N 0.5000 0.5540(19) -0.2500
C10 C 0.5000 0.689(2) -0.2500
C11 C 0.5525(8) 0.503(2) -0.2599(16)
H9 H 0.5502 0.4096 -0.2593
H10 H 0.5750 0.5315 -0.1855
H11 H 0.5696 0.5312 -0.3421
O6 O 0.4701(8) 0.7749(17) -0.219(2)
C11B C 0.4475(8) 0.503(2) -0.2401(16)
H9B H 0.4498 0.4096 -0.2407
H10B H 0.4250 0.5315 -0.3145
H11B H 0.4304 0.5312 -0.1579
O6B O 0.5299(8) 0.7749(17) -0.281(2)
N1 N 0.36554(12) 0.8476(3) 0.4036(3)
Co1 Co 0.286231(19) 0.79108(5) 0.48757(5)
C1 C 0.16795(16) 0.7070(4) 0.4069(4)
H1 H 0.1340 0.7559 0.3869
H2 H 0.1569 0.6179 0.4251
C2 C 0.20587(15) 0.7089(3) 0.2856(4)
C3 C 0.20555(16) 0.9983(4) 0.5134(4)
C4 C 0.17191(15) 0.8834(4) 0.5678(4)
H3 H 0.1723 0.8865 0.6650
H4 H 0.1330 0.8913 0.5387
C5 C 0.41352(17) 0.8304(5) 0.4738(4)
H5 H 0.4108 0.8094 0.5643
C6 C 0.46604(16) 0.8426(5) 0.4181(4)
H6 H 0.4980 0.8297 0.4707
C7 C 0.47196(14) 0.8742(4) 0.2829(4)
C8 C 0.42212(15) 0.8962(4) 0.2132(4)
H7 H 0.4236 0.9200 0.1233
C9 C 0.37054(15) 0.8831(4) 0.2756(4)
H8 H 0.3380 0.8997 0.2265
O1 O 0.19356(11) 0.7604(3) 0.5249(3)
O2 O 0.25602(11) 0.7464(3) 0.3001(3)
O3 O 0.18117(12) 1.1064(3) 0.5183(3)
O4 O 0.18389(11) 0.6704(3) 0.1798(3)
O5 O 0.25455(11) 0.9777(3) 0.4724(3)
N1B N 0.63446(12) 0.8476(3) 0.0964(3)
Co1B Co 0.713769(19) 0.79108(5) 0.01243(5)
Co1G Co 0.213769(19) 1.29108(5) 0.48757(5)
Co1A Co 0.213769(19) 0.70892(5) -0.01243(5)
Co1G_2 Co 0.213769(19) 0.29108(5) 0.48757(5)
Co1F Co 0.286231(19) 0.20892(5) -0.01243(5)
C1G C 0.33205(16) 0.2070(4) 0.4069(4)
H1G H 0.3660 0.2559 0.3869
H2G H 0.3431 0.1179 0.4251
C2G C 0.29413(15) 0.2089(3) 0.2856(4)
C3G C 0.29445(16) 0.4983(4) 0.5134(4)
C4G C 0.32809(15) 0.3834(4) 0.5678(4)
H3G H 0.3277 0.3865 0.6650
H4G H 0.3670 0.3913 0.5387
C5B C 0.58648(17) 0.8304(5) 0.0262(4)
H5B H 0.5892 0.8094 -0.0643
C6B C 0.53396(16) 0.8426(5) 0.0819(4)
H6B H 0.5020 0.8297 0.0293
C7B C 0.52804(14) 0.8742(4) 0.2171(4)
C8B C 0.57788(15) 0.8962(4) 0.2868(4)
H7B H 0.5764 0.9200 0.3767
C9B C 0.62946(15) 0.8831(4) 0.2244(4)
H8B H 0.6620 0.8997 0.2735
O1G O 0.30644(11) 0.2604(3) 0.5249(3)
O1B O 0.80644(11) 0.7604(3) -0.0249(3)
O2G O 0.24398(11) 0.2464(3) 0.3001(3)
O2B O 0.74398(11) 0.7464(3) 0.1999(3)
O3G O 0.31883(12) 0.6064(3) 0.5183(3)
O3E O 0.68117(12) 0.6064(3) -0.0183(3)
O4G O 0.31611(11) 0.1704(3) 0.1798(3)
O4A O 0.31611(11) 0.8296(3) 0.6798(3)
O4C O 0.68389(11) 0.8296(3) -0.1798(3)
O5G O 0.24545(11) 0.4777(3) 0.4724(3)
O5B O 0.74545(11) 0.9777(3) 0.0276(3)
loop_
_geom_bond_atom_site_label_1
_geom_bond_atom_site_label_2
_geom_bond_site_symmetry_1
_geom_bond_site_symmetry_2
N1 Co1 1_555 1_555
Co1 O1 1_555 1_555
C1 H1 1_555 1_555
H2 C1 1_555 1_555
C2 C1 1_555 1_555
C3 C4 1_555 1_555
C4 H3 1_555 1_555
H4 C4 1_555 1_555
C5 N1 1_555 1_555
H5 C5 1_555 1_555
C6 C5 1_555 1_555
H6 C6 1_555 1_555
C7 C6 1_555 1_555
C8 C7 1_555 1_555
H7 C8 1_555 1_555
C9 N1 1_555 1_555
H8 C9 1_555 1_555
O1 C1 1_555 1_555
O2 Co1 1_555 1_555
O3 C3 1_555 1_555
O4 C2 1_555 1_555
O5 Co1 1_555 1_555
N2 C10 1_555 1_555
C10 O6 1_555 1_555
C11 N2 1_555 1_555
H9 C11 1_555 1_555
H10 C11 1_555 1_555
H11 C11 1_555 1_555
O6 O6B 1_555 1_555
N1B Co1B 1_555 1_555
Co1B O1B 1_555 1_555
Co1G O3 1_555 1_555
Co1A O4 1_555 1_555
Co1G_2 O1G 1_555 1_555
Co1F O4G 1_555 1_555
C1G H1G 1_555 1_555
H2G C1G 1_555 1_555
C2G C1G 1_555 1_555
C3G C4G 1_555 1_555
C4G H3G 1_555 1_555
H4G C4G 1_555 1_555
C5B N1B 1_555 1_555
H5B C5B 1_555 1_555
C6B C5B 1_555 1_555
H6B C6B 1_555 1_555
C7B C7 1_555 1_555
C8B C7B 1_555 1_555
H7B C8B 1_555 1_555
C9B N1B 1_555 1_555
H8B C9B 1_555 1_555
O1G C1G 1_555 1_555
O2G Co1G_2 1_555 1_555
O2B Co1B 1_555 1_555
O3G Co1 1_555 1_555
O3E Co1B 1_555 1_555
O4G C2G 1_555 1_555
O4A Co1 1_555 1_555
O4C Co1B 1_555 1_555
O5G Co1G_2 1_555 1_555
O5B Co1B 1_555 1_555
C11B N2 1_555 1_555
H9B C11B 1_555 1_555
H10B C11B 1_555 1_555
H11B C11B 1_555 1_555
O6B C10 1_555 1_555
C2 O2 1_555 1_555
C3 O5 1_555 1_555
C4 O1 1_555 1_555
C8 C9 1_555 1_555
C2G O2G 1_555 1_555
C3G O3G 1_555 1_555
C3G O5G 1_555 1_555
C4G O1G 1_555 1_555
C6B C7B 1_555 1_555
C8B C9B 1_555 1_555

#END
