
#######################################################################
#
#                 Cambridge Crystallographic Data Centre
#                                CCDC 
#
#######################################################################
#
# If this CIF has been generated from an entry in the Cambridge 
# Structural Database, then it will include bibliographic, chemical, 
# crystal, experimental, refinement or atomic coordinate data resulting 
# from the CCDC's data processing and validation procedures.
#
#######################################################################

data_GAXQIH
_symmetry_cell_setting           monoclinic
_symmetry_space_group_name_H-M   'C 2/c'
_symmetry_Int_Tables_number      15
_space_group_name_Hall           '-C 2yn'
loop_
_symmetry_equiv_pos_site_id
_symmetry_equiv_pos_as_xyz
1 x,y,z
2 -x,y,1/2-z
3 1/2+x,1/2+y,z
4 1/2-x,1/2+y,1/2-z
5 -x,-y,-z
6 x,-y,1/2+z
7 1/2-x,1/2-y,-z
8 1/2+x,1/2-y,1/2+z
_cell_length_a                   28.368(6)
_cell_length_b                   11.144(2)
_cell_length_c                   16.695(3)
_cell_angle_alpha                90
_cell_angle_beta                 116.37(3)
_cell_angle_gamma                90
_cell_volume                     4728.65
loop_
_atom_site_label
_atom_site_type_symbol
_atom_site_fract_x
_atom_site_fract_y
_atom_site_fract_z
Ni1 Ni 0.2500 0.2500 0.0000
Ni2 Ni 0.7500 0.2500 0.0000
C1 C 0.2647(2) 0.4983(6) 0.4283(4)
C2 C 0.2705(2) 0.4416(6) 0.3500(4)
C3 C 0.2337(3) 0.3565(6) 0.2923(4)
C4 C 0.1866(3) 0.3083(6) 0.3030(5)
C5 C 0.3113(3) 0.4845(6) 0.3328(4)
H1 H 0.3351 0.5410 0.3700
C6 C 0.3154(2) 0.4395(6) 0.2573(4)
C7 C 0.2786(3) 0.3576(6) 0.1987(4)
C8 C 0.2382(3) 0.3141(6) 0.2172(4)
H2 H 0.2146 0.2575 0.1799
C9 C 0.3318(3) 0.4063(6) 0.1434(4)
H3 H 0.3478 0.4107 0.1053
C10 C 0.3543(3) 0.0894(6) 0.0909(4)
H4 H 0.3360 0.0502 0.1176
C11 C 0.4058(3) 0.0546(6) 0.1157(4)
H5 H 0.4210 -0.0059 0.1578
C12 C 0.4346(3) 0.1108(6) 0.0771(4)
C13 C 0.4093(3) 0.2005(7) 0.0161(5)
H6 H 0.4269 0.2419 -0.0109
C14 C 0.3576(3) 0.2287(6) -0.0049(4)
H7 H 0.3416 0.2887 -0.0471
C15 C 0.4896(3) 0.0805(6) 0.0984(5)
C16 C 0.5635(3) 0.0928(7) 0.0951(5)
C17 C 0.6084(3) 0.1294(6) 0.0759(4)
C18 C 0.5993(3) 0.2153(6) 0.0101(5)
H8 H 0.5663 0.2505 -0.0202
C19 C 0.6402(3) 0.2473(6) -0.0095(4)
H9 H 0.6338 0.3054 -0.0531
C20 C 0.6966(3) 0.1157(6) 0.0945(4)
H10 H 0.7299 0.0816 0.1240
C21 C 0.6581(3) 0.0785(6) 0.1176(5)
H11 H 0.6653 0.0197 0.1610
N1 N 0.3288(2) 0.1761(5) 0.0309(3)
N2 N 0.5166(2) 0.1469(5) 0.0619(4)
N3 N 0.5173(2) -0.0104(6) 0.1500(4)
N4 N 0.5655(2) -0.0025(5) 0.1479(4)
N5 N 0.6885(2) 0.1989(5) 0.0312(4)
N6 N 0.3498(2) 0.4683(5) 0.2215(3)
N7 N 0.2893(2) 0.3383(5) 0.1254(3)
O1 O 0.26515(17) 0.6113(4) 0.4304(3)
O2 O 0.26028(17) 0.4316(4) 0.4864(3)
O3 O 0.19343(17) 0.2430(4) 0.3687(3)
O4 O 0.1419(2) 0.3323(5) 0.2413(4)
H15 H 0.5857 -0.0700 0.1757
H16 H 0.3772 0.5124 0.2407
Ni1C Ni 0.2500 0.7500 0.5000
Ni1C_2 Ni 0.2500 -0.2500 -0.5000
Ni2A Ni 0.2500 0.2500 0.5000
Ni2_2 Ni -0.2500 0.2500 0.0000
Ni2A_2 Ni 0.2500 0.2500 -0.5000
C1F C 0.2353(2) 0.0017(6) -0.4283(4)
C2F C 0.2295(2) 0.0584(6) -0.3500(4)
C3F C 0.2663(3) 0.1435(6) -0.2923(4)
C4F C 0.3134(3) 0.1917(6) -0.3030(5)
C5F C 0.1887(3) 0.0155(6) -0.3328(4)
H1F H 0.1649 -0.0410 -0.3700
C6F C 0.1846(2) 0.0605(6) -0.2573(4)
C7F C 0.2214(3) 0.1424(6) -0.1987(4)
C8F C 0.2618(3) 0.1859(6) -0.2172(4)
H2F H 0.2854 0.2425 -0.1799
C9F C 0.1682(3) 0.0937(6) -0.1434(4)
H3F H 0.1522 0.0893 -0.1053
C10F C 0.1457(3) 0.4106(6) -0.0909(4)
H4F H 0.1640 0.4498 -0.1176
C11F C 0.0942(3) 0.4454(6) -0.1157(4)
H5F H 0.0790 0.5059 -0.1578
C12F C 0.0654(3) 0.3892(6) -0.0771(4)
C13F C 0.0907(3) 0.2995(7) -0.0161(5)
H6F H 0.0731 0.2581 0.0109
C14F C 0.1424(3) 0.2713(6) 0.0049(4)
H7F H 0.1584 0.2113 0.0471
C15F C 0.0104(3) 0.4195(6) -0.0984(5)
C16F C -0.0635(3) 0.4072(7) -0.0951(5)
C17F C -0.1084(3) 0.3706(6) -0.0759(4)
C18F C -0.0993(3) 0.2847(6) -0.0101(5)
H8F H -0.0663 0.2495 0.0202
C19F C -0.1402(3) 0.2527(6) 0.0095(4)
H9F H -0.1338 0.1946 0.0531
C20F C -0.1966(3) 0.3843(6) -0.0945(4)
H10F H -0.2299 0.4184 -0.1240
C21F C -0.1581(3) 0.4215(6) -0.1176(5)
H11F H -0.1653 0.4803 -0.1610
N1F N 0.1712(2) 0.3239(5) -0.0309(3)
N2F N -0.0166(2) 0.3531(5) -0.0619(4)
N3F N -0.0173(2) 0.5104(6) -0.1500(4)
N4F N -0.0655(2) 0.5025(5) -0.1479(4)
N5F N -0.1885(2) 0.3011(5) -0.0312(4)
N5F_2 N 0.8115(2) 0.3011(5) -0.0312(4)
N6F N 0.1502(2) 0.0317(5) -0.2215(3)
N7F N 0.2107(2) 0.1617(5) -0.1254(3)
O1F O 0.23485(17) -0.1113(4) -0.4304(3)
O1C O 0.23485(17) 0.1113(4) 0.0696(3)
O1E O 0.26515(17) 0.3887(4) -0.0696(3)
O2F O 0.23972(17) 0.0684(4) -0.4864(3)
O2A O 0.73972(17) 0.4316(4) 0.0136(3)
O2G O 0.76028(17) 0.0684(4) -0.0136(3)
O3F O 0.30657(17) 0.2570(4) -0.3687(3)
O3A O 0.80657(17) 0.2430(4) 0.1313(3)
O3G O 0.69343(17) 0.2570(4) -0.1313(3)
O4F O 0.3581(2) 0.1677(5) -0.2413(4)
H15F H -0.0857 0.5700 -0.1757
H16F H 0.1228 -0.0124 -0.2407
O5 O 0.4267(3) 0.6480(6) 0.2843(6)
H13 H 0.4174 0.6363 0.2301
H14 H 0.4132 0.7195 0.2843
O6 O 0.5000 0.7702(17) 0.2500
H12 H 0.5111 0.7290 0.3011
H12A H 0.4889 0.7290 0.1989
O7 O 0.5135(8) 0.607(2) 0.0328(16)
O8? O 0.9846(16) 0.876(3) 0.2256(14)
O9? O 0.514(8) 0.489(19) 0.101(12)
loop_
_geom_bond_atom_site_label_1
_geom_bond_atom_site_label_2
_geom_bond_site_symmetry_1
_geom_bond_site_symmetry_2
Ni1 N1 1_555 1_555
Ni2 N5 1_555 1_555
C1 C2 1_555 1_555
C2 C3 1_555 1_555
C3 C4 1_555 1_555
C4 O3 1_555 1_555
C5 C2 1_555 1_555
H1 C5 1_555 1_555
C6 C5 1_555 1_555
C7 C6 1_555 1_555
C8 C3 1_555 1_555
H2 C8 1_555 1_555
C9 H3 1_555 1_555
C10 H4 1_555 1_555
C11 C10 1_555 1_555
H5 C11 1_555 1_555
C12 C11 1_555 1_555
C13 C12 1_555 1_555
H6 C13 1_555 1_555
C14 C13 1_555 1_555
H7 C14 1_555 1_555
C15 C12 1_555 1_555
C16 C17 1_555 1_555
C17 C18 1_555 1_555
C18 H8 1_555 1_555
C19 C18 1_555 1_555
H9 C19 1_555 1_555
C20 H10 1_555 1_555
C21 C17 1_555 1_555
H11 C21 1_555 1_555
N1 C10 1_555 1_555
N2 C15 1_555 1_555
N3 C15 1_555 1_555
N4 C16 1_555 1_555
N5 C19 1_555 1_555
N6 C6 1_555 1_555
N7 Ni1 1_555 1_555
O1 C1 1_555 1_555
O2 C1 1_555 1_555
O3 Ni2A 1_555 1_555
O4 C4 1_555 1_555
O5 H13 1_555 1_555
O6 H12 1_555 1_555
H14 O5 1_555 1_555
H15 N4 1_555 1_555
H16 N6 1_555 1_555
Ni1C O1 1_555 1_555
Ni1C_2 O1F 1_555 1_555
Ni2A O2 1_555 1_555
Ni2_2 N5F 1_555 1_555
Ni2A_2 O2F 1_555 1_555
C1F C2F 1_555 1_555
C2F C3F 1_555 1_555
C3F C4F 1_555 1_555
C4F O3F 1_555 1_555
C5F C2F 1_555 1_555
H1F C5F 1_555 1_555
C6F C5F 1_555 1_555
C7F C6F 1_555 1_555
C8F C3F 1_555 1_555
H2F C8F 1_555 1_555
C9F H3F 1_555 1_555
C10F H4F 1_555 1_555
C11F C10F 1_555 1_555
H5F C11F 1_555 1_555
C12F C11F 1_555 1_555
C13F C12F 1_555 1_555
H6F C13F 1_555 1_555
C14F C13F 1_555 1_555
H7F C14F 1_555 1_555
C15F C12F 1_555 1_555
C16F C17F 1_555 1_555
C17F C18F 1_555 1_555
C18F H8F 1_555 1_555
C19F C18F 1_555 1_555
H9F C19F 1_555 1_555
C20F H10F 1_555 1_555
C21F C17F 1_555 1_555
H11F C21F 1_555 1_555
N1F Ni1 1_555 1_555
N2F C15F 1_555 1_555
N3F C15F 1_555 1_555
N4F C16F 1_555 1_555
N5F C19F 1_555 1_555
N5F_2 Ni2 1_555 1_555
N6F C6F 1_555 1_555
N7F Ni1 1_555 1_555
O1F C1F 1_555 1_555
O1C Ni1 1_555 1_555
O1E Ni1 1_555 1_555
O2F C1F 1_555 1_555
O2A Ni2 1_555 1_555
O2G Ni2 1_555 1_555
O3F Ni2A_2 1_555 1_555
O3A Ni2 1_555 1_555
O3G Ni2 1_555 1_555
O4F C4F 1_555 1_555
H12A O6 1_555 1_555
H15F N4F 1_555 1_555
H16F N6F 1_555 1_555
C7 C8 1_555 1_555
C7 N7 1_555 1_555
C9 N6 1_555 1_555
C9 N7 1_555 1_555
C14 N1 1_555 1_555
C16 N2 1_555 1_555
C20 C21 1_555 1_555
C20 N5 1_555 1_555
N3 N4 1_555 1_555
C7F C8F 1_555 1_555
C7F N7F 1_555 1_555
C9F N6F 1_555 1_555
C9F N7F 1_555 1_555
C10F N1F 1_555 1_555
C14F N1F 1_555 1_555
C16F N2F 1_555 1_555
C20F C21F 1_555 1_555
C20F N5F 1_555 1_555
N3F N4F 1_555 1_555

#END
