
#######################################################################
#
#                 Cambridge Crystallographic Data Centre
#                                CCDC 
#
#######################################################################
#
# If this CIF has been generated from an entry in the Cambridge 
# Structural Database, then it will include bibliographic, chemical, 
# crystal, experimental, refinement or atomic coordinate data resulting 
# from the CCDC's data processing and validation procedures.
#
#######################################################################

data_GAYGIY
_symmetry_cell_setting           monoclinic
_symmetry_space_group_name_H-M   'P 21/n'
_symmetry_Int_Tables_number      14
_space_group_name_Hall           '-P 2yn'
loop_
_symmetry_equiv_pos_site_id
_symmetry_equiv_pos_as_xyz
1 x,y,z
2 1/2-x,1/2+y,1/2-z
3 -x,-y,-z
4 1/2+x,1/2-y,1/2+z
_cell_length_a                   8.23847(36)
_cell_length_b                   13.31208(65)
_cell_length_c                   8.05241(51)
_cell_angle_alpha                90
_cell_angle_beta                 112.3327(26)
_cell_angle_gamma                90
_cell_volume                     816.877
loop_
_atom_site_label
_atom_site_type_symbol
_atom_site_fract_x
_atom_site_fract_y
_atom_site_fract_z
Cu1 Cu 0.00000 0.00000 0.00000
C1 C 0.332140 0.161100 -0.167620
C2 C 0.178530 0.112770 -0.195550
H1 H 0.075690 0.115200 -0.302090
N1 N 0.198020 0.060340 -0.044190
N2 N 0.363660 0.076270 0.077280
H2 H 0.412830 0.048740 0.194790
C3 C 0.446550 0.138540 0.001000
H3 H 0.563790 0.162140 0.055870
C4 C 0.368900 0.227600 -0.299620
C5 C 0.348680 0.202230 -0.469960
H4 H 0.308790 0.139280 -0.526240
N3 N 0.395600 0.282810 -0.545590
H5 H 0.394230 0.286020 -0.663970
N4 N 0.444810 0.357980 -0.421980
C6 C 0.428320 0.323860 -0.269970
H6 H 0.453820 0.360780 -0.162020
Cu1C Cu 0.50000 0.50000 -0.50000
Cu1C_2 Cu -0.50000 -0.50000 0.50000
C1B C -0.332140 -0.161100 0.167620
C2B C -0.178530 -0.112770 0.195550
H1B H -0.075690 -0.115200 0.302090
N1B N -0.198020 -0.060340 0.044190
N2B N -0.363660 -0.076270 -0.077280
H2B H -0.412830 -0.048740 -0.194790
C3B C -0.446550 -0.138540 -0.001000
H3B H -0.563790 -0.162140 -0.055870
C4B C -0.368900 -0.227600 0.299620
C5B C -0.348680 -0.202230 0.469960
H4B H -0.308790 -0.139280 0.526240
N3B N -0.395600 -0.282810 0.545590
H5B H -0.394230 -0.286020 0.663970
N4B N -0.444810 -0.357980 0.421980
N4C N -0.055190 0.142020 0.078020
N4A N 0.055190 -0.142020 -0.078020
C6B C -0.428320 -0.323860 0.269970
H6B H -0.453820 -0.360780 0.162020
N5 N -0.268779 0.077390 0.559649
O1 O -0.372806 0.041401 0.414970
O2 O -0.219720 0.166672 0.566214
O3 O -0.213812 0.024098 0.697764
loop_
_geom_bond_atom_site_label_1
_geom_bond_atom_site_label_2
_geom_bond_site_symmetry_1
_geom_bond_site_symmetry_2
Cu1 N1 1_555 1_555
C1 C2 1_555 1_555
C2 H1 1_555 1_555
N1 C2 1_555 1_555
N2 N1 1_555 1_555
H2 N2 1_555 1_555
C3 C1 1_555 1_555
H3 C3 1_555 1_555
C4 C1 1_555 1_555
C5 C4 1_555 1_555
H4 C5 1_555 1_555
N3 C5 1_555 1_555
H5 N3 1_555 1_555
N4 N3 1_555 1_555
C6 C4 1_555 1_555
H6 C6 1_555 1_555
N5 O1 1_555 1_555
O2 N5 1_555 1_555
O3 N5 1_555 1_555
Cu1C N4 1_555 1_555
Cu1C_2 N4B 1_555 1_555
C1B C2B 1_555 1_555
C2B H1B 1_555 1_555
N1B Cu1 1_555 1_555
N2B N1B 1_555 1_555
H2B N2B 1_555 1_555
C3B C1B 1_555 1_555
H3B C3B 1_555 1_555
C4B C1B 1_555 1_555
C5B C4B 1_555 1_555
H4B C5B 1_555 1_555
N3B C5B 1_555 1_555
H5B N3B 1_555 1_555
N4B N3B 1_555 1_555
N4C Cu1 1_555 1_555
N4A Cu1 1_555 1_555
C6B C4B 1_555 1_555
H6B C6B 1_555 1_555
N2 C3 1_555 1_555
N4 C6 1_555 1_555
C2B N1B 1_555 1_555
N2B C3B 1_555 1_555
N4B C6B 1_555 1_555

#END
