
#######################################################################
#
#                 Cambridge Crystallographic Data Centre
#                                CCDC 
#
#######################################################################
#
# If this CIF has been generated from an entry in the Cambridge 
# Structural Database, then it will include bibliographic, chemical, 
# crystal, experimental, refinement or atomic coordinate data resulting 
# from the CCDC's data processing and validation procedures.
#
#######################################################################

data_GEDLIM
_symmetry_cell_setting           tetragonal
_symmetry_space_group_name_H-M   'P 4 n c'
_symmetry_Int_Tables_number      104
_space_group_name_Hall           'P 4 -2n'
loop_
_symmetry_equiv_pos_site_id
_symmetry_equiv_pos_as_xyz
1 x,y,z
2 1/2-x,1/2+y,1/2+z
3 -x,-y,z
4 1/2+x,1/2-y,1/2+z
5 1/2-y,1/2-x,1/2+z
6 y,-x,z
7 -y,x,z
8 1/2+y,1/2+x,1/2+z
_cell_length_a                   14.5956(16)
_cell_length_b                   14.5956(16)
_cell_length_c                   12.8842(14)
_cell_angle_alpha                90
_cell_angle_beta                 90
_cell_angle_gamma                90
_cell_volume                     2744.74
loop_
_atom_site_label
_atom_site_type_symbol
_atom_site_fract_x
_atom_site_fract_y
_atom_site_fract_z
C1 C 0.6647(3) 0.9198(3) 0.0555(4)
C2 C 0.7266(3) 0.8711(3) 0.1301(3)
C3 C 0.7977(4) 0.8158(4) 0.0934(4)
H1 H 0.8083 0.8114 0.0216
C4 C 0.8535(4) 0.7667(4) 0.1624(4)
H2 H 0.9015 0.7297 0.1380
C5 C 0.8358(3) 0.7744(4) 0.2677(4)
C6 C 0.7663(4) 0.8272(4) 0.3050(4)
H3 H 0.7563 0.8312 0.3769
C7 C 0.7109(4) 0.8746(4) 0.2375(4)
H4 H 0.6620 0.9096 0.2635
C8 C 0.9393(5) 0.7583(4) 0.4212(5)
H5 H 0.9422 0.8212 0.4364
C9 C 0.9053(3) 0.6305(3) 0.3447(4)
C10 C 0.8654(4) 0.5630(4) 0.2734(4)
H6 H 0.9043 0.5570 0.2127
H7 H 0.8049 0.5832 0.2522
H8 H 0.8606 0.5042 0.3081
N1 N 0.9802(3) 0.6952(3) 0.4760(3)
N2 N 0.9583(3) 0.6138(3) 0.4260(3)
N3 N 0.8917(3) 0.7225(3) 0.3395(3)
O1 O 0.5957(2) 0.9599(3) 0.0973(3)
O2 O 0.6819(3) 0.9200(3) -0.0392(3)
Zn1 Zn 0.5000 1.0000 0.0000(2)
C1B C 0.3353(3) 1.0802(3) 0.0555(4)
C2B C 0.2734(3) 1.1289(3) 0.1301(3)
C3B C 0.2023(4) 1.1842(4) 0.0934(4)
H1B H 0.1917 1.1886 0.0216
C4B C 0.1465(4) 1.2333(4) 0.1624(4)
H2B H 0.0985 1.2703 0.1380
C5B C 0.1642(3) 1.2256(4) 0.2677(4)
C6B C 0.2337(4) 1.1728(4) 0.3050(4)
H3B H 0.2437 1.1688 0.3769
C7B C 0.2891(4) 1.1254(4) 0.2375(4)
H4B H 0.3380 1.0904 0.2635
C8B C 0.0607(5) 1.2417(4) 0.4212(5)
H5B H 0.0578 1.1788 0.4364
C9B C 0.0947(3) 1.3695(3) 0.3447(4)
C10B C 0.1346(4) 1.4370(4) 0.2734(4)
H6B H 0.0957 1.4430 0.2127
H7B H 0.1951 1.4168 0.2522
H8B H 0.1394 1.4958 0.3081
N1B N 0.0198(3) 1.3048(3) 0.4760(3)
N2B N 0.0417(3) 1.3862(3) 0.4260(3)
N2A N 0.5417(3) 1.1138(3) -0.0740(3)
N2C N 0.4583(3) 0.8862(3) -0.0740(3)
N3B N 0.1083(3) 1.2775(3) 0.3395(3)
O1B O 0.4043(2) 1.0401(3) 0.0973(3)
O2B O 0.3181(3) 1.0800(3) -0.0392(3)
Zn1A Zn 0.0000 1.5000 0.5000(2)
Zn1A_2 Zn 1.0000 0.5000 0.5000(2)
O3 O 1.0000 1.0000 0.270(3)
O4 O 0.8368(8) 0.8925(12) 0.8326(10)
O5 O 0.8262(8) 0.9172(10) 0.6106(9)
loop_
_geom_bond_atom_site_label_1
_geom_bond_atom_site_label_2
_geom_bond_site_symmetry_1
_geom_bond_site_symmetry_2
C1 C2 1_555 1_555
C2 C3 1_555 1_555
C3 H1 1_555 1_555
C4 C3 1_555 1_555
H2 C4 1_555 1_555
C5 C4 1_555 1_555
C6 C5 1_555 1_555
H3 C6 1_555 1_555
C7 C2 1_555 1_555
H4 C7 1_555 1_555
C8 H5 1_555 1_555
C9 C10 1_555 1_555
C10 H6 1_555 1_555
H7 C10 1_555 1_555
H8 C10 1_555 1_555
N1 C8 1_555 1_555
N2 C9 1_555 1_555
N3 C5 1_555 1_555
O1 C1 1_555 1_555
O2 C1 1_555 1_555
Zn1 O1 1_555 1_555
C1B C2B 1_555 1_555
C2B C3B 1_555 1_555
C3B H1B 1_555 1_555
C4B C3B 1_555 1_555
H2B C4B 1_555 1_555
C5B C4B 1_555 1_555
C6B C5B 1_555 1_555
H3B C6B 1_555 1_555
C7B C2B 1_555 1_555
H4B C7B 1_555 1_555
C8B H5B 1_555 1_555
C9B C10B 1_555 1_555
C10B H6B 1_555 1_555
H7B C10B 1_555 1_555
H8B C10B 1_555 1_555
N1B C8B 1_555 1_555
N2B C9B 1_555 1_555
N2A Zn1 1_555 1_555
N2C Zn1 1_555 1_555
N3B C5B 1_555 1_555
O1B Zn1 1_555 1_555
O2B C1B 1_555 1_555
Zn1A N2B 1_555 1_555
Zn1A_2 N2 1_555 1_555
C6 C7 1_555 1_555
C8 N3 1_555 1_555
C9 N3 1_555 1_555
N1 N2 1_555 1_555
C1B O1B 1_555 1_555
C6B C7B 1_555 1_555
C8B N3B 1_555 1_555
C9B N3B 1_555 1_555
N1B N2B 1_555 1_555

#END
