
#######################################################################
#
#                 Cambridge Crystallographic Data Centre
#                                CCDC 
#
#######################################################################
#
# If this CIF has been generated from an entry in the Cambridge 
# Structural Database, then it will include bibliographic, chemical, 
# crystal, experimental, refinement or atomic coordinate data resulting 
# from the CCDC's data processing and validation procedures.
#
#######################################################################

data_GEGGEG
_symmetry_cell_setting           monoclinic
_symmetry_space_group_name_H-M   'P 21/c'
_symmetry_Int_Tables_number      14
_space_group_name_Hall           '-P 2ybc'
loop_
_symmetry_equiv_pos_site_id
_symmetry_equiv_pos_as_xyz
1 x,y,z
2 -x,1/2+y,1/2-z
3 -x,-y,-z
4 x,1/2-y,1/2+z
_cell_length_a                   13.5820(4)
_cell_length_b                   10.8173(3)
_cell_length_c                   14.7037(5)
_cell_angle_alpha                90
_cell_angle_beta                 110.6280(10)
_cell_angle_gamma                90
_cell_volume                     2021.78
loop_
_atom_site_label
_atom_site_type_symbol
_atom_site_fract_x
_atom_site_fract_y
_atom_site_fract_z
Co1 Co 0.40940(2) 0.90253(3) 0.461140(19)
Co2 Co 0.50410(2) 1.01046(3) 0.292355(19)
O1 O 0.30171(12) 1.03085(15) 0.37152(12)
O2 O 0.38874(12) 1.13627(15) 0.29233(12)
O3 O 0.38456(13) 1.40413(16) 0.23922(13)
O4 O 0.31145(14) 1.28400(18) 0.10949(13)
O5 O -0.37868(12) 1.14708(16) 0.34202(12)
O6 O -0.28445(12) 1.15314(16) 0.50137(11)
O7 O -0.36646(12) 1.27736(14) 0.15499(11)
O8 O -0.37028(12) 1.39592(14) 0.27892(11)
O9 O 0.53889(11) 0.95814(14) 0.43247(10)
C1 C 0.31118(16) 1.11738(19) 0.31930(15)
C2 C 0.22311(16) 1.2097(2) 0.28512(15)
C3 C 0.13869(16) 1.1958(2) 0.31750(17)
H1 H 0.1389 1.1300 0.3583
C4 C 0.05413(16) 1.2776(2) 0.29055(16)
C5 C 0.05643(18) 1.3757(2) 0.22957(19)
H2 H 0.0011 1.4319 0.2104
C6 C 0.14015(18) 1.3907(2) 0.19700(19)
H3 H 0.1399 1.4568 0.1565
C7 C 0.22447(16) 1.3081(2) 0.22409(16)
C8 C 0.31475(17) 1.3317(2) 0.18780(17)
C9 C -0.03451(16) 1.2588(2) 0.32627(16)
C10 C -0.01760(16) 1.2031(2) 0.41638(16)
H4 H 0.0504 1.1822 0.4560
C11 C -0.10107(16) 1.1786(2) 0.44736(16)
H5 H -0.0885 1.1416 0.5075
C12 C -0.20313(16) 1.20913(19) 0.38917(15)
C13 C -0.22052(15) 1.27064(19) 0.30129(15)
C14 C -0.13720(16) 1.2937(2) 0.26956(16)
H6 H -0.1497 1.3327 0.2101
C15 C -0.29640(16) 1.16666(19) 0.41330(15)
C16 C -0.32852(15) 1.31688(19) 0.24070(15)
O10 O 0.48142(14) 1.09737(19) 0.15189(13)
O11 O 0.49685(15) 0.73334(19) 0.54137(13)
Co1B Co -0.40940(2) 1.09747(3) 0.538860(19)
Co1A Co -0.40940(2) 1.40253(3) 0.038860(19)
Co1B_2 Co 0.59060(2) 1.09747(3) 0.538860(19)
Co2A Co 0.49590(2) 1.51046(3) 0.207645(19)
Co2_2 Co -0.49590(2) 1.01046(3) 0.292355(19)
Co2A_2 Co -0.50410(2) 1.51046(3) 0.207645(19)
O3A O 0.61544(13) 0.90413(16) 0.26078(13)
O5_2 O 0.62132(12) 1.14708(16) 0.34202(12)
O6B O 0.28445(12) 0.84686(16) 0.49863(11)
O7A O 0.36646(12) 0.77736(14) 0.34501(11)
O8A O 0.37028(12) 0.89592(14) 0.22108(11)
O9B O 0.46111(11) 1.04186(14) 0.56753(10)
N1 N 0.2514(2) 0.0384(3) 0.0550(2)
H7 H 0.2890 -0.0083 0.1061
H8 H 0.2713 0.1175 0.0692
C17 C 0.1403(3) 0.0272(4) 0.0417(4)
H9 H 0.1294 0.0534 0.0998
H10 H 0.1187 -0.0574 0.0282
H11 H 0.0996 0.0782 -0.0118
C18 C 0.2768(4) -0.0001(4) -0.0319(3)
H12 H 0.3509 0.0091 -0.0183
H13 H 0.2386 0.0508 -0.0864
H14 H 0.2572 -0.0851 -0.0469
loop_
_geom_bond_atom_site_label_1
_geom_bond_atom_site_label_2
_geom_bond_site_symmetry_1
_geom_bond_site_symmetry_2
Co1 O1 1_555 1_555
Co2 O2 1_555 1_555
O1 C1 1_555 1_555
O2 C1 1_555 1_555
O3 C8 1_555 1_555
O4 C8 1_555 1_555
O5 C15 1_555 1_555
O6 C15 1_555 1_555
O7 C16 1_555 1_555
O8 C16 1_555 1_555
O9 Co1 1_555 1_555
C1 C2 1_555 1_555
C2 C3 1_555 1_555
C3 H1 1_555 1_555
C4 C3 1_555 1_555
C5 C4 1_555 1_555
H2 C5 1_555 1_555
C6 C5 1_555 1_555
H3 C6 1_555 1_555
C7 C2 1_555 1_555
C8 C7 1_555 1_555
C9 C4 1_555 1_555
C10 C9 1_555 1_555
H4 C10 1_555 1_555
C11 C10 1_555 1_555
H5 C11 1_555 1_555
C12 C11 1_555 1_555
C13 C12 1_555 1_555
C14 C9 1_555 1_555
H6 C14 1_555 1_555
C15 C12 1_555 1_555
C16 C13 1_555 1_555
O10 Co2 1_555 1_555
O11 Co1 1_555 1_555
N1 H7 1_555 1_555
H8 N1 1_555 1_555
C17 N1 1_555 1_555
H9 C17 1_555 1_555
H10 C17 1_555 1_555
H11 C17 1_555 1_555
C18 N1 1_555 1_555
H12 C18 1_555 1_555
H13 C18 1_555 1_555
H14 C18 1_555 1_555
Co1B O6 1_555 1_555
Co1A O7 1_555 1_555
Co1B_2 O9 1_555 1_555
Co2A O3 1_555 1_555
Co2_2 O5 1_555 1_555
Co2A_2 O8 1_555 1_555
O3A Co2 1_555 1_555
O5_2 Co2 1_555 1_555
O6B Co1 1_555 1_555
O7A Co1 1_555 1_555
O8A Co2 1_555 1_555
O9B Co1 1_555 1_555
Co2 O9 1_555 1_555
C6 C7 1_555 1_555
C13 C14 1_555 1_555
Co1B_2 O9B 1_555 1_555

#END
