
#######################################################################
#
#                 Cambridge Crystallographic Data Centre
#                                CCDC 
#
#######################################################################
#
# If this CIF has been generated from an entry in the Cambridge 
# Structural Database, then it will include bibliographic, chemical, 
# crystal, experimental, refinement or atomic coordinate data resulting 
# from the CCDC's data processing and validation procedures.
#
#######################################################################

data_GEGSIW
_symmetry_cell_setting           orthorhombic
_symmetry_space_group_name_H-M   'C m c a'
_symmetry_Int_Tables_number      64
_space_group_name_Hall           '-C 2ac 2'
loop_
_symmetry_equiv_pos_site_id
_symmetry_equiv_pos_as_xyz
1 x,y,z
2 -x,1/2-y,1/2+z
3 -x,1/2+y,1/2-z
4 x,-y,-z
5 1/2+x,1/2+y,z
6 1/2-x,-y,1/2+z
7 1/2-x,y,1/2-z
8 1/2+x,1/2-y,-z
9 -x,-y,-z
10 x,1/2+y,1/2-z
11 x,1/2-y,1/2+z
12 -x,y,z
13 1/2-x,1/2-y,-z
14 1/2+x,y,1/2-z
15 1/2+x,-y,1/2+z
16 1/2-x,1/2+y,z
_cell_length_a                   19.346(2)
_cell_length_b                   24.081(3)
_cell_length_c                   14.2543(15)
_cell_angle_alpha                90
_cell_angle_beta                 90
_cell_angle_gamma                90
_cell_volume                     6640.67
loop_
_atom_site_label
_atom_site_type_symbol
_atom_site_fract_x
_atom_site_fract_y
_atom_site_fract_z
C1 C 0.25502(13) -0.15241(11) 0.07310(18)
C2 C 0.2500 -0.15065(15) 0.2500
H1 H 0.2500 -0.1893 0.2500
C3 C 0.25378(14) -0.06417(12) 0.16558(19)
H2 H 0.2566 -0.0447 0.1094
C4 C 0.25334(13) -0.12199(11) 0.16548(17)
C5 C 0.2500 -0.03595(16) 0.2500
C6 C 0.37077(13) -0.22683(11) -0.18837(19)
C7 C 0.5000 -0.23224(18) -0.1842(3)
H3 H 0.5000 -0.2105 -0.1302
C8 C 0.24926(18) 0.05868(13) 0.1756(2)
H4 H 0.2491 0.0470 0.1134
C9 C 0.5000 -0.30469(18) -0.3350(3)
C10 C 0.43787(13) -0.24884(12) -0.2254(2)
C11 C 0.43796(14) -0.28494(13) -0.2996(2)
H5 H 0.3964 -0.2962 -0.3262
C12 C 0.5535(3) -0.3702(3) -0.4461(6)
Ca1 Ca 0.23962(3) -0.20080(2) -0.11082(4)
N1 N 0.24873(14) 0.11023(10) 0.20176(18)
N2 N 0.5000 -0.34582(17) -0.4069(3)
N3 N 0.5336(2) -0.4104(2) -0.5037(4)
N4 N 0.2500 0.02405(14) 0.2500
O1 O 0.32141(9) -0.22139(8) -0.24543(10)
O2 O 0.36553(10) -0.21477(10) -0.10247(13)
O3 O 0.25148(12) -0.12498(9) -0.00021(15)
O4 O 0.26051(10) -0.20456(7) 0.07366(15)
O5 O 0.12527(12) -0.20546(10) -0.04066(17)
C1F C 0.24498(13) -0.15241(11) 0.42690(18)
C3F C 0.24622(14) -0.06417(12) 0.33442(19)
H2F H 0.2434 -0.0447 0.3906
C4F C 0.24666(13) -0.12199(11) 0.33452(17)
C6K C 0.62923(13) -0.22683(11) -0.18837(19)
C8F C 0.25074(18) 0.05868(13) 0.3244(2)
H4F H 0.2509 0.0470 0.3866
C10K C 0.56213(13) -0.24884(12) -0.2254(2)
C11K C 0.56204(14) -0.28494(13) -0.2996(2)
H5K H 0.6036 -0.2962 -0.3262
C12K C 0.4465(3) -0.3702(3) -0.4461(6)
Ca1F Ca 0.26038(3) -0.20080(2) 0.61082(4)
Ca1C Ca 0.23962(3) 0.20080(2) 0.11082(4)
Ca1F_2 Ca 0.26038(3) -0.20080(2) -0.38918(4)
Ca1L Ca 0.26038(3) -0.29920(2) 0.11082(4)
Ca1J Ca 0.23962(3) -0.29920(2) 0.38918(4)
Ca1E Ca 0.26038(3) 0.20080(2) 0.38918(4)
Ca1K Ca 0.76038(3) -0.20080(2) -0.11082(4)
Ca1M Ca 0.73962(3) -0.20080(2) -0.38918(4)
N1F N 0.25127(14) 0.11023(10) 0.29824(18)
N1C N 0.24873(14) -0.11023(10) -0.20176(18)
N1E N 0.25127(14) -0.11023(10) 0.70176(18)
N3K N 0.4664(2) -0.4104(2) -0.5037(4)
O1K O 0.67859(9) -0.22139(8) -0.24543(10)
O1F O 0.17859(9) -0.22139(8) -0.25457(10)
O1F_2 O 0.17859(9) -0.22139(8) 0.74543(10)
O1_2 O 0.32141(9) -0.22139(8) 0.75457(10)
O2K O 0.63447(10) -0.21477(10) -0.10247(13)
O2F O 0.13447(10) -0.21477(10) 0.60247(13)
O3F O 0.24852(12) -0.12498(9) 0.50021(15)
O4F O 0.23949(10) -0.20456(7) 0.42634(15)
O4L O 0.23949(10) -0.29544(7) -0.07366(15)
O4J O 0.26051(10) -0.29544(7) 0.57366(15)
O5F O 0.37473(12) -0.20546(10) 0.54066(17)
loop_
_geom_bond_atom_site_label_1
_geom_bond_atom_site_label_2
_geom_bond_site_symmetry_1
_geom_bond_site_symmetry_2
C1 C4 1_555 1_555
C2 H1 1_555 1_555
C3 H2 1_555 1_555
C4 C2 1_555 1_555
C5 C3 1_555 1_555
C6 C10 1_555 1_555
C7 H3 1_555 1_555
C8 H4 1_555 1_555
C9 C11 1_555 1_555
C10 C7 1_555 1_555
C11 C10 1_555 1_555
H5 C11 1_555 1_555
C12 N2 1_555 1_555
Ca1 O1 1_555 1_555
N1 C8 1_555 1_555
N2 C9 1_555 1_555
N3 C12 1_555 1_555
N4 C5 1_555 1_555
O1 C6 1_555 1_555
O2 C6 1_555 1_555
O3 C1 1_555 1_555
O4 C1 1_555 1_555
O5 Ca1 1_555 1_555
C1F C4F 1_555 1_555
C3F C5 1_555 1_555
H2F C3F 1_555 1_555
C4F C2 1_555 1_555
C6K C10K 1_555 1_555
C8F N4 1_555 1_555
H4F C8F 1_555 1_555
C10K C7 1_555 1_555
C11K C9 1_555 1_555
H5K C11K 1_555 1_555
C12K N2 1_555 1_555
Ca1F N1E 1_555 1_555
Ca1C N1 1_555 1_555
Ca1F_2 O1 1_555 1_555
Ca1L O4 1_555 1_555
Ca1J O4F 1_555 1_555
Ca1E N1F 1_555 1_555
Ca1K O1K 1_555 1_555
Ca1M O1K 1_555 1_555
N1F N1 1_555 1_555
N1C Ca1 1_555 1_555
N3K N3 1_555 1_555
O1K C6K 1_555 1_555
O1F Ca1 1_555 1_555
O1F_2 Ca1F 1_555 1_555
O1_2 Ca1F 1_555 1_555
O2K C6K 1_555 1_555
O2F Ca1F 1_555 1_555
O3F C1F 1_555 1_555
O4F C1F 1_555 1_555
O4L Ca1 1_555 1_555
O4J Ca1F 1_555 1_555
O5F Ca1F 1_555 1_555
C3 C4 1_555 1_555
C8 N4 1_555 1_555
Ca1 O2 1_555 1_555
Ca1 O3 1_555 1_555
Ca1 O4 1_555 1_555
C3F C4F 1_555 1_555
C8F N1F 1_555 1_555
C10K C11K 1_555 1_555
C12K N3K 1_555 1_555
Ca1F O3F 1_555 1_555
Ca1F O4F 1_555 1_555
Ca1F_2 O1F 1_555 1_555
Ca1L O4L 1_555 1_555
Ca1J O4J 1_555 1_555
Ca1K O2K 1_555 1_555

#END
