
#######################################################################
#
#                 Cambridge Crystallographic Data Centre
#                                CCDC 
#
#######################################################################
#
# If this CIF has been generated from an entry in the Cambridge 
# Structural Database, then it will include bibliographic, chemical, 
# crystal, experimental, refinement or atomic coordinate data resulting 
# from the CCDC's data processing and validation procedures.
#
#######################################################################

data_GETXAG
_symmetry_cell_setting           monoclinic
_symmetry_space_group_name_H-M   'P 21/c'
_symmetry_Int_Tables_number      14
_space_group_name_Hall           '-P 2ybc'
loop_
_symmetry_equiv_pos_site_id
_symmetry_equiv_pos_as_xyz
1 x,y,z
2 -x,1/2+y,1/2-z
3 -x,-y,-z
4 x,1/2-y,1/2+z
_cell_length_a                   6.7098(13)
_cell_length_b                   21.342(4)
_cell_length_c                   13.358(4)
_cell_angle_alpha                90
_cell_angle_beta                 106.86(3)
_cell_angle_gamma                90
_cell_volume                     1830.65
loop_
_atom_site_label
_atom_site_type_symbol
_atom_site_fract_x
_atom_site_fract_y
_atom_site_fract_z
Co1 Co 1.0000 0.5000 0.0000
Co2 Co 0.52880(4) 0.566927(12) 0.046824(19)
N1 N 0.6712(3) 0.65733(9) 0.01465(14)
H1 H 0.7666 0.6474 -0.0182
H2 H 0.5700 0.6789 -0.0315
C1 C 0.7692(4) 0.69971(10) 0.09738(18)
C2 C 0.6448(4) 0.73690(13) 0.1398(2)
H3 H 0.5006 0.7340 0.1145
C3 C 0.7351(4) 0.77826(13) 0.2197(2)
H4 H 0.6505 0.8024 0.2487
O1 O 0.4457(3) 0.60890(9) 0.17559(14)
O2 O 0.6629(2) 0.51211(6) -0.04999(10)
N2 N 0.9893(3) 0.53776(9) 0.14670(13)
N3 N 0.8112(3) 0.54929(9) 0.16572(14)
N4 N 0.8451(3) 0.56466(10) 0.26658(14)
N5 N 1.1449(3) 0.54450(10) 0.23506(14)
N6 N 1.2525(3) 0.89336(8) 0.44103(14)
N7 N 1.0637(3) 0.91297(8) 0.43324(14)
N8 N 0.9246(3) 0.87617(9) 0.36649(15)
N9 N 1.2429(3) 0.84249(9) 0.37989(16)
C4 C 1.0404(3) 0.83319(10) 0.33538(17)
N10 N 1.4745(4) 0.58206(12) 0.73983(16)
C5 C 1.0518(4) 0.56135(11) 0.30743(17)
C6 C 0.9837(4) 0.70333(12) 0.1375(2)
H5 H 1.0681 0.6774 0.1112
C7 C 0.9497(4) 0.78438(11) 0.25733(19)
C8 C 1.0730(4) 0.74557(12) 0.2168(2)
H6 H 1.2172 0.7479 0.2431
C9 C 1.1620(4) 0.57199(12) 0.41853(17)
C10 C 1.3707(4) 0.58171(12) 0.63262(18)
C11 C 1.3771(4) 0.57218(17) 0.4538(2)
H7 H 1.4536 0.5688 0.4060
C12 C 1.4800(4) 0.57744(18) 0.5598(2)
H8 H 1.6248 0.5781 0.5821
C13 C 1.1551(4) 0.58283(16) 0.59708(19)
H9 H 1.0788 0.5869 0.6448
C14 C 1.0524(4) 0.57796(16) 0.49161(19)
H10 H 0.9076 0.5787 0.4692
H11 H 0.562(6) 0.6050(18) 0.228(3)
H12 H 0.347(6) 0.5816(18) 0.198(3)
H13 H 1.412(5) 0.6067(15) 0.777(2)
H14 H 1.616(6) 0.5930(17) 0.758(3)
Co2B Co 0.47120(4) 0.433073(12) -0.046824(19)
N1B N 0.3288(3) 0.34267(9) -0.01465(14)
H1B H 0.2334 0.3526 0.0182
H2B H 0.4300 0.3211 0.0315
C1B C 0.2308(4) 0.30029(10) -0.09738(18)
C2B C 0.3552(4) 0.26310(13) -0.1398(2)
H3B H 0.4994 0.2660 -0.1145
C3B C 0.2649(4) 0.22174(13) -0.2197(2)
H4B H 0.3495 0.1976 -0.2487
O1B O 0.5543(3) 0.39110(9) -0.17559(14)
O2B O 0.3371(2) 0.48789(6) 0.04999(10)
N2B N 0.0107(3) 0.46224(9) -0.14670(13)
N3B N 0.1888(3) 0.45071(9) -0.16572(14)
N4B N 0.1549(3) 0.43534(10) -0.26658(14)
N5B N -0.1449(3) 0.45550(10) -0.23506(14)
N6B N -0.2525(3) 0.10664(8) -0.44103(14)
N7B N -0.0637(3) 0.08703(8) -0.43324(14)
N8B N 0.0754(3) 0.12383(9) -0.36649(15)
N9B N -0.2429(3) 0.15751(9) -0.37989(16)
C4B C -0.0404(3) 0.16681(10) -0.33538(17)
N10B N -0.4745(4) 0.41794(12) -0.73983(16)
C5B C -0.0518(4) 0.43865(11) -0.30743(17)
C6B C 0.0163(4) 0.29667(12) -0.1375(2)
H5B H -0.0681 0.3226 -0.1112
C7B C 0.0503(4) 0.21562(11) -0.25733(19)
C8B C -0.0730(4) 0.25443(12) -0.2168(2)
H6B H -0.2172 0.2521 -0.2431
C9B C -0.1620(4) 0.42801(12) -0.41853(17)
C10B C -0.3707(4) 0.41829(12) -0.63262(18)
C11B C -0.3771(4) 0.42782(17) -0.4538(2)
H7B H -0.4536 0.4312 -0.4060
C12B C -0.4800(4) 0.42256(18) -0.5598(2)
H8B H -0.6248 0.4219 -0.5821
C13B C -0.1551(4) 0.41717(16) -0.59708(19)
H9B H -0.0788 0.4131 -0.6448
C14B C -0.0524(4) 0.42204(16) -0.49161(19)
H10B H 0.0924 0.4213 -0.4692
H11B H 0.438(6) 0.3950(18) -0.228(3)
H12B H 0.653(6) 0.4184(18) -0.198(3)
H13B H -0.412(5) 0.3933(15) -0.777(2)
H14B H -0.616(6) 0.4070(17) -0.758(3)
Co1_2 Co 0.0000 0.5000 0.0000
Co1A Co 0.0000 0.0000 -0.5000
Co1A_2 Co 1.0000 1.0000 0.5000
Co2A Co -0.52880(4) 0.066927(12) -0.546824(19)
Co2C Co 1.52880(4) 0.933073(12) 0.546824(19)
O2B_2 O 1.3371(2) 0.48789(6) 0.04999(10)
N2B_2 N 1.0107(3) 0.46224(9) -0.14670(13)
N6A N 0.7475(3) 0.39336(8) 0.05897(14)
N6C N 0.2525(3) 0.60664(8) -0.05897(14)
N7A N 0.9363(3) 0.41297(8) 0.06676(14)
N7C N 1.0637(3) 0.58703(8) -0.06676(14)
loop_
_geom_bond_atom_site_label_1
_geom_bond_atom_site_label_2
_geom_bond_site_symmetry_1
_geom_bond_site_symmetry_2
Co1 O2 1_555 1_555
Co2 N1 1_555 1_555
N1 H1 1_555 1_555
H2 N1 1_555 1_555
C1 N1 1_555 1_555
C2 C1 1_555 1_555
H3 C2 1_555 1_555
C3 C2 1_555 1_555
H4 C3 1_555 1_555
O1 Co2 1_555 1_555
O2 Co2 1_555 1_555
N2 Co1 1_555 1_555
N3 Co2 1_555 1_555
N4 N3 1_555 1_555
N5 N2 1_555 1_555
N6 N7 1_555 1_555
N7 N8 1_555 1_555
N8 C4 1_555 1_555
N9 N6 1_555 1_555
C4 N9 1_555 1_555
N10 C10 1_555 1_555
C5 N4 1_555 1_555
C6 C1 1_555 1_555
H5 C6 1_555 1_555
C7 C3 1_555 1_555
C8 C6 1_555 1_555
H6 C8 1_555 1_555
C9 C5 1_555 1_555
C10 C12 1_555 1_555
C11 C9 1_555 1_555
H7 C11 1_555 1_555
C12 C11 1_555 1_555
H8 C12 1_555 1_555
C13 C10 1_555 1_555
H9 C13 1_555 1_555
C14 C9 1_555 1_555
H10 C14 1_555 1_555
H11 O1 1_555 1_555
H12 O1 1_555 1_555
H13 N10 1_555 1_555
H14 N10 1_555 1_555
Co2B O2 1_555 1_555
N1B Co2B 1_555 1_555
H1B N1B 1_555 1_555
H2B N1B 1_555 1_555
C1B N1B 1_555 1_555
C2B C1B 1_555 1_555
H3B C2B 1_555 1_555
C3B C2B 1_555 1_555
H4B C3B 1_555 1_555
O1B Co2B 1_555 1_555
O2B Co2 1_555 1_555
N2B N3B 1_555 1_555
N3B Co2B 1_555 1_555
N4B N3B 1_555 1_555
N5B N2B 1_555 1_555
N6B N7B 1_555 1_555
N7B N8B 1_555 1_555
N8B C4B 1_555 1_555
N9B N6B 1_555 1_555
C4B N9B 1_555 1_555
N10B C10B 1_555 1_555
C5B N4B 1_555 1_555
C6B C1B 1_555 1_555
H5B C6B 1_555 1_555
C7B C3B 1_555 1_555
C8B C6B 1_555 1_555
H6B C8B 1_555 1_555
C9B C5B 1_555 1_555
C10B C12B 1_555 1_555
C11B C9B 1_555 1_555
H7B C11B 1_555 1_555
C12B C11B 1_555 1_555
H8B C12B 1_555 1_555
C13B C10B 1_555 1_555
H9B C13B 1_555 1_555
C14B C9B 1_555 1_555
H10B C14B 1_555 1_555
H11B O1B 1_555 1_555
H12B O1B 1_555 1_555
H13B N10B 1_555 1_555
H14B N10B 1_555 1_555
Co1_2 O2B 1_555 1_555
Co1A N7B 1_555 1_555
Co1A_2 N7 1_555 1_555
Co2A N6B 1_555 1_555
Co2C N6 1_555 1_555
O2B_2 Co1 1_555 1_555
N2B_2 Co1 1_555 1_555
N6A Co2B 1_555 1_555
N6C Co2 1_555 1_555
N7A Co1 1_555 1_555
N7C Co1 1_555 1_555
N2 N3 1_555 1_555
N5 C5 1_555 1_555
C4 C7 1_555 1_555
C7 C8 1_555 1_555
C13 C14 1_555 1_555
Co2B O2B 1_555 1_555
N2B Co1_2 1_555 1_555
N5B C5B 1_555 1_555
C4B C7B 1_555 1_555
C7B C8B 1_555 1_555
C13B C14B 1_555 1_555
N6A N7A 1_555 1_555

#END
