
#######################################################################
#
#                 Cambridge Crystallographic Data Centre
#                                CCDC 
#
#######################################################################
#
# If this CIF has been generated from an entry in the Cambridge 
# Structural Database, then it will include bibliographic, chemical, 
# crystal, experimental, refinement or atomic coordinate data resulting 
# from the CCDC's data processing and validation procedures.
#
#######################################################################

data_GICNOX
_symmetry_cell_setting           monoclinic
_symmetry_space_group_name_H-M   'P 21/c'
_symmetry_Int_Tables_number      14
_space_group_name_Hall           '-P 2ybc'
loop_
_symmetry_equiv_pos_site_id
_symmetry_equiv_pos_as_xyz
1 x,y,z
2 -x,1/2+y,1/2-z
3 -x,-y,-z
4 x,1/2-y,1/2+z
_cell_length_a                   16.5826(3)
_cell_length_b                   28.3958(6)
_cell_length_c                   17.8352(3)
_cell_angle_alpha                90
_cell_angle_beta                 108.980(2)
_cell_angle_gamma                90
_cell_volume                     7941.58
loop_
_atom_site_label
_atom_site_type_symbol
_atom_site_fract_x
_atom_site_fract_y
_atom_site_fract_z
Zn1 Zn 0.74305(6) 0.59956(3) 0.23557(6)
Zn2 Zn 0.81808(6) 0.59784(4) 0.45129(6)
Zn3 Zn 1.34073(6) 0.10228(4) 0.47940(6)
C1 C -0.1187(5) 0.6631(3) 0.3699(5)
C2 C -0.0530(5) 0.6980(3) 0.3635(4)
C3 C -0.0564(5) 0.7172(3) 0.2916(5)
H1 H -0.1018 0.7089 0.2451
C4 C 0.0057(5) 0.7483(3) 0.2866(5)
H2 H 0.0041 0.7608 0.2367
C5 C 0.0700(5) 0.7610(3) 0.3546(5)
C6 C 0.0745(5) 0.7424(3) 0.4273(5)
H3 H 0.1194 0.7513 0.4738
C7 C 0.0127(5) 0.7108(3) 0.4319(5)
H4 H 0.0151 0.6978 0.4817
C8 C 0.3583(5) 1.0229(3) 0.3960(5)
C9 C 0.3735(5) 0.9718(3) 0.3867(5)
C10 C 0.4049(5) 0.9434(3) 0.4537(5)
H5 H 0.4175 0.9569 0.5050
C11 C 0.4179(5) 0.8960(3) 0.4462(5)
H6 H 0.4394 0.8767 0.4919
C12 C 0.3991(5) 0.8766(3) 0.3710(5)
C13 C 0.3693(5) 0.9037(3) 0.3038(5)
H7 H 0.3577 0.8901 0.2528
C14 C 0.3563(5) 0.9518(3) 0.3121(5)
H8 H 0.3355 0.9710 0.2662
C15 C 0.6458(5) 0.6069(3) 0.3618(5)
C16 C 0.5557(5) 0.6210(3) 0.3528(5)
C17 C 0.4952(5) 0.6224(3) 0.2787(6)
H9 H 0.5094 0.6121 0.2339
C18 C 0.4134(5) 0.6389(3) 0.2690(6)
H10 H 0.3713 0.6396 0.2180
C19 C 0.3948(5) 0.6538(3) 0.3340(6)
C20 C 0.4523(5) 0.6499(3) 0.4094(6)
H11 H 0.4363 0.6581 0.4543
C21 C 0.5342(5) 0.6336(3) 0.4189(6)
H12 H 0.5752 0.6312 0.4703
C22 C 0.2086(5) 0.7775(3) 0.3518(5)
C23 C 0.2712(5) 0.8113(3) 0.3607(5)
H13 H 0.2602 0.8434 0.3690
C24 C 0.3497(5) 0.7978(3) 0.3574(5)
C25 C 0.3675(5) 0.7508(3) 0.3475(5)
H14 H 0.4221 0.7416 0.3464
C26 C 0.3037(5) 0.7179(3) 0.3392(5)
C27 C 0.2233(5) 0.7306(3) 0.3416(5)
H15 H 0.1802 0.7076 0.3364
C28 C 0.8471(5) 0.5223(3) 0.3525(5)
C29 C 0.8738(5) 0.4719(3) 0.3527(5)
C30 C 0.9152(5) 0.4494(3) 0.4245(5)
H16 H 0.9311 0.4665 0.4729
C31 C 0.9327(5) 0.4015(3) 0.4244(5)
H17 H 0.9623 0.3858 0.4725
C32 C 0.9071(5) 0.3770(3) 0.3542(5)
C33 C 0.8705(5) 0.3994(3) 0.2825(5)
H18 H 0.8569 0.3823 0.2342
C34 C 0.8540(5) 0.4472(3) 0.2822(5)
H19 H 0.8289 0.4631 0.2333
C35 C 0.3912(5) 0.1677(3) 0.3781(5)
C36 C 0.4545(5) 0.2046(3) 0.3741(5)
C37 C 0.4512(5) 0.2236(3) 0.3016(5)
H20 H 0.4064 0.2147 0.2550
C38 C 0.5129(5) 0.2554(3) 0.2963(5)
H21 H 0.5099 0.2688 0.2467
C39 C 0.5784(5) 0.2671(3) 0.3639(5)
C40 C 0.5818(5) 0.2496(3) 0.4371(5)
H22 H 0.6267 0.2584 0.4835
C41 C 0.5192(5) 0.2191(3) 0.4418(5)
H23 H 0.5202 0.2077 0.4922
C42 C 1.1668(5) 0.1149(3) 0.3979(5)
C43 C 1.0781(5) 0.1276(3) 0.3944(5)
C44 C 1.0125(5) 0.1261(3) 0.3217(5)
H24 H 1.0233 0.1155 0.2753
C45 C 0.9307(5) 0.1402(3) 0.3181(5)
H25 H 0.8850 0.1386 0.2694
C46 C 0.9166(5) 0.1565(3) 0.3857(5)
C47 C 0.9808(5) 0.1574(3) 0.4575(5)
H26 H 0.9699 0.1678 0.5040
C48 C 1.0620(5) 0.1429(3) 0.4608(5)
H27 H 1.1070 0.1437 0.5100
C49 C 0.7200(5) 0.2809(3) 0.3627(5)
C50 C 0.7790(5) 0.3146(3) 0.3574(5)
H28 H 0.7651 0.3472 0.3528
C51 C 0.8588(5) 0.2990(3) 0.3593(5)
C52 C 0.8803(5) 0.2516(3) 0.3658(5)
H29 H 0.9350 0.2413 0.3664
C53 C 0.8194(5) 0.2196(3) 0.3714(5)
C54 C 0.7387(5) 0.2333(3) 0.3694(5)
H30 H 0.6975 0.2108 0.3725
C55 C 0.8826(6) 0.6129(4) 0.6231(5)
H31 H 0.9016 0.6429 0.6122
C56 C 0.8655(6) 0.5547(4) 0.7171(6)
H32 H 0.8522 0.5568 0.7673
H33 H 0.8128 0.5452 0.6746
C57 C 0.9327(7) 0.5185(4) 0.7253(6)
H34 H 0.9124 0.4879 0.7375
H35 H 0.9844 0.5275 0.7683
H36 H 0.9456 0.5162 0.6756
C58 C 0.9373(6) 0.6328(4) 0.7635(5)
H37 H 0.9664 0.6581 0.7440
H38 H 0.9816 0.6146 0.8038
C59 C 0.8784(6) 0.6552(4) 0.8029(6)
H39 H 0.9115 0.6756 0.8463
H40 H 0.8505 0.6305 0.8240
H41 H 0.8350 0.6739 0.7638
C60 C 1.4182(6) 0.0665(4) 0.6397(5)
H42 H 1.4190 0.0378 0.6125
C61 C 1.4857(7) 0.0228(4) 0.7609(6)
H43 H 1.5459 0.0293 0.7924
H44 H 1.4854 -0.0024 0.7225
C62 C 1.4395(7) 0.0056(4) 0.8155(6)
H45 H 1.4681 -0.0224 0.8438
H46 H 1.3805 -0.0023 0.7845
H47 H 1.4396 0.0304 0.8538
C63 C 1.4527(7) 0.1109(4) 0.7609(6)
H48 H 1.4673 0.1368 0.7306
H49 H 1.4991 0.1083 0.8124
C64 C 1.3718(7) 0.1223(4) 0.7756(7)
H50 H 1.3785 0.1519 0.8053
H51 H 1.3576 0.0970 0.8064
H52 H 1.3259 0.1257 0.7249
N1 N 0.8943(5) 0.6019(3) 0.6977(4)
N2 N 1.4471(5) 0.0663(3) 0.7164(5)
O1 O -0.1113(3) 0.64918(19) 0.4396(3)
O2 O -0.1755(3) 0.6500(2) 0.3089(3)
O3 O 0.1301(3) 0.79433(19) 0.3510(3)
O4 O 0.3425(4) 1.0491(2) 0.3380(3)
O5 O 0.3627(3) 1.0368(2) 0.4652(3)
O6 O 0.4152(3) 0.82880(19) 0.3637(3)
O7 O 0.6620(3) 0.5923(2) 0.3031(4)
O8 O 0.6990(3) 0.6111(2) 0.4308(4)
O9 O 0.3116(3) 0.6710(2) 0.3242(4)
O10 O 0.8172(4) 0.5427(2) 0.2879(3)
O11 O 0.8573(4) 0.5400(2) 0.4207(3)
O12 O 0.9229(3) 0.32867(19) 0.3548(3)
O13 O 0.3334(3) 0.1567(2) 0.3168(3)
O14 O 0.4041(3) 0.15039(19) 0.4471(3)
O15 O 0.6408(3) 0.29885(19) 0.3579(3)
O16 O 1.1812(3) 0.1028(2) 0.3366(3)
O17 O 1.2236(3) 0.1181(2) 0.4656(3)
O18 O 0.8344(3) 0.1714(2) 0.3803(4)
O19 O 0.8489(4) 0.5868(2) 0.5672(3)
O20 O 1.3893(4) 0.1026(2) 0.5992(3)
Zn1_2 Zn -0.25695(6) 0.59956(3) 0.23557(6)
Zn1A Zn 0.25695(6) 0.09956(3) 0.26443(6)
Zn1A_2 Zn 0.25695(6) 1.09956(3) 0.26443(6)
Zn1A_3 Zn 1.25695(6) 0.09956(3) 0.26443(6)
Zn2_2 Zn -0.18192(6) 0.59784(4) 0.45129(6)
Zn3_2 Zn 0.34073(6) 0.10228(4) 0.47940(6)
Zn3_3 Zn 0.34073(6) 1.10228(4) 0.47940(6)
O1_2 O 0.8887(3) 0.64918(19) 0.4396(3)
O2_2 O 0.8245(3) 0.6500(2) 0.3089(3)
O4A O 0.6575(4) 0.5491(2) 0.1620(3)
O5_2 O 1.3627(3) 0.0368(2) 0.4652(3)
O13A O 0.6666(3) 0.6567(2) 0.1832(3)
O14_2 O 1.4041(3) 0.15039(19) 0.4471(3)
O16A O 0.8188(3) 0.6028(2) 0.1634(3)
C65 C 0.6938(9) 0.0950(5) -0.0465(7)
H53 H 0.6972 0.1279 -0.0362
C66 C 0.7276(8) 0.0172(5) 0.0005(7)
H54 H 0.7824 0.0030 0.0331
H55 H 0.7203 0.0108 -0.0559
C67 C 0.6564(9) -0.0053(5) 0.0213(7)
H56 H 0.6571 -0.0394 0.0127
H57 H 0.6019 0.0077 -0.0123
H58 H 0.6634 0.0009 0.0771
C68 C 0.7780(8) 0.0865(5) 0.0907(7)
H59 H 0.7740 0.0643 0.1322
H60 H 0.7507 0.1164 0.0979
C69 C 0.8704(9) 0.0957(5) 0.1022(7)
H61 H 0.8980 0.1088 0.1552
H62 H 0.8751 0.1182 0.0622
H63 H 0.8985 0.0662 0.0968
N3 N 0.7308(7) 0.0671(4) 0.0134(5)
O21 O 0.6550(6) 0.0826(3) -0.1149(5)
C70 C 0.1375(8) 0.2424(5) -0.0381(7)
H64 H 0.1053 0.2395 -0.0030
C71 C 0.2712(8) 0.2551(5) -0.0585(7)
H65 H 0.3231 0.2733 -0.0302
H66 H 0.2391 0.2731 -0.1064
C72 C 0.2970(8) 0.2087(5) -0.0834(8)
H67 H 0.3323 0.2140 -0.1172
H68 H 0.2460 0.1909 -0.1129
H69 H 0.3297 0.1909 -0.0363
C73 C 0.2681(8) 0.2463(5) 0.0816(7)
H70 H 0.2280 0.2372 0.1099
H71 H 0.3117 0.2212 0.0905
C74 C 0.3084(9) 0.2897(5) 0.1129(8)
H72 H 0.3375 0.2863 0.1700
H73 H 0.2654 0.3146 0.1034
H74 H 0.3502 0.2979 0.0868
N4 N 0.2192(6) 0.2504(4) -0.0077(6)
O22 O 0.1001(5) 0.2385(3) -0.1090(5)
C75 C 0.7735(16) 0.0029(8) 0.4108(12)
H75 H 0.7227 0.0080 0.4273
H76 H 0.7640 -0.0260 0.3781
C76 C 0.7844(15) 0.0446(8) 0.3615(12)
H77 H 0.7306 0.0505 0.3188
H78 H 0.8293 0.0376 0.3385
H79 H 0.8002 0.0725 0.3953
C77 C 0.8546(16) 0.0138(8) 0.5604(11)
H80 H 0.9088 0.0029 0.5992
H81 H 0.8068 0.0017 0.5767
C78 C 0.8522(15) 0.0679(7) 0.5570(11)
H82 H 0.8584 0.0805 0.6097
H83 H 0.7977 0.0783 0.5193
H84 H 0.8991 0.0795 0.5398
C79 C 0.9087(17) -0.0309(8) 0.4676(12)
H85 H 0.9559 -0.0374 0.5136
N5 N 0.8469(14) -0.0033(7) 0.4795(10)
O23 O 0.9125(10) -0.0485(5) 0.4069(8)
loop_
_geom_bond_atom_site_label_1
_geom_bond_atom_site_label_2
_geom_bond_site_symmetry_1
_geom_bond_site_symmetry_2
Zn1 O7 1_555 1_555
Zn2 O8 1_555 1_555
Zn3 O17 1_555 1_555
C1 C2 1_555 1_555
C2 C3 1_555 1_555
C3 H1 1_555 1_555
C4 C3 1_555 1_555
H2 C4 1_555 1_555
C5 C4 1_555 1_555
C6 C5 1_555 1_555
H3 C6 1_555 1_555
C7 C2 1_555 1_555
H4 C7 1_555 1_555
C8 C9 1_555 1_555
C9 C10 1_555 1_555
C10 H5 1_555 1_555
C11 C10 1_555 1_555
H6 C11 1_555 1_555
C12 C11 1_555 1_555
C13 C12 1_555 1_555
H7 C13 1_555 1_555
C14 C9 1_555 1_555
H8 C14 1_555 1_555
C15 C16 1_555 1_555
C16 C17 1_555 1_555
C17 H9 1_555 1_555
C18 C17 1_555 1_555
H10 C18 1_555 1_555
C19 C18 1_555 1_555
C20 C19 1_555 1_555
H11 C20 1_555 1_555
C21 C16 1_555 1_555
H12 C21 1_555 1_555
C22 C23 1_555 1_555
C23 H13 1_555 1_555
C24 C23 1_555 1_555
C25 C24 1_555 1_555
H14 C25 1_555 1_555
C26 C25 1_555 1_555
C27 C22 1_555 1_555
H15 C27 1_555 1_555
C28 C29 1_555 1_555
C29 C30 1_555 1_555
C30 H16 1_555 1_555
C31 C30 1_555 1_555
H17 C31 1_555 1_555
C32 C31 1_555 1_555
C33 C32 1_555 1_555
H18 C33 1_555 1_555
C34 C29 1_555 1_555
H19 C34 1_555 1_555
C35 C36 1_555 1_555
C36 C37 1_555 1_555
C37 H20 1_555 1_555
C38 C37 1_555 1_555
H21 C38 1_555 1_555
C39 C38 1_555 1_555
C40 C39 1_555 1_555
H22 C40 1_555 1_555
C41 C36 1_555 1_555
H23 C41 1_555 1_555
C42 C43 1_555 1_555
C43 C44 1_555 1_555
C44 H24 1_555 1_555
C45 C44 1_555 1_555
H25 C45 1_555 1_555
C46 C45 1_555 1_555
C47 C46 1_555 1_555
H26 C47 1_555 1_555
C48 C43 1_555 1_555
H27 C48 1_555 1_555
C49 C50 1_555 1_555
C50 H28 1_555 1_555
C51 C50 1_555 1_555
C52 C51 1_555 1_555
H29 C52 1_555 1_555
C53 C52 1_555 1_555
C54 C49 1_555 1_555
H30 C54 1_555 1_555
C55 H31 1_555 1_555
C56 H32 1_555 1_555
H33 C56 1_555 1_555
C57 C56 1_555 1_555
H34 C57 1_555 1_555
H35 C57 1_555 1_555
H36 C57 1_555 1_555
C58 H37 1_555 1_555
H38 C58 1_555 1_555
C59 C58 1_555 1_555
H39 C59 1_555 1_555
H40 C59 1_555 1_555
H41 C59 1_555 1_555
C60 H42 1_555 1_555
C61 H43 1_555 1_555
H44 C61 1_555 1_555
C62 C61 1_555 1_555
H45 C62 1_555 1_555
H46 C62 1_555 1_555
H47 C62 1_555 1_555
C63 H48 1_555 1_555
H49 C63 1_555 1_555
C64 C63 1_555 1_555
H50 C64 1_555 1_555
H51 C64 1_555 1_555
H52 C64 1_555 1_555
N1 C55 1_555 1_555
N2 C60 1_555 1_555
O1 C1 1_555 1_555
O2 C1 1_555 1_555
O3 C5 1_555 1_555
O4 C8 1_555 1_555
O5 C8 1_555 1_555
O6 C12 1_555 1_555
O7 C15 1_555 1_555
O8 C15 1_555 1_555
O9 C19 1_555 1_555
O10 Zn1 1_555 1_555
O11 Zn2 1_555 1_555
O12 C32 1_555 1_555
O13 C35 1_555 1_555
O14 C35 1_555 1_555
O15 C39 1_555 1_555
O16 C42 1_555 1_555
O17 C42 1_555 1_555
O18 C46 1_555 1_555
O19 Zn2 1_555 1_555
O20 Zn3 1_555 1_555
C65 H53 1_555 1_555
C66 H54 1_555 1_555
H55 C66 1_555 1_555
C67 C66 1_555 1_555
H56 C67 1_555 1_555
H57 C67 1_555 1_555
H58 C67 1_555 1_555
C68 H59 1_555 1_555
H60 C68 1_555 1_555
C69 C68 1_555 1_555
H61 C69 1_555 1_555
H62 C69 1_555 1_555
H63 C69 1_555 1_555
N3 C65 1_555 1_555
O21 C65 1_555 1_555
C70 H64 1_555 1_555
C71 H65 1_555 1_555
H66 C71 1_555 1_555
C72 C71 1_555 1_555
H67 C72 1_555 1_555
H68 C72 1_555 1_555
H69 C72 1_555 1_555
C73 H70 1_555 1_555
H71 C73 1_555 1_555
C74 C73 1_555 1_555
H72 C74 1_555 1_555
H73 C74 1_555 1_555
H74 C74 1_555 1_555
N4 C70 1_555 1_555
O22 C70 1_555 1_555
C75 H75 1_555 1_555
H76 C75 1_555 1_555
C76 C75 1_555 1_555
H77 C76 1_555 1_555
H78 C76 1_555 1_555
H79 C76 1_555 1_555
C77 H80 1_555 1_555
H81 C77 1_555 1_555
C78 C77 1_555 1_555
H82 C78 1_555 1_555
H83 C78 1_555 1_555
H84 C78 1_555 1_555
C79 H85 1_555 1_555
N5 C75 1_555 1_555
O23 C79 1_555 1_555
Zn1_2 O2 1_555 1_555
Zn1A O13 1_555 1_555
Zn1A_2 O4 1_555 1_555
Zn1A_3 O16 1_555 1_555
Zn2_2 O1 1_555 1_555
Zn3_2 O14 1_555 1_555
Zn3_3 O5 1_555 1_555
O1_2 Zn2 1_555 1_555
O2_2 Zn1 1_555 1_555
O4A Zn1 1_555 1_555
O5_2 Zn3 1_555 1_555
O13A Zn1 1_555 1_555
O14_2 Zn3 1_555 1_555
O16A Zn1 1_555 1_555
C6 C7 1_555 1_555
C13 C14 1_555 1_555
C20 C21 1_555 1_555
C22 O3 1_555 1_555
C24 O6 1_555 1_555
C26 C27 1_555 1_555
C26 O9 1_555 1_555
C28 O10 1_555 1_555
C28 O11 1_555 1_555
C33 C34 1_555 1_555
C40 C41 1_555 1_555
C47 C48 1_555 1_555
C49 O15 1_555 1_555
C51 O12 1_555 1_555
C53 C54 1_555 1_555
C53 O18 1_555 1_555
C55 O19 1_555 1_555
C56 N1 1_555 1_555
C58 N1 1_555 1_555
C60 O20 1_555 1_555
C61 N2 1_555 1_555
C63 N2 1_555 1_555
C66 N3 1_555 1_555
C68 N3 1_555 1_555
C71 N4 1_555 1_555
C73 N4 1_555 1_555
C77 N5 1_555 1_555
C79 N5 1_555 1_555

#END
