
#######################################################################
#
#                 Cambridge Crystallographic Data Centre
#                                CCDC 
#
#######################################################################
#
# If this CIF has been generated from an entry in the Cambridge 
# Structural Database, then it will include bibliographic, chemical, 
# crystal, experimental, refinement or atomic coordinate data resulting 
# from the CCDC's data processing and validation procedures.
#
#######################################################################

data_GIHPEU
_symmetry_cell_setting           rhombohedral
_symmetry_space_group_name_H-M   'R 3 2'
_symmetry_Int_Tables_number      155
_space_group_name_Hall           'R 3 2"'
loop_
_symmetry_equiv_pos_site_id
_symmetry_equiv_pos_as_xyz
1 x,y,z
2 -y,x-y,z
3 -x+y,-x,z
4 x-y,-y,-z
5 -x,-x+y,-z
6 y,x,-z
7 2/3+x,1/3+y,1/3+z
8 2/3-y,1/3+x-y,1/3+z
9 2/3-x+y,1/3-x,1/3+z
10 2/3+x-y,1/3-y,1/3-z
11 2/3-x,1/3-x+y,1/3-z
12 2/3+y,1/3+x,1/3-z
13 1/3+x,2/3+y,2/3+z
14 1/3-y,2/3+x-y,2/3+z
15 1/3-x+y,2/3-x,2/3+z
16 1/3+x-y,2/3-y,2/3-z
17 1/3-x,2/3-x+y,2/3-z
18 1/3+y,2/3+x,2/3-z
_cell_length_a                   21.3175(8)
_cell_length_b                   21.3175(8)
_cell_length_c                   17.9653(9)
_cell_angle_alpha                90
_cell_angle_beta                 90
_cell_angle_gamma                120
_cell_volume                     7070.3
loop_
_atom_site_label
_atom_site_type_symbol
_atom_site_fract_x
_atom_site_fract_y
_atom_site_fract_z
O3 O 0.6834(13) 0.3006(12) 0.4366(11)
O3A O 0.6994(12) 0.3828(18) 0.4366(11)
O3B O 0.6172(18) 0.3166(13) 0.4366(11)
O4 O 0.6589(7) 0.6818(7) 0.5434(9)
O5 O 0.5770(11) 0.6665(10) 0.5405(10)
O4E O 0.6818(7) 0.6589(7) 0.4566(9)
O5E O 0.6665(10) 0.5770(11) 0.4595(10)
O6 O 0.5449(7) 0.6642(8) 0.6380(8)
O6I O 0.5474(11) 0.6691(8) 0.6953(8)
O7 O 0.7247(10) 0.3333 0.3333
O8 O 0.7586(10) 0.2908(8) 0.4711(7)
O9 O 0.3333 0.6667 0.278(3)
O10 O 0.352(4) 0.634(4) 0.234(3)
O10A O 0.366(4) 0.718(6) 0.234(3)
O10B O 0.282(6) 0.648(4) 0.234(3)
W1 W 0.3333 0.460015(13) 0.6667
Co1 Co 0.28334(5) 0.3333 0.8333
O1 O 0.3165(2) 0.40291(19) 0.74531(19)
O2 O 0.2569(3) 0.4698(3) 0.6477(3)
N1 N 0.3291(2) 0.2704(3) 0.7871(2)
N2 N 0.5757(2) 0.0641(2) 0.5532(3)
C1 C 0.3456(3) 0.1667(3) 0.7854(3)
H1 H 0.3309 0.1198 0.8029
C2 C 0.3845(3) 0.3031(3) 0.7392(3)
H2 H 0.3982 0.3501 0.7228
C3 C 0.5192(4) 0.1420(4) 0.6235(4)
C4 C 0.5177(3) 0.0314(3) 0.5969(4)
H3 H 0.4956 -0.0189 0.6037
C5 C 0.5807(4) 0.1761(3) 0.5789(4)
H4 H 0.6045 0.2265 0.5718
C6 C 0.4222(4) 0.2706(3) 0.7130(3)
H5 H 0.4613 0.2959 0.6802
C7 C 0.4024(3) 0.2004(3) 0.7351(3)
C8 C 0.4364(4) 0.1596(4) 0.7061(4)
H6 H 0.4192 0.1125 0.7246
C9 C 0.6066(3) 0.1352(3) 0.5449(4)
H7 H 0.6479 0.1589 0.5145
C10 C 0.4884(4) 0.0682(4) 0.6330(4)
H8 H 0.4476 0.0430 0.6638
C11 C 0.3110(3) 0.2036(3) 0.8095(3)
H9 H 0.2726 0.1803 0.8435
C12 C 0.4886(4) 0.1838(4) 0.6568(4)
H10 H 0.5082 0.2321 0.6413
O1J O 0.3502(2) 0.41974(28) 0.58802(19)
O2J O 0.4098(3) 0.5462(4) 0.6856(3)
N1O N 0.3920(4) 0.3963(3) 0.8796(2)
N2O N 0.8449(3) 0.6026(2) 1.1135(3)
C1O C 0.5122(4) 0.5000(3) 0.8813(3)
H1O H 0.5444 0.5469 0.8638
C2O C 0.4147(4) 0.3636(3) 0.9275(3)
H2O H 0.3814 0.3166 0.9439
C3O C 0.7105(6) 0.5247(4) 1.0432(4)
C4O C 0.8196(4) 0.6353(3) 1.0698(4)
H3O H 0.8478 0.6856 1.0630
C5O C 0.7379(5) 0.4906(3) 1.0878(4)
H4O H 0.7113 0.4402 1.0949
C6O C 0.4849(5) 0.3961(3) 0.9537(3)
H5O H 0.4987 0.3708 0.9865
C7O C 0.5353(4) 0.4663(3) 0.9316(3)
C8O C 0.6101(6) 0.5071(4) 0.9606(4)
H6O H 0.6400 0.5542 0.9421
C9O C 0.8047(4) 0.5315(3) 1.1218(4)
H7O H 0.8223 0.5078 1.1522
C10O C 0.7535(6) 0.5985(4) 1.0337(4)
H8O H 0.7379 0.6237 1.0029
C11O C 0.4407(4) 0.4631(3) 0.8572(3)
H9O H 0.4256 0.4864 0.8232
C12O C 0.6381(6) 0.4829(4) 1.0099(4)
H10O H 0.6094 0.4346 1.0254
Co1C Co 0.95004(5) 0.6667 1.1667
Co1I Co 0.61671(5) 0.0000 0.5000
Co1J Co 0.38333(5) 0.38329(5) 0.5000
O1O O 0.24692(28) 0.26376(19) 0.92136(19)
N2F N 0.2424(2) 0.3974(2) 0.8865(3)
N2I N 0.1783(3) 0.2692(2) 0.7801(3)
loop_
_geom_bond_atom_site_label_1
_geom_bond_atom_site_label_2
_geom_bond_site_symmetry_1
_geom_bond_site_symmetry_2
W1 O1 1_555 1_555
Co1 O1 1_555 1_555
O2 W1 1_555 1_555
N1 Co1 1_555 1_555
N2 C4 1_555 1_555
C1 H1 1_555 1_555
C2 N1 1_555 1_555
H2 C2 1_555 1_555
C3 C5 1_555 1_555
C4 H3 1_555 1_555
C5 H4 1_555 1_555
C6 C2 1_555 1_555
H5 C6 1_555 1_555
C7 C1 1_555 1_555
C8 C7 1_555 1_555
H6 C8 1_555 1_555
C9 N2 1_555 1_555
H7 C9 1_555 1_555
C10 C3 1_555 1_555
H8 C10 1_555 1_555
C11 N1 1_555 1_555
H9 C11 1_555 1_555
C12 C3 1_555 1_555
H10 C12 1_555 1_555
O3 O3A 1_555 1_555
O4 O5 1_555 1_555
O6 O6I 1_555 1_555
O9 O10 1_555 1_555
O10 O10A 1_555 1_555
O1J W1 1_555 1_555
O2J W1 1_555 1_555
N1O Co1 1_555 1_555
N2O C4O 1_555 1_555
C1O H1O 1_555 1_555
C2O N1O 1_555 1_555
H2O C2O 1_555 1_555
C3O C5O 1_555 1_555
C4O H3O 1_555 1_555
C5O H4O 1_555 1_555
C6O C2O 1_555 1_555
H5O C6O 1_555 1_555
C7O C1O 1_555 1_555
C8O C7O 1_555 1_555
H6O C8O 1_555 1_555
C9O N2O 1_555 1_555
H7O C9O 1_555 1_555
C10O C3O 1_555 1_555
H8O C10O 1_555 1_555
C11O N1O 1_555 1_555
H9O C11O 1_555 1_555
C12O C3O 1_555 1_555
H10O C12O 1_555 1_555
Co1C N2O 1_555 1_555
Co1I N2 1_555 1_555
Co1J O1J 1_555 1_555
O1O Co1 1_555 1_555
N2F Co1 1_555 1_555
N2I Co1 1_555 1_555
O3A O3B 1_555 1_555
O3B O3 1_555 1_555
O4E O4 1_555 1_555
O5E O4E 1_555 1_555
O10A O9 1_555 1_555
O10B O9 1_555 1_555
C1 C11 1_555 1_555
C4 C10 1_555 1_555
C5 C9 1_555 1_555
C6 C7 1_555 1_555
C8 C12 1_555 1_555
O10 O10B 1_555 1_555
C1O C11O 1_555 1_555
C4O C10O 1_555 1_555
C5O C9O 1_555 1_555
C6O C7O 1_555 1_555
C8O C12O 1_555 1_555
O10A O10B 1_555 1_555

#END
