
#######################################################################
#
#                 Cambridge Crystallographic Data Centre
#                                CCDC 
#
#######################################################################
#
# If this CIF has been generated from an entry in the Cambridge 
# Structural Database, then it will include bibliographic, chemical, 
# crystal, experimental, refinement or atomic coordinate data resulting 
# from the CCDC's data processing and validation procedures.
#
#######################################################################

data_GIJCAF
_symmetry_cell_setting           monoclinic
_symmetry_space_group_name_H-M   'P 21/c'
_symmetry_Int_Tables_number      14
_space_group_name_Hall           '-P 2ybc'
loop_
_symmetry_equiv_pos_site_id
_symmetry_equiv_pos_as_xyz
1 x,y,z
2 -x,1/2+y,1/2-z
3 -x,-y,-z
4 x,1/2-y,1/2+z
_cell_length_a                   11.015(6)
_cell_length_b                   17.421(9)
_cell_length_c                   29.938(17)
_cell_angle_alpha                90
_cell_angle_beta                 93.990(10)
_cell_angle_gamma                90
_cell_volume                     5730.95
loop_
_atom_site_label
_atom_site_type_symbol
_atom_site_fract_x
_atom_site_fract_y
_atom_site_fract_z
Co1 Co 0.60061(9) 0.49916(6) 0.21927(4)
Co2 Co 0.87974(10) 0.48606(7) 0.28661(4)
Cl1 Cl 0.4188(2) 0.50113(16) 0.18028(9)
N1 N 0.4997(7) 0.8525(4) 0.3899(3)
H1 H 0.4831 0.8938 0.3749
N2 N 0.1534(6) 1.0339(4) 0.5493(2)
H2 H 0.1409 1.0694 0.5295
N3 N 0.4975(6) 1.1462(4) 0.3970(3)
H3 H 0.5524 1.1118 0.4025
O1 O 0.5048(8) 0.8028(4) 0.4588(2)
O2 O 0.2787(5) 0.9352(4) 0.5715(2)
O3 O 0.3079(6) 1.1835(4) 0.4150(2)
O4 O 0.6192(5) 0.5949(3) 0.2523(2)
O5 O 0.7565(5) 0.5632(4) 0.3072(2)
O6 O -0.1516(6) 0.9879(4) 0.7201(3)
O7 O -0.2918(6) 1.0346(4) 0.6731(2)
O8 O 0.7660(6) 1.3932(4) 0.2848(2)
O9 O 0.5751(6) 1.4219(4) 0.2648(2)
C1 C 0.4276(6) 0.9296(5) 0.4483(3)
C2 C 0.3645(7) 0.9267(5) 0.4875(3)
H4 H 0.3607 0.8813 0.5037
C3 C 0.3088(6) 0.9919(5) 0.5014(3)
C4 C 0.3160(7) 1.0608(5) 0.4782(3)
H5 H 0.2773 1.1047 0.4878
C5 C 0.3817(6) 1.0630(5) 0.4405(2)
C6 C 0.4367(7) 0.9972(5) 0.4255(3)
H6 H 0.4799 0.9990 0.3999
C7 C 0.4809(8) 0.8550(6) 0.4331(3)
C8 C 0.5443(9) 0.7896(5) 0.3652(3)
C9 C 0.5078(9) 0.7823(5) 0.3213(3)
H7 H 0.4547 0.8183 0.3079
C10 C 0.5476(8) 0.7231(5) 0.2965(3)
H8 H 0.5218 0.7188 0.2664
C11 C 0.6278(8) 0.6684(5) 0.3167(3)
C12 C 0.6682(10) 0.6790(6) 0.3602(4)
H9 H 0.7267 0.6461 0.3734
C13 C 0.6242(10) 0.7369(7) 0.3847(4)
H10 H 0.6483 0.7410 0.4150
C14 C 0.6736(8) 0.6035(5) 0.2899(3)
C15 C 0.2456(7) 0.9852(5) 0.5445(3)
C16 C 0.0752(8) 1.0309(5) 0.5847(3)
C17 C 0.1118(8) 1.0063(6) 0.6264(3)
H11 H 0.1918 0.9909 0.6333
C18 C 0.0269(8) 1.0048(6) 0.6588(3)
H12 H 0.0521 0.9886 0.6876
C19 C -0.0901(7) 1.0257(6) 0.6502(3)
C20 C -0.1257(8) 1.0515(6) 0.6076(3)
H13 H -0.2059 1.0664 0.6008
C21 C -0.0426(7) 1.0553(6) 0.5747(3)
H14 H -0.0663 1.0740 0.5463
C22 C -0.1835(9) 1.0150(6) 0.6838(4)
C23 C 0.3901(8) 1.1368(5) 0.4171(3)
C24 C 0.5271(8) 1.2062(5) 0.3683(3)
C25 C 0.4509(8) 1.2587(6) 0.3500(4)
H15 H 0.3692 1.2569 0.3559
C26 C 0.4903(8) 1.3155(6) 0.3226(4)
H16 H 0.4344 1.3501 0.3094
C27 C 0.6103(7) 1.3219(5) 0.3146(3)
C28 C 0.6866(8) 1.2692(6) 0.3330(4)
H17 H 0.7693 1.2731 0.3289
C29 C 0.6454(9) 1.2086(6) 0.3583(4)
H18 H 0.6987 1.1699 0.3684
C30 C 0.6538(9) 1.3836(5) 0.2857(3)
N4 N 1.1206(12) 0.3028(8) 0.2543(6)
N5 N 1.2278(11) 0.5781(10) 0.2895(6)
O10 O 1.0174(7) 0.4115(5) 0.2685(3)
O11 O 1.0180(7) 0.5701(5) 0.2865(3)
O12 O 0.9246(7) 0.4640(5) 0.3546(3)
C31 C 1.0268(13) 0.3479(10) 0.2685(7)
H19 H 0.9625 0.3211 0.2797
C32 C 1.2162(18) 0.3480(12) 0.2285(8)
C33 C 1.138(2) 0.2177(12) 0.2632(9)
C34 C 1.1194(13) 0.5498(9) 0.3005(6)
H20 H 1.1228 0.5101 0.3213
C35 C 1.2280(18) 0.6387(12) 0.2538(6)
C36 C 1.3435(13) 0.5479(13) 0.3090(8)
Co1_2 Co 0.60061(9) 1.49916(6) 0.21927(4)
Co1C Co -0.39939(9) 1.00084(6) 0.71927(4)
Co2_2 Co 0.87974(10) 1.48606(7) 0.28661(4)
Co2C Co -0.12026(10) 1.01394(7) 0.78661(4)
O6C O 0.8484(6) 0.5121(4) 0.2201(3)
O7C O 0.7082(6) 0.4654(4) 0.1731(2)
O8_2 O 0.7660(6) 0.3932(4) 0.2848(2)
O9_2 O 0.5751(6) 0.4219(4) 0.2648(2)
N6 N 0.9876(15) 0.1947(9) 0.4239(6)
O13 O 1.0434(9) 0.1370(7) 0.4869(4)
C37 C 1.0525(13) 0.1431(10) 0.4456(6)
C38 C 1.012(2) 0.1985(13) 0.3736(7)
C39 C 0.899(2) 0.2465(14) 0.4478(11)
O14 O 0.144(2) 0.3933(15) 0.3905(8)
O15 O 0.855(3) 0.2871(19) 0.6000(12)
O16 O 0.578(3) 0.3922(19) 0.4448(11)
O17 O 0.169(3) 0.373(2) 0.4725(11)
O18 O 0.958(4) 0.374(3) 0.5967(13)
O19 O 0.719(3) 0.4434(17) 0.4179(11)
loop_
_geom_bond_atom_site_label_1
_geom_bond_atom_site_label_2
_geom_bond_site_symmetry_1
_geom_bond_site_symmetry_2
Co1 Cl1 1_555 1_555
Co2 O5 1_555 1_555
N1 H1 1_555 1_555
N2 H2 1_555 1_555
N3 H3 1_555 1_555
O1 C7 1_555 1_555
O2 C15 1_555 1_555
O3 C23 1_555 1_555
O4 Co1 1_555 1_555
O5 C14 1_555 1_555
O6 C22 1_555 1_555
O7 C22 1_555 1_555
O8 C30 1_555 1_555
O9 C30 1_555 1_555
C1 C2 1_555 1_555
C2 H4 1_555 1_555
C3 C2 1_555 1_555
C4 C3 1_555 1_555
H5 C4 1_555 1_555
C5 C4 1_555 1_555
C6 C1 1_555 1_555
H6 C6 1_555 1_555
C7 N1 1_555 1_555
C8 N1 1_555 1_555
C9 C8 1_555 1_555
H7 C9 1_555 1_555
C10 C9 1_555 1_555
H8 C10 1_555 1_555
C11 C10 1_555 1_555
C12 C11 1_555 1_555
H9 C12 1_555 1_555
C13 C8 1_555 1_555
H10 C13 1_555 1_555
C14 O4 1_555 1_555
C15 N2 1_555 1_555
C16 N2 1_555 1_555
C17 C16 1_555 1_555
H11 C17 1_555 1_555
C18 C17 1_555 1_555
H12 C18 1_555 1_555
C19 C18 1_555 1_555
C20 C19 1_555 1_555
H13 C20 1_555 1_555
C21 C16 1_555 1_555
H14 C21 1_555 1_555
C22 C19 1_555 1_555
C23 N3 1_555 1_555
C24 N3 1_555 1_555
C25 C24 1_555 1_555
H15 C25 1_555 1_555
C26 C25 1_555 1_555
H16 C26 1_555 1_555
C27 C26 1_555 1_555
C28 C27 1_555 1_555
H17 C28 1_555 1_555
C29 C24 1_555 1_555
H18 C29 1_555 1_555
C30 C27 1_555 1_555
N4 C31 1_555 1_555
N5 C34 1_555 1_555
O10 Co2 1_555 1_555
O11 Co2 1_555 1_555
O12 Co2 1_555 1_555
C31 O10 1_555 1_555
H19 C31 1_555 1_555
C32 N4 1_555 1_555
C33 N4 1_555 1_555
C34 O11 1_555 1_555
H20 C34 1_555 1_555
C35 N5 1_555 1_555
C36 N5 1_555 1_555
N6 C37 1_555 1_555
O13 C37 1_555 1_555
C38 N6 1_555 1_555
C39 N6 1_555 1_555
Co1_2 O9 1_555 1_555
Co1C O7 1_555 1_555
Co2_2 O8 1_555 1_555
Co2C O6 1_555 1_555
O6C Co2 1_555 1_555
O7C Co1 1_555 1_555
O8_2 Co2 1_555 1_555
O9_2 Co1 1_555 1_555
C1 C7 1_555 1_555
C3 C15 1_555 1_555
C5 C6 1_555 1_555
C5 C23 1_555 1_555
C11 C14 1_555 1_555
C12 C13 1_555 1_555
C20 C21 1_555 1_555
C28 C29 1_555 1_555

#END
