
#######################################################################
#
#                 Cambridge Crystallographic Data Centre
#                                CCDC 
#
#######################################################################
#
# If this CIF has been generated from an entry in the Cambridge 
# Structural Database, then it will include bibliographic, chemical, 
# crystal, experimental, refinement or atomic coordinate data resulting 
# from the CCDC's data processing and validation procedures.
#
#######################################################################

data_GIKMOD04
_symmetry_cell_setting           monoclinic
_symmetry_space_group_name_H-M   'P 21/n'
_symmetry_Int_Tables_number      14
_space_group_name_Hall           '-P 2yn'
loop_
_symmetry_equiv_pos_site_id
_symmetry_equiv_pos_as_xyz
1 x,y,z
2 1/2-x,1/2+y,1/2-z
3 -x,-y,-z
4 1/2+x,1/2-y,1/2+z
_cell_length_a                   7.3206(4)
_cell_length_b                   18.2483(11)
_cell_length_c                   10.1331(6)
_cell_angle_alpha                90
_cell_angle_beta                 94.6810(10)
_cell_angle_gamma                90
_cell_volume                     1349.15
loop_
_atom_site_label
_atom_site_type_symbol
_atom_site_fract_x
_atom_site_fract_y
_atom_site_fract_z
Cu1 Cu 0.13363(5) 0.092915(18) 0.78259(3)
Cu2 Cu -0.05051(4) 0.068492(17) 1.06483(3)
S1 S 0.11453(10) 0.43372(4) 1.30501(7)
O1 O 0.0457(3) 0.16777(12) 1.0840(2)
O2 O 0.1319(3) 0.03517(11) 0.94600(19)
O3 O 0.3378(3) 0.51029(12) 0.8336(2)
O4 O 0.1156(3) 0.18494(11) 0.8734(2)
O5 O 0.1098(4) 0.51258(15) 1.2927(3)
O6 O 0.2979(3) 0.40956(11) 0.7054(2)
O7 O 0.2802(3) 0.40655(15) 1.3791(3)
O8 O -0.0488(3) 0.40277(13) 1.3573(2)
C1 C 0.1287(4) 0.39522(15) 1.1468(3)
C2 C 0.2190(4) 0.40313(14) 0.9243(3)
C3 C 0.1873(4) 0.32832(15) 0.9101(3)
H1 H 0.2088 0.3056 0.8306
C4 C 0.1242(4) 0.28664(15) 1.0120(3)
C5 C 0.0923(4) 0.20642(15) 0.9891(3)
C6 C 0.0927(4) 0.32002(15) 1.1310(3)
H2 H 0.0485 0.2930 1.1994
C7 C 0.1895(4) 0.43717(15) 1.0449(3)
H3 H 0.2105 0.4871 1.0564
C8 C 0.2898(4) 0.44479(16) 0.8125(3)
O9 O 0.1105(4) 0.15145(13) 0.6200(2)
Cu1B Cu -0.13363(5) -0.092915(18) 1.21741(3)
Cu1A Cu 0.36637(5) -0.407085(18) 0.71741(3)
Cu1A_2 Cu 0.36637(5) 0.592915(18) 0.71741(3)
Cu1C Cu -0.36637(5) -0.592915(18) 1.28259(3)
Cu1C_2 Cu -0.36637(5) 0.407085(18) 1.28259(3)
Cu2B Cu 0.05051(4) -0.068492(17) 0.93517(3)
Cu2A Cu -0.44949(4) -0.431508(17) 0.43517(3)
Cu2A_2 Cu -0.44949(4) -0.431508(17) 1.43517(3)
Cu2C Cu 0.44949(4) 0.431508(17) 0.56483(3)
Cu2C_2 Cu 0.44949(4) 0.431508(17) 1.56483(3)
S1B S -0.11453(10) -0.43372(4) 0.69499(7)
O1B O -0.0457(3) -0.16777(12) 0.9160(2)
O2B O -0.1319(3) -0.03517(11) 1.05400(19)
O3B O -0.3378(3) -0.51029(12) 1.1664(2)
O3A O 0.1622(3) 0.01029(12) 0.6664(2)
O3C O -0.1622(3) -0.01029(12) 1.3336(2)
O4B O -0.1156(3) -0.18494(11) 1.1266(2)
O5B O -0.1098(4) -0.51258(15) 0.7073(3)
O6B O -0.2979(3) -0.40956(11) 1.2946(2)
O6A O 0.2021(3) -0.09044(11) 0.7946(2)
O6C O -0.2021(3) 0.09044(11) 1.2054(2)
O7B O -0.2802(3) -0.40655(15) 0.6209(3)
O7A O 0.2198(3) -0.09345(15) 1.1209(3)
O7C O -0.2198(3) 0.09345(15) 0.8791(3)
O8B O 0.0488(3) -0.40277(13) 0.6427(2)
O8A O -0.4512(3) -0.09723(13) 1.1427(2)
O8C O 0.4512(3) 0.09723(13) 0.8573(2)
C1B C -0.1287(4) -0.39522(15) 0.8532(3)
C2B C -0.2190(4) -0.40313(14) 1.0757(3)
C3B C -0.1873(4) -0.32832(15) 1.0899(3)
H1B H -0.2088 -0.3056 1.1694
C4B C -0.1242(4) -0.28664(15) 0.9880(3)
C5B C -0.0923(4) -0.20642(15) 1.0109(3)
C6B C -0.0927(4) -0.32002(15) 0.8690(3)
H2B H -0.0485 -0.2930 0.8006
C7B C -0.1895(4) -0.43717(15) 0.9551(3)
H3B H -0.2105 -0.4871 0.9436
C8B C -0.2898(4) -0.44479(16) 1.1875(3)
O9B O -0.1105(4) -0.15145(13) 1.3800(2)
O10 O 0.0386(5) 0.29857(16) 0.5818(3)
O11 O 0.2044(5) 0.1261(2) 0.3592(3)
loop_
_geom_bond_atom_site_label_1
_geom_bond_atom_site_label_2
_geom_bond_site_symmetry_1
_geom_bond_site_symmetry_2
Cu1 O2 1_555 1_555
Cu2 O1 1_555 1_555
S1 O5 1_555 1_555
O1 C5 1_555 1_555
O2 Cu2 1_555 1_555
O3 C8 1_555 1_555
O4 Cu1 1_555 1_555
O6 C8 1_555 1_555
O7 S1 1_555 1_555
O8 S1 1_555 1_555
C1 S1 1_555 1_555
C2 C3 1_555 1_555
C3 H1 1_555 1_555
C4 C3 1_555 1_555
C5 O4 1_555 1_555
C6 C1 1_555 1_555
H2 C6 1_555 1_555
C7 C1 1_555 1_555
H3 C7 1_555 1_555
C8 C2 1_555 1_555
O9 Cu1 1_555 1_555
Cu1B O2B 1_555 1_555
Cu1A O8B 1_555 1_555
Cu1A_2 O3 1_555 1_555
Cu1C O3B 1_555 1_555
Cu1C_2 O8 1_555 1_555
Cu2B O2 1_555 1_555
Cu2A O7B 1_555 1_555
Cu2A_2 O6B 1_555 1_555
Cu2C O6 1_555 1_555
Cu2C_2 O7 1_555 1_555
S1B O5B 1_555 1_555
O1B Cu2B 1_555 1_555
O2B Cu2 1_555 1_555
O3B C8B 1_555 1_555
O3A Cu1 1_555 1_555
O3C Cu1B 1_555 1_555
O4B Cu1B 1_555 1_555
O6B C8B 1_555 1_555
O6A Cu2B 1_555 1_555
O6C Cu2 1_555 1_555
O7B S1B 1_555 1_555
O7A Cu2B 1_555 1_555
O7C Cu2 1_555 1_555
O8B S1B 1_555 1_555
O8A Cu1B 1_555 1_555
O8C Cu1 1_555 1_555
C1B S1B 1_555 1_555
C2B C3B 1_555 1_555
C3B H1B 1_555 1_555
C4B C3B 1_555 1_555
C5B O1B 1_555 1_555
C6B C1B 1_555 1_555
H2B C6B 1_555 1_555
C7B C1B 1_555 1_555
H3B C7B 1_555 1_555
C8B C2B 1_555 1_555
O9B Cu1B 1_555 1_555
C2 C7 1_555 1_555
C4 C5 1_555 1_555
C4 C6 1_555 1_555
Cu2B O2B 1_555 1_555
O4B C5B 1_555 1_555
C2B C7B 1_555 1_555
C4B C5B 1_555 1_555
C4B C6B 1_555 1_555

#END
