
#######################################################################
#
#                 Cambridge Crystallographic Data Centre
#                                CCDC 
#
#######################################################################
#
# If this CIF has been generated from an entry in the Cambridge 
# Structural Database, then it will include bibliographic, chemical, 
# crystal, experimental, refinement or atomic coordinate data resulting 
# from the CCDC's data processing and validation procedures.
#
#######################################################################

data_GIKMOD02
_symmetry_cell_setting           monoclinic
_symmetry_space_group_name_H-M   'P 21/n'
_symmetry_Int_Tables_number      14
_space_group_name_Hall           '-P 2yn'
loop_
_symmetry_equiv_pos_site_id
_symmetry_equiv_pos_as_xyz
1 x,y,z
2 1/2-x,1/2+y,1/2-z
3 -x,-y,-z
4 1/2+x,1/2-y,1/2+z
_cell_length_a                   7.3033(11)
_cell_length_b                   18.261(3)
_cell_length_c                   10.1272(15)
_cell_angle_alpha                90
_cell_angle_beta                 94.841(2)
_cell_angle_gamma                90
_cell_volume                     1345.8
loop_
_atom_site_label
_atom_site_type_symbol
_atom_site_fract_x
_atom_site_fract_y
_atom_site_fract_z
Cu1 Cu 0.13363(4) 0.092609(14) 0.78281(3)
Cu2 Cu -0.05118(3) 0.068492(13) 1.06442(2)
S1 S 0.11412(7) 0.43364(3) 1.30413(5)
O1 O 0.0448(2) 0.16763(9) 1.08385(15)
O2 O 0.1328(2) 0.03497(8) 0.94676(15)
O3 O 0.3373(2) 0.50976(9) 0.83296(16)
O4 O 0.1160(2) 0.18453(9) 0.87308(16)
O5 O 0.1081(3) 0.51254(11) 1.29176(19)
O6 O 0.2957(2) 0.40936(9) 0.70412(16)
O7 O 0.2813(2) 0.40682(11) 1.37745(19)
O8 O -0.0483(2) 0.40223(10) 1.35751(18)
C1 C 0.1268(3) 0.39514(12) 1.1450(2)
C2 C 0.2176(3) 0.40287(11) 0.9236(2)
C3 C 0.1866(3) 0.32780(12) 0.9087(2)
H1 H 0.2086 0.3050 0.8295
C4 C 0.1229(3) 0.28653(11) 1.0114(2)
C5 C 0.0919(3) 0.20627(12) 0.9886(2)
C6 C 0.0911(3) 0.32006(12) 1.1306(2)
H2 H 0.0471 0.2932 1.1992
C7 C 0.1886(3) 0.43694(11) 1.0440(2)
H3 H 0.2106 0.4868 1.0558
C8 C 0.2884(3) 0.44434(13) 0.8115(2)
O9 O 0.1089(3) 0.15074(10) 0.61891(17)
Cu1B Cu -0.13363(4) -0.092609(14) 1.21719(3)
Cu1A Cu 0.36637(4) -0.407391(14) 0.71719(3)
Cu1A_2 Cu 0.36637(4) 0.592609(14) 0.71719(3)
Cu1C Cu -0.36637(4) -0.592609(14) 1.28281(3)
Cu1C_2 Cu -0.36637(4) 0.407391(14) 1.28281(3)
Cu2B Cu 0.05118(3) -0.068492(13) 0.93558(2)
Cu2A Cu -0.44882(3) -0.431508(13) 0.43558(2)
Cu2A_2 Cu -0.44882(3) -0.431508(13) 1.43558(2)
Cu2C Cu 0.44882(3) 0.431508(13) 0.56442(2)
Cu2C_2 Cu 0.44882(3) 0.431508(13) 1.56442(2)
S1B S -0.11412(7) -0.43364(3) 0.69587(5)
O1B O -0.0448(2) -0.16763(9) 0.91615(15)
O2B O -0.1328(2) -0.03497(8) 1.05324(15)
O3B O -0.3373(2) -0.50976(9) 1.16704(16)
O3A O 0.1627(2) 0.00976(9) 0.66704(16)
O3C O -0.1627(2) -0.00976(9) 1.33296(16)
O4B O -0.1160(2) -0.18453(9) 1.12692(16)
O5B O -0.1081(3) -0.51254(11) 0.70824(19)
O6B O -0.2957(2) -0.40936(9) 1.29588(16)
O6A O 0.2043(2) -0.09064(9) 0.79588(16)
O6C O -0.2043(2) 0.09064(9) 1.20412(16)
O7B O -0.2813(2) -0.40682(11) 0.62255(19)
O7A O 0.2187(2) -0.09318(11) 1.12255(19)
O7C O -0.2187(2) 0.09318(11) 0.87745(19)
O8B O 0.0483(2) -0.40223(10) 0.64249(18)
O8A O -0.4517(2) -0.09777(10) 1.14249(18)
O8C O 0.4517(2) 0.09777(10) 0.85751(18)
C1B C -0.1268(3) -0.39514(12) 0.8550(2)
C2B C -0.2176(3) -0.40287(11) 1.0764(2)
C3B C -0.1866(3) -0.32780(12) 1.0913(2)
H1B H -0.2086 -0.3050 1.1705
C4B C -0.1229(3) -0.28653(11) 0.9886(2)
C5B C -0.0919(3) -0.20627(12) 1.0114(2)
C6B C -0.0911(3) -0.32006(12) 0.8694(2)
H2B H -0.0471 -0.2932 0.8008
C7B C -0.1886(3) -0.43694(11) 0.9560(2)
H3B H -0.2106 -0.4868 0.9442
C8B C -0.2884(3) -0.44434(13) 1.1885(2)
O9B O -0.1089(3) -0.15074(10) 1.38109(17)
O10 O 0.0406(3) 0.29784(12) 0.5801(2)
O11 O 0.2019(3) 0.12455(15) 0.3580(2)
loop_
_geom_bond_atom_site_label_1
_geom_bond_atom_site_label_2
_geom_bond_site_symmetry_1
_geom_bond_site_symmetry_2
Cu1 O2 1_555 1_555
Cu2 O1 1_555 1_555
S1 O5 1_555 1_555
O1 C5 1_555 1_555
O2 Cu2 1_555 1_555
O3 C8 1_555 1_555
O4 Cu1 1_555 1_555
O6 C8 1_555 1_555
O7 S1 1_555 1_555
O8 S1 1_555 1_555
C1 S1 1_555 1_555
C2 C3 1_555 1_555
C3 H1 1_555 1_555
C4 C3 1_555 1_555
C5 O4 1_555 1_555
C6 C1 1_555 1_555
H2 C6 1_555 1_555
C7 C1 1_555 1_555
H3 C7 1_555 1_555
C8 C2 1_555 1_555
O9 Cu1 1_555 1_555
Cu1B O2B 1_555 1_555
Cu1A O8B 1_555 1_555
Cu1A_2 O3 1_555 1_555
Cu1C O3B 1_555 1_555
Cu1C_2 O8 1_555 1_555
Cu2B O2 1_555 1_555
Cu2A O7B 1_555 1_555
Cu2A_2 O6B 1_555 1_555
Cu2C O6 1_555 1_555
Cu2C_2 O7 1_555 1_555
S1B O5B 1_555 1_555
O1B Cu2B 1_555 1_555
O2B Cu2 1_555 1_555
O3B C8B 1_555 1_555
O3A Cu1 1_555 1_555
O3C Cu1B 1_555 1_555
O4B Cu1B 1_555 1_555
O6B C8B 1_555 1_555
O6A Cu2B 1_555 1_555
O6C Cu2 1_555 1_555
O7B S1B 1_555 1_555
O7A Cu2B 1_555 1_555
O7C Cu2 1_555 1_555
O8B S1B 1_555 1_555
O8A Cu1B 1_555 1_555
O8C Cu1 1_555 1_555
C1B S1B 1_555 1_555
C2B C3B 1_555 1_555
C3B H1B 1_555 1_555
C4B C3B 1_555 1_555
C5B O1B 1_555 1_555
C6B C1B 1_555 1_555
H2B C6B 1_555 1_555
C7B C1B 1_555 1_555
H3B C7B 1_555 1_555
C8B C2B 1_555 1_555
O9B Cu1B 1_555 1_555
C2 C7 1_555 1_555
C4 C5 1_555 1_555
C4 C6 1_555 1_555
Cu2B O2B 1_555 1_555
O4B C5B 1_555 1_555
C2B C7B 1_555 1_555
C4B C5B 1_555 1_555
C4B C6B 1_555 1_555

#END
