
#######################################################################
#
#                 Cambridge Crystallographic Data Centre
#                                CCDC 
#
#######################################################################
#
# If this CIF has been generated from an entry in the Cambridge 
# Structural Database, then it will include bibliographic, chemical, 
# crystal, experimental, refinement or atomic coordinate data resulting 
# from the CCDC's data processing and validation procedures.
#
#######################################################################

data_GIKMOD03
_symmetry_cell_setting           monoclinic
_symmetry_space_group_name_H-M   'P 21/n'
_symmetry_Int_Tables_number      14
_space_group_name_Hall           '-P 2yn'
loop_
_symmetry_equiv_pos_site_id
_symmetry_equiv_pos_as_xyz
1 x,y,z
2 1/2-x,1/2+y,1/2-z
3 -x,-y,-z
4 1/2+x,1/2-y,1/2+z
_cell_length_a                   7.2949(4)
_cell_length_b                   18.2726(10)
_cell_length_c                   10.1245(6)
_cell_angle_alpha                90
_cell_angle_beta                 94.8910(10)
_cell_angle_gamma                90
_cell_volume                     1344.65
loop_
_atom_site_label
_atom_site_type_symbol
_atom_site_fract_x
_atom_site_fract_y
_atom_site_fract_z
Cu1 Cu 0.13367(4) 0.092481(14) 0.78286(3)
Cu2 Cu -0.05141(3) 0.068509(13) 1.06423(2)
S1 S 0.11398(7) 0.43351(3) 1.30376(5)
O1 O 0.0444(2) 0.16769(9) 1.08361(15)
O2 O 0.1330(2) 0.03499(8) 0.94713(15)
O3 O 0.3369(2) 0.50975(9) 0.83278(16)
O4 O 0.1158(2) 0.18455(9) 0.87281(16)
O5 O 0.1079(3) 0.51246(10) 1.29139(19)
O6 O 0.2950(2) 0.40928(9) 0.70322(17)
O7 O 0.2827(2) 0.40706(11) 1.37672(19)
O8 O -0.0481(2) 0.40195(10) 1.35716(17)
C1 C 0.1260(3) 0.39511(12) 1.1445(2)
C2 C 0.2169(3) 0.40243(11) 0.9230(2)
C3 C 0.1860(3) 0.32779(12) 0.9084(2)
H1 H 0.2079 0.3050 0.8291
C4 C 0.1224(3) 0.28642(12) 1.0109(2)
C5 C 0.0917(3) 0.20632(12) 0.9883(2)
C6 C 0.0912(3) 0.32004(12) 1.1300(2)
H2 H 0.0480 0.2932 1.1990
C7 C 0.1878(3) 0.43689(11) 1.0430(2)
H3 H 0.2095 0.4867 1.0543
C8 C 0.2873(3) 0.44445(12) 0.8112(2)
O9 O 0.1086(3) 0.15047(10) 0.61883(17)
Cu1B Cu -0.13367(4) -0.092481(14) 1.21714(3)
Cu1A Cu 0.36633(4) -0.407519(14) 0.71714(3)
Cu1A_2 Cu 0.36633(4) 0.592481(14) 0.71714(3)
Cu1C Cu -0.36633(4) -0.592481(14) 1.28286(3)
Cu1C_2 Cu -0.36633(4) 0.407519(14) 1.28286(3)
Cu2B Cu 0.05141(3) -0.068509(13) 0.93577(2)
Cu2A Cu -0.44859(3) -0.431491(13) 0.43577(2)
Cu2A_2 Cu -0.44859(3) -0.431491(13) 1.43577(2)
Cu2C Cu 0.44859(3) 0.431491(13) 0.56423(2)
Cu2C_2 Cu 0.44859(3) 0.431491(13) 1.56423(2)
S1B S -0.11398(7) -0.43351(3) 0.69624(5)
O1B O -0.0444(2) -0.16769(9) 0.91639(15)
O2B O -0.1330(2) -0.03499(8) 1.05287(15)
O3B O -0.3369(2) -0.50975(9) 1.16722(16)
O3A O 0.1631(2) 0.00975(9) 0.66722(16)
O3C O -0.1631(2) -0.00975(9) 1.33278(16)
O4B O -0.1158(2) -0.18455(9) 1.12719(16)
O5B O -0.1079(3) -0.51246(10) 0.70861(19)
O6B O -0.2950(2) -0.40928(9) 1.29678(17)
O6A O 0.2050(2) -0.09072(9) 0.79678(17)
O6C O -0.2050(2) 0.09072(9) 1.20322(17)
O7B O -0.2827(2) -0.40706(11) 0.62328(19)
O7A O 0.2173(2) -0.09294(11) 1.12328(19)
O7C O -0.2173(2) 0.09294(11) 0.87672(19)
O8B O 0.0481(2) -0.40195(10) 0.64284(17)
O8A O -0.4519(2) -0.09805(10) 1.14284(17)
O8C O 0.4519(2) 0.09805(10) 0.85716(17)
C1B C -0.1260(3) -0.39511(12) 0.8555(2)
C2B C -0.2169(3) -0.40243(11) 1.0770(2)
C3B C -0.1860(3) -0.32779(12) 1.0916(2)
H1B H -0.2079 -0.3050 1.1709
C4B C -0.1224(3) -0.28642(12) 0.9891(2)
C5B C -0.0917(3) -0.20632(12) 1.0117(2)
C6B C -0.0912(3) -0.32004(12) 0.8700(2)
H2B H -0.0480 -0.2932 0.8010
C7B C -0.1878(3) -0.43689(11) 0.9570(2)
H3B H -0.2095 -0.4867 0.9457
C8B C -0.2873(3) -0.44445(12) 1.1888(2)
O9B O -0.1086(3) -0.15047(10) 1.38117(17)
O10 O 0.0401(3) 0.29761(12) 0.5797(2)
O11 O 0.2017(3) 0.12428(14) 0.3582(2)
loop_
_geom_bond_atom_site_label_1
_geom_bond_atom_site_label_2
_geom_bond_site_symmetry_1
_geom_bond_site_symmetry_2
Cu1 O2 1_555 1_555
Cu2 O1 1_555 1_555
S1 O5 1_555 1_555
O1 C5 1_555 1_555
O2 Cu2 1_555 1_555
O3 C8 1_555 1_555
O4 Cu1 1_555 1_555
O6 C8 1_555 1_555
O7 S1 1_555 1_555
O8 S1 1_555 1_555
C1 S1 1_555 1_555
C2 C3 1_555 1_555
C3 H1 1_555 1_555
C4 C3 1_555 1_555
C5 O4 1_555 1_555
C6 C1 1_555 1_555
H2 C6 1_555 1_555
C7 C1 1_555 1_555
H3 C7 1_555 1_555
C8 C2 1_555 1_555
O9 Cu1 1_555 1_555
Cu1B O2B 1_555 1_555
Cu1A O8B 1_555 1_555
Cu1A_2 O3 1_555 1_555
Cu1C O3B 1_555 1_555
Cu1C_2 O8 1_555 1_555
Cu2B O2 1_555 1_555
Cu2A O7B 1_555 1_555
Cu2A_2 O6B 1_555 1_555
Cu2C O6 1_555 1_555
Cu2C_2 O7 1_555 1_555
S1B O5B 1_555 1_555
O1B Cu2B 1_555 1_555
O2B Cu2 1_555 1_555
O3B C8B 1_555 1_555
O3A Cu1 1_555 1_555
O3C Cu1B 1_555 1_555
O4B Cu1B 1_555 1_555
O6B C8B 1_555 1_555
O6A Cu2B 1_555 1_555
O6C Cu2 1_555 1_555
O7B S1B 1_555 1_555
O7A Cu2B 1_555 1_555
O7C Cu2 1_555 1_555
O8B S1B 1_555 1_555
O8A Cu1B 1_555 1_555
O8C Cu1 1_555 1_555
C1B S1B 1_555 1_555
C2B C3B 1_555 1_555
C3B H1B 1_555 1_555
C4B C3B 1_555 1_555
C5B O1B 1_555 1_555
C6B C1B 1_555 1_555
H2B C6B 1_555 1_555
C7B C1B 1_555 1_555
H3B C7B 1_555 1_555
C8B C2B 1_555 1_555
O9B Cu1B 1_555 1_555
C2 C7 1_555 1_555
C4 C5 1_555 1_555
C4 C6 1_555 1_555
Cu2B O2B 1_555 1_555
O4B C5B 1_555 1_555
C2B C7B 1_555 1_555
C4B C5B 1_555 1_555
C4B C6B 1_555 1_555

#END
