
#######################################################################
#
#                 Cambridge Crystallographic Data Centre
#                                CCDC 
#
#######################################################################
#
# If this CIF has been generated from an entry in the Cambridge 
# Structural Database, then it will include bibliographic, chemical, 
# crystal, experimental, refinement or atomic coordinate data resulting 
# from the CCDC's data processing and validation procedures.
#
#######################################################################

data_GINDEO
_symmetry_cell_setting           monoclinic
_symmetry_space_group_name_H-M   'P 21/n'
_symmetry_Int_Tables_number      14
_space_group_name_Hall           '-P 2yn'
loop_
_symmetry_equiv_pos_site_id
_symmetry_equiv_pos_as_xyz
1 x,y,z
2 1/2-x,1/2+y,1/2-z
3 -x,-y,-z
4 1/2+x,1/2-y,1/2+z
_cell_length_a                   11.0420(7)
_cell_length_b                   42.9060(10)
_cell_length_c                   15.604(3)
_cell_angle_alpha                90
_cell_angle_beta                 97.0040(10)
_cell_angle_gamma                90
_cell_volume                     7337.51
loop_
_atom_site_label
_atom_site_type_symbol
_atom_site_fract_x
_atom_site_fract_y
_atom_site_fract_z
C1 C -0.3622(4) 0.22628(12) 1.1862(3)
C2 C -0.4637(4) 0.22192(12) 1.1253(3)
H1 H -0.5382 0.2306 1.1343
C3 C -0.4545(4) 0.20484(12) 1.0518(3)
C4 C -0.3441(4) 0.19051(12) 1.0388(3)
H2 H -0.3382 0.1786 0.9897
C5 C -0.2444(4) 0.19448(13) 1.1003(4)
C6 C -0.2505(4) 0.21268(13) 1.1718(3)
H3 H -0.1810 0.2160 1.2107
C7 C -0.3699(5) 0.24566(12) 1.2650(3)
C8 C -0.5585(5) 0.20396(13) 0.9795(3)
C9 C -0.1171(5) 0.16102(15) 1.0262(4)
H4 H -0.1214 0.1729 0.9730
H5 H -0.1822 0.1457 1.0201
C10 C 0.0051(5) 0.14475(14) 1.0428(3)
C11 C 0.0158(5) 0.11396(16) 1.0237(4)
H6 H -0.0532 0.1029 1.0009
C12 C 0.1255(6) 0.09894(17) 1.0372(5)
H7 H 0.1292 0.0778 1.0242
C13 C 0.2292(5) 0.11399(16) 1.0691(4)
C14 C 0.2213(5) 0.14459(16) 1.0889(4)
H8 H 0.2917 0.1553 1.1105
C15 C 0.1081(5) 0.16066(14) 1.0776(4)
H9 H 0.1035 0.1815 1.0933
C16 C 0.3477(8) 0.0967(2) 1.0809(6)
C17 C 0.7387(5) 0.07404(14) 0.8708(4)
C18 C 0.6817(5) 0.09619(14) 0.8167(4)
H10 H 0.6328 0.1112 0.8384
C19 C 0.6965(5) 0.09639(14) 0.7300(4)
C20 C 0.7724(6) 0.07376(16) 0.6998(5)
H11 H 0.7829 0.0733 0.6416
C21 C 0.8312(6) 0.05233(16) 0.7547(5)
C22 C 0.8153(5) 0.05188(14) 0.8402(4)
H12 H 0.8547 0.0371 0.8772
C23 C 0.7154(5) 0.07255(15) 0.9643(4)
C24 C 0.6275(6) 0.11874(17) 0.6686(5)
C25 C 0.9438(8) 0.0308(2) 0.6435(6)
H13 H 0.9880 0.0501 0.6376
H14 H 0.8731 0.0306 0.6001
C26 C 1.0274(10) 0.0025(3) 0.6308(6)
C27 C 0.9625(12) -0.0268(2) 0.6113(7)
H15 H 0.8785 -0.0297 0.6079
C28 C 1.0557(11) -0.0519(2) 0.5976(7)
H16 H 1.0284 -0.0723 0.5888
C29 C 1.1775(10) -0.0461(2) 0.5974(5)
C30 C 1.2258(9) -0.0154(3) 0.6103(7)
H17 H 1.3088 -0.0122 0.6088
C31 C 1.1514(10) 0.0101(3) 0.6254(7)
H18 H 1.1811 0.0304 0.6313
C32 C 1.2529(10) -0.0728(3) 0.5755(7)
C33 C -0.8761(5) 0.24615(15) 1.0745(4)
H19 H -0.8016 0.2409 1.1055
C34 C -0.9656(6) 0.26066(16) 1.1070(4)
H20 H -0.9656 0.2671 1.1639
C35 C -1.1738(5) 0.27893(14) 1.0443(4)
C36 C -1.1867(6) 0.3020(2) 1.1002(5)
H21 H -1.1188 0.3099 1.1344
C37 C -1.3043(7) 0.3143(2) 1.1068(6)
H22 H -1.3147 0.3295 1.1477
C38 C -1.3998(6) 0.30399(16) 1.0544(5)
C39 C -1.6024(6) 0.30254(18) 1.1097(6)
H23 H -1.5875 0.2865 1.1496
C40 C -1.7078(6) 0.31802(17) 1.0900(6)
H24 H -1.7810 0.3129 1.1103
C41 C -1.5760(5) 0.33921(15) 1.0228(4)
H25 H -1.5376 0.3533 0.9897
C42 C -1.3874(5) 0.28047(16) 0.9952(4)
H26 H -1.4550 0.2734 0.9591
C43 C -1.2721(5) 0.26755(15) 0.9901(4)
H27 H -1.2619 0.2517 0.9510
C44 C -1.0199(5) 0.25081(13) 0.9701(4)
H28 H -1.0661 0.2494 0.9163
C45 C -0.9654(5) 0.16838(15) 0.8193(4)
H29 H -1.0353 0.1806 0.8091
C46 C -0.9580(6) 0.13885(16) 0.7985(5)
H30 H -1.0206 0.1266 0.7709
C47 C -0.7885(5) 0.09886(13) 0.8206(4)
C48 C -0.8551(5) 0.07292(15) 0.8344(5)
H31 H -0.9368 0.0749 0.8423
C49 C -0.8023(6) 0.04375(15) 0.8365(4)
H32 H -0.8479 0.0262 0.8464
C50 C -0.6808(5) 0.04089(14) 0.8238(5)
C51 C -0.6528(5) -0.01523(15) 0.8568(4)
H33 H -0.7288 -0.0176 0.8760
C52 C -0.5031(8) -0.0275(2) 0.7967(7)
H34 H -0.4470 -0.0399 0.7725
C53 C -0.5249(7) 0.0032(2) 0.7790(7)
H35 H -0.4852 0.0158 0.7428
C54 C -0.6130(6) 0.06687(15) 0.8075(6)
H36 H -0.5317 0.0649 0.7984
C55 C -0.6678(6) 0.09590(16) 0.8051(5)
H37 H -0.6237 0.1135 0.7930
C56 C -0.7824(5) 0.15409(13) 0.8617(4)
H38 H -0.7014 0.1540 0.8865
C57 C 0.6721(5) 0.13012(14) 1.2322(4)
H39 H 0.5929 0.1365 1.2376
C58 C 0.7742(5) 0.14312(14) 1.2738(4)
H40 H 0.7788 0.1600 1.3116
C59 C 0.9972(5) 0.13246(14) 1.2742(4)
C60 C 1.0338(5) 0.16273(16) 1.2942(4)
H41 H 0.9763 0.1786 1.2913
C61 C 1.1556(5) 0.16933(14) 1.3185(4)
H42 H 1.1805 0.1896 1.3323
C62 C 1.2396(5) 0.14568(13) 1.3222(3)
C63 C 1.4264(5) 0.17909(13) 1.3397(4)
H43 H 1.3959 0.1967 1.3095
C64 C 1.5397(5) 0.17525(14) 1.3816(4)
H44 H 1.6014 0.1901 1.3848
C65 C 1.4429(5) 0.13320(14) 1.3983(4)
H45 H 1.4236 0.1132 1.4151
C66 C 1.2032(5) 0.11520(15) 1.3010(4)
H46 H 1.2606 0.0993 1.3031
C67 C 1.0816(5) 0.10900(14) 1.2771(4)
H47 H 1.0566 0.0888 1.2628
C68 C 0.8235(5) 0.10445(15) 1.1936(4)
H48 H 0.8696 0.0899 1.1674
N1 N -0.8538(4) 0.17854(10) 0.8585(3)
N2 N -0.8404(4) 0.12926(11) 0.8250(3)
N3 N -0.6206(6) 0.01198(16) 0.8271(6)
N4 N -0.5804(4) -0.03774(12) 0.8589(4)
N5 N -0.9089(4) 0.23981(10) 0.9877(3)
N6 N -1.0591(4) 0.26448(11) 1.0404(3)
N7 N -1.5226(5) 0.31491(14) 1.0604(5)
N8 N -1.6926(4) 0.34162(11) 1.0374(3)
N9 N 0.7023(4) 0.10604(11) 1.1808(3)
N10 N 0.8703(4) 0.12624(11) 1.2486(3)
N11 N 1.3658(4) 0.15203(11) 1.3506(3)
N12 N 1.5504(4) 0.14664(11) 1.4185(3)
O1 O -0.2727(3) 0.25003(9) 1.3170(2)
O2 O -0.4696(3) 0.25748(8) 1.2775(2)
O3 O -0.6577(3) 0.21635(9) 0.9959(2)
O4 O -0.5450(3) 0.19185(11) 0.9108(3)
O5 O -0.1314(3) 0.18111(10) 1.0957(3)
O6 O 0.4366(5) 0.10827(14) 1.1119(4)
O7 O 0.3500(5) 0.06861(15) 1.0503(4)
O8 O 0.7834(4) 0.05686(12) 1.0183(3)
O9 O 0.6248(4) 0.08697(11) 0.9837(3)
O10 O 0.5869(5) 0.14281(13) 0.6949(3)
O11 O 0.6119(4) 0.11037(11) 0.5891(3)
O12 O 0.9064(5) 0.02904(14) 0.7267(4)
O13 O 1.3686(6) -0.06947(15) 0.5814(4)
O14 O 1.2088(5) -0.09552(13) 0.5524(4)
Zn1 Zn -0.80048(5) 0.220111(14) 0.90830(4)
Zn2 Zn 0.58068(5) 0.081738(15) 1.09997(4)
Zn3 Zn 1.31389(5) -0.125760(15) 0.50678(4)
N4B N 0.5804(4) 0.03774(12) 1.1411(4)
N8A N 1.1926(4) -0.15838(11) 0.4626(3)
N12B N 1.4496(4) -0.14664(11) 0.5815(3)
O1C O -0.7727(3) 0.24997(9) 0.8170(2)
O11B O 1.3881(4) -0.11037(11) 0.4109(3)
Zn1C Zn -0.30048(5) 0.279889(14) 1.40830(4)
Zn2B Zn -0.58068(5) -0.081738(15) 0.90003(4)
Zn3A Zn -1.81389(5) 0.374240(15) 0.99322(4)
Zn3B Zn 0.68611(5) 0.125760(15) 0.49322(4)
Zn3B_2 Zn 1.68611(5) 0.125760(15) 1.49322(4)
loop_
_geom_bond_atom_site_label_1
_geom_bond_atom_site_label_2
_geom_bond_site_symmetry_1
_geom_bond_site_symmetry_2
C1 C2 1_555 1_555
C2 H1 1_555 1_555
C3 C2 1_555 1_555
C4 C3 1_555 1_555
H2 C4 1_555 1_555
C5 C4 1_555 1_555
C6 C1 1_555 1_555
H3 C6 1_555 1_555
C7 C1 1_555 1_555
C8 C3 1_555 1_555
C9 H4 1_555 1_555
H5 C9 1_555 1_555
C10 C9 1_555 1_555
C11 C10 1_555 1_555
H6 C11 1_555 1_555
C12 C11 1_555 1_555
H7 C12 1_555 1_555
C13 C12 1_555 1_555
C14 C13 1_555 1_555
H8 C14 1_555 1_555
C15 C10 1_555 1_555
H9 C15 1_555 1_555
C16 C13 1_555 1_555
C17 C18 1_555 1_555
C18 H10 1_555 1_555
C19 C18 1_555 1_555
C20 C19 1_555 1_555
H11 C20 1_555 1_555
C21 C20 1_555 1_555
C22 C17 1_555 1_555
H12 C22 1_555 1_555
C23 C17 1_555 1_555
C24 C19 1_555 1_555
C25 H13 1_555 1_555
H14 C25 1_555 1_555
C26 C25 1_555 1_555
C27 C26 1_555 1_555
H15 C27 1_555 1_555
C28 C27 1_555 1_555
H16 C28 1_555 1_555
C29 C28 1_555 1_555
C30 C29 1_555 1_555
H17 C30 1_555 1_555
C31 C26 1_555 1_555
H18 C31 1_555 1_555
C32 C29 1_555 1_555
C33 H19 1_555 1_555
C34 C33 1_555 1_555
H20 C34 1_555 1_555
C35 C36 1_555 1_555
C36 H21 1_555 1_555
C37 C36 1_555 1_555
H22 C37 1_555 1_555
C38 C37 1_555 1_555
C39 H23 1_555 1_555
C40 C39 1_555 1_555
H24 C40 1_555 1_555
C41 H25 1_555 1_555
C42 C38 1_555 1_555
H26 C42 1_555 1_555
C43 C35 1_555 1_555
H27 C43 1_555 1_555
C44 H28 1_555 1_555
C45 H29 1_555 1_555
C46 C45 1_555 1_555
H30 C46 1_555 1_555
C47 C48 1_555 1_555
C48 H31 1_555 1_555
C49 C48 1_555 1_555
H32 C49 1_555 1_555
C50 C49 1_555 1_555
C51 H33 1_555 1_555
C52 H34 1_555 1_555
C53 C52 1_555 1_555
H35 C53 1_555 1_555
C54 C50 1_555 1_555
H36 C54 1_555 1_555
C55 C47 1_555 1_555
H37 C55 1_555 1_555
C56 H38 1_555 1_555
C57 H39 1_555 1_555
C58 C57 1_555 1_555
H40 C58 1_555 1_555
C59 C60 1_555 1_555
C60 H41 1_555 1_555
C61 C60 1_555 1_555
H42 C61 1_555 1_555
C62 C61 1_555 1_555
C63 H43 1_555 1_555
C64 C63 1_555 1_555
H44 C64 1_555 1_555
C65 H45 1_555 1_555
C66 C62 1_555 1_555
H46 C66 1_555 1_555
C67 C59 1_555 1_555
H47 C67 1_555 1_555
C68 H48 1_555 1_555
N1 C45 1_555 1_555
N2 C46 1_555 1_555
N3 C50 1_555 1_555
N4 C51 1_555 1_555
N5 C33 1_555 1_555
N6 C34 1_555 1_555
N7 C38 1_555 1_555
N8 C40 1_555 1_555
N9 C57 1_555 1_555
N10 C58 1_555 1_555
N11 C62 1_555 1_555
N12 C64 1_555 1_555
O1 C7 1_555 1_555
O2 C7 1_555 1_555
O3 C8 1_555 1_555
O4 C8 1_555 1_555
O5 C5 1_555 1_555
O6 C16 1_555 1_555
O7 C16 1_555 1_555
O8 C23 1_555 1_555
O9 C23 1_555 1_555
O10 C24 1_555 1_555
O11 C24 1_555 1_555
O12 C21 1_555 1_555
O13 C32 1_555 1_555
O14 C32 1_555 1_555
Zn1 N1 1_555 1_555
Zn2 N9 1_555 1_555
Zn3 O14 1_555 1_555
N4B Zn2 1_555 1_555
N8A Zn3 1_555 1_555
N12B Zn3 1_555 1_555
O1C Zn1 1_555 1_555
O11B Zn3 1_555 1_555
Zn1C O1 1_555 1_555
Zn2B N4 1_555 1_555
Zn3A N8 1_555 1_555
Zn3B O11 1_555 1_555
Zn3B_2 N12 1_555 1_555
C5 C6 1_555 1_555
C9 O5 1_555 1_555
C14 C15 1_555 1_555
C21 C22 1_555 1_555
C25 O12 1_555 1_555
C30 C31 1_555 1_555
C35 N6 1_555 1_555
C39 N7 1_555 1_555
C41 N7 1_555 1_555
C41 N8 1_555 1_555
C42 C43 1_555 1_555
C44 N5 1_555 1_555
C44 N6 1_555 1_555
C47 N2 1_555 1_555
C51 N3 1_555 1_555
C52 N4 1_555 1_555
C53 N3 1_555 1_555
C54 C55 1_555 1_555
C56 N1 1_555 1_555
C56 N2 1_555 1_555
C59 N10 1_555 1_555
C63 N11 1_555 1_555
C65 N11 1_555 1_555
C65 N12 1_555 1_555
C66 C67 1_555 1_555
C68 N9 1_555 1_555
C68 N10 1_555 1_555
N5 Zn1 1_555 1_555
O3 Zn1 1_555 1_555
O6 Zn2 1_555 1_555
O9 Zn2 1_555 1_555

#END
