
#######################################################################
#
#                 Cambridge Crystallographic Data Centre
#                                CCDC 
#
#######################################################################
#
# If this CIF has been generated from an entry in the Cambridge 
# Structural Database, then it will include bibliographic, chemical, 
# crystal, experimental, refinement or atomic coordinate data resulting 
# from the CCDC's data processing and validation procedures.
#
#######################################################################

data_GIPXIO
_symmetry_cell_setting           monoclinic
_symmetry_space_group_name_H-M   'P 2/n'
_symmetry_Int_Tables_number      13
_space_group_name_Hall           '-P 2yac'
loop_
_symmetry_equiv_pos_site_id
_symmetry_equiv_pos_as_xyz
1 x,y,z
2 1/2-x,y,1/2-z
3 -x,-y,-z
4 1/2+x,-y,1/2+z
_cell_length_a                   8.0460(16)
_cell_length_b                   5.7930(12)
_cell_length_c                   19.177(4)
_cell_angle_alpha                90
_cell_angle_beta                 97.46(3)
_cell_angle_gamma                90
_cell_volume                     886.283
loop_
_atom_site_label
_atom_site_type_symbol
_atom_site_fract_x
_atom_site_fract_y
_atom_site_fract_z
Zn1 Zn 0.7500 0.71176(6) 0.7500
O1 O 0.5604(2) 0.5035(3) 0.75591(9)
O2 O 0.4738(4) 0.7479(4) 0.83065(16)
N1 N 0.8468(2) 0.9316(3) 0.82916(9)
C1 C 0.4617(3) 0.5629(4) 0.79944(12)
C2 C 0.3251(3) 0.3950(5) 0.81273(13)
H1 H 0.2354 0.4815 0.8298
H2 H 0.3703 0.2905 0.8499
C3 C 0.2500 0.2515(6) 0.7500
H3 H 0.1634 0.1527 0.7645
C4 C 0.7536(3) 1.1076(5) 0.84699(13)
H4 H 0.6451 1.1225 0.8239
C5 C 0.8092(4) 1.2677(4) 0.89755(15)
H5 H 0.7392 1.3873 0.9079
C6 C 0.9718(3) 1.2497(4) 0.93336(12)
C7 C 1.0680(3) 1.0662(4) 0.91452(12)
H6 H 1.1768 1.0465 0.9367
C8 C 1.0025(3) 0.9131(4) 0.86289(12)
H7 H 1.0696 0.7921 0.8511
C9 C 1.0416(3) 1.4129(4) 0.98751(11)
H8 H 1.1533 1.3936 1.0061
O1A O -0.0604(2) 0.5035(3) 0.74409(9)
O2A O 0.0262(4) 0.7479(4) 0.66935(16)
C1A C 0.0383(3) 0.5629(4) 0.70056(12)
C2A C 0.1749(3) 0.3950(5) 0.68727(13)
H1A H 0.2646 0.4815 0.6702
H2A H 0.1297 0.2905 0.6501
H3A H 0.3366 0.1527 0.7355
N1B N 1.1532(2) 2.0684(3) 1.17084(9)
C4B C 1.2464(3) 1.8924(5) 1.15301(13)
H4B H 1.3549 1.8775 1.1761
C5B C 1.1908(4) 1.7323(4) 1.10245(15)
H5B H 1.2608 1.6127 1.0921
C6B C 1.0282(3) 1.7503(4) 1.06664(12)
C7B C 0.9320(3) 1.9338(4) 1.08548(12)
H6B H 0.8232 1.9535 1.0633
C8B C 0.9975(3) 2.0869(4) 1.13711(12)
H7B H 0.9304 2.2079 1.1489
C9B C 0.9584(3) 1.5871(4) 1.01249(11)
H8B H 0.8467 1.6064 0.9939
Zn1_2 Zn -0.2500 0.71176(6) 0.7500
Zn1B Zn 1.2500 2.28824(6) 1.2500
O1A_2 O 0.9396(2) 0.5035(3) 0.74409(9)
N1A N 0.6532(2) 0.9316(3) 0.67084(9)
O3 O 0.5012(6) 0.7538(7) 0.9768(2)
H9? H 0.1634 0.1527 0.7645
loop_
_geom_bond_atom_site_label_1
_geom_bond_atom_site_label_2
_geom_bond_site_symmetry_1
_geom_bond_site_symmetry_2
Zn1 O1 1_555 1_555
O1 C1 1_555 1_555
O2 C1 1_555 1_555
N1 Zn1 1_555 1_555
C1 C2 1_555 1_555
C2 H1 1_555 1_555
H2 C2 1_555 1_555
C3 C2 1_555 1_555
H3 C3 1_555 1_555
C4 N1 1_555 1_555
H4 C4 1_555 1_555
C5 C4 1_555 1_555
H5 C5 1_555 1_555
C6 C5 1_555 1_555
C7 C6 1_555 1_555
H6 C7 1_555 1_555
C8 N1 1_555 1_555
H7 C8 1_555 1_555
C9 C6 1_555 1_555
H8 C9 1_555 1_555
O1A C1A 1_555 1_555
O2A C1A 1_555 1_555
C1A C2A 1_555 1_555
C2A C3 1_555 1_555
H1A C2A 1_555 1_555
H2A C2A 1_555 1_555
H3A C3 1_555 1_555
N1B C4B 1_555 1_555
C4B H4B 1_555 1_555
C5B C4B 1_555 1_555
H5B C5B 1_555 1_555
C6B C5B 1_555 1_555
C7B C6B 1_555 1_555
H6B C7B 1_555 1_555
C8B N1B 1_555 1_555
H7B C8B 1_555 1_555
C9B C9 1_555 1_555
H8B C9B 1_555 1_555
Zn1_2 O1A 1_555 1_555
Zn1B N1B 1_555 1_555
O1A_2 Zn1 1_555 1_555
N1A Zn1 1_555 1_555
C7 C8 1_555 1_555
C6B C9B 1_555 1_555
C7B C8B 1_555 1_555

#END
