
#######################################################################
#
#                 Cambridge Crystallographic Data Centre
#                                CCDC 
#
#######################################################################
#
# If this CIF has been generated from an entry in the Cambridge 
# Structural Database, then it will include bibliographic, chemical, 
# crystal, experimental, refinement or atomic coordinate data resulting 
# from the CCDC's data processing and validation procedures.
#
#######################################################################

data_GIRYAJ
_symmetry_cell_setting           cubic
_symmetry_space_group_name_H-M   'P m -3 m'
_symmetry_Int_Tables_number      221
_space_group_name_Hall           '-P 4 2 3'
loop_
_symmetry_equiv_pos_site_id
_symmetry_equiv_pos_as_xyz
1 x,y,z
2 -y,x,z
3 -x,-y,z
4 y,-x,z
5 x,-y,-z
6 y,x,-z
7 -x,y,-z
8 -y,-x,-z
9 z,x,y
10 -x,z,y
11 -z,-x,y
12 x,-z,y
13 z,-x,-y
14 x,z,-y
15 -z,x,-y
16 -x,-z,-y
17 y,z,x
18 -z,-y,-x
19 -z,y,x
20 z,y,-x
21 z,-y,x
22 y,-z,-x
23 -y,-z,x
24 -y,z,-x
25 -x,-y,-z
26 y,-x,-z
27 x,y,-z
28 -y,x,-z
29 -x,y,z
30 -y,-x,z
31 x,-y,z
32 y,x,z
33 -z,-x,-y
34 x,-z,-y
35 z,x,-y
36 -x,z,-y
37 -z,x,y
38 -x,-z,y
39 z,-x,y
40 x,z,y
41 -y,-z,-x
42 z,y,x
43 z,-y,-x
44 -z,-y,x
45 -z,y,-x
46 -y,z,x
47 y,z,-x
48 y,-z,x
_cell_length_a                   20.4666(8)
_cell_length_b                   20.4666(8)
_cell_length_c                   20.4666(8)
_cell_angle_alpha                90
_cell_angle_beta                 90
_cell_angle_gamma                90
_cell_volume                     8573.08
loop_
_atom_site_label
_atom_site_type_symbol
_atom_site_fract_x
_atom_site_fract_y
_atom_site_fract_z
C1 C 0.3773(7) 0.7615(4) 0.7615(4)
C2 C 0.5000 0.9117(4) 0.9117(4)
C3 C 0.5000 0.8608(3) 0.8608(3)
C4 C 0.4407(4) 0.8356(3) 0.8356(3)
H1 H 0.4001 0.8515 0.8515
C5 C 0.4418(4) 0.7878(3) 0.7878(3)
C6 C 0.5000 0.7651(4) 0.7651(4)
H2 H 0.5000 0.7323 0.7323
O1 O 0.3275(4) 0.7826(3) 0.7826(3)
O2 O 0.3859(6) 0.7179(3) 0.7179(3)
O3 O 0.3283(5) 1.0000 1.0000
O4 O 0.4445(3) 0.93163(17) 0.93163(17)
O5 O 0.3917(5) 0.6083(5) 0.6083(5)
N1 N 0.1782(6) 0.8218(6) 0.8218(6)
Zn1 Zn 0.33696(3) 0.66304(3) 0.66304(3)
Zn2 Zn 0.42623(7) 1.0000 1.0000
Zn3 Zn 0.23581(5) 0.76419(5) 0.76419(5)
O6 O 0.2116(15) 0.7884(15) 0.866(2)
C1I C 0.6227(7) 0.7615(4) 0.7615(4)
C4I C 0.5593(4) 0.8356(3) 0.8356(3)
H1I H 0.5999 0.8515 0.8515
C5I C 0.5582(4) 0.7878(3) 0.7878(3)
O1I O 0.6725(4) 0.7826(3) 0.7826(3)
O2I O 0.6141(6) 0.7179(3) 0.7179(3)
O4I O 0.5555(3) 0.93163(17) 0.93163(17)
O6J O 0.134(2) 0.7884(15) 0.7884(15)
O6W O 0.2116(15) 0.866(2) 0.7884(15)
C1A C 0.2385(4) 0.3773(7) 0.7615(4)
C2A C 0.0883(4) 0.5000 0.9117(4)
C3A C 0.1392(3) 0.5000 0.8608(3)
C4A C 0.1644(3) 0.4407(4) 0.8356(3)
H1A H 0.1485 0.4001 0.8515
C5A C 0.2122(3) 0.4418(4) 0.7878(3)
C6A C 0.2349(4) 0.5000 0.7651(4)
H2A H 0.2677 0.5000 0.7323
O1A O 0.2174(3) 0.3275(4) 0.7826(3)
O2A O 0.2821(3) 0.3859(6) 0.7179(3)
O4A O 0.06837(17) 0.4445(3) 0.93163(17)
O5A O 0.3917(5) 0.3917(5) 0.6083(5)
N1A N 0.1782(6) 0.1782(6) 0.8218(6)
Zn1A Zn 0.33696(3) 0.33696(3) 0.66304(3)
Zn3A Zn 0.23581(5) 0.23581(5) 0.76419(5)
O6A O 0.2116(15) 0.2116(15) 0.866(2)
C1J C 0.2385(4) 0.6227(7) 0.7615(4)
C4J C 0.1644(3) 0.5593(4) 0.8356(3)
H1J H 0.1485 0.5999 0.8515
C5J C 0.2122(3) 0.5582(4) 0.7878(3)
O1J O 0.2174(3) 0.6725(4) 0.7826(3)
O2J O 0.2821(3) 0.6141(6) 0.7179(3)
O4J O 0.06837(17) 0.5555(3) 0.93163(17)
O6K O 0.2116(15) 0.134(2) 0.7884(15)
O6Q O 0.134(2) 0.2116(15) 0.7884(15)
C1B C 0.6227(7) 1.2385(4) 0.7615(4)
C2B C 0.5000 1.0883(4) 0.9117(4)
C3B C 0.5000 1.1392(3) 0.8608(3)
C4B C 0.5593(4) 1.1644(3) 0.8356(3)
H1B H 0.5999 1.1485 0.8515
C5B C 0.5582(4) 1.2122(3) 0.7878(3)
C6B C 0.5000 1.2349(4) 0.7651(4)
H2B H 0.5000 1.2677 0.7323
O1B O 0.6725(4) 1.2174(3) 0.7826(3)
O2B O 0.6141(6) 1.2821(3) 0.7179(3)
O3B O 0.6717(5) 1.0000 1.0000
O4B O 0.5555(3) 1.06837(17) 0.93163(17)
Zn2B Zn 0.57377(7) 1.0000 1.0000
C1K C 0.3773(7) 1.2385(4) 0.7615(4)
C4K C 0.4407(4) 1.1644(3) 0.8356(3)
H1K H 0.4001 1.1485 0.8515
C5K C 0.4418(4) 1.2122(3) 0.7878(3)
O1K O 0.3275(4) 1.2174(3) 0.7826(3)
O2K O 0.3859(6) 1.2821(3) 0.7179(3)
O4K O 0.4445(3) 1.06837(17) 0.93163(17)
C1C C -0.2385(4) 0.6227(7) 0.7615(4)
C2C C -0.0883(4) 0.5000 0.9117(4)
C3C C -0.1392(3) 0.5000 0.8608(3)
C4C C -0.1644(3) 0.5593(4) 0.8356(3)
H1C H -0.1485 0.5999 0.8515
C5C C -0.2122(3) 0.5582(4) 0.7878(3)
C6C C -0.2349(4) 0.5000 0.7651(4)
H2C H -0.2677 0.5000 0.7323
O1C O -0.2174(3) 0.6725(4) 0.7826(3)
O2C O -0.2821(3) 0.6141(6) 0.7179(3)
O3C O 0.0000 0.6717(5) 1.0000
O4C O -0.06837(17) 0.5555(3) 0.93163(17)
O5C O -0.3917(5) 0.6083(5) 0.6083(5)
N1C N -0.1782(6) 0.8218(6) 0.8218(6)
Zn1C Zn -0.33696(3) 0.66304(3) 0.66304(3)
Zn2C Zn 0.0000 0.57377(7) 1.0000
Zn3C Zn -0.23581(5) 0.76419(5) 0.76419(5)
O6C O -0.2116(15) 0.7884(15) 0.866(2)
C1H C -0.2385(4) 0.3773(7) 0.7615(4)
C4H C -0.1644(3) 0.4407(4) 0.8356(3)
H1H H -0.1485 0.4001 0.8515
C5H C -0.2122(3) 0.4418(4) 0.7878(3)
O1H O -0.2174(3) 0.3275(4) 0.7826(3)
O2H O -0.2821(3) 0.3859(6) 0.7179(3)
O4H O -0.06837(17) 0.4445(3) 0.93163(17)
O6I O -0.2116(15) 0.866(2) 0.7884(15)
O6S O -0.134(2) 0.7884(15) 0.7884(15)
C1O C 0.6227(7) 1.2385(4) 1.2385(4)
C2D C 0.5000 1.0883(4) 1.0883(4)
C3D C 0.5000 1.1392(3) 1.1392(3)
C4O C 0.5593(4) 1.1644(3) 1.1644(3)
H1O H 0.5999 1.1485 1.1485
C5O C 0.5582(4) 1.2122(3) 1.2122(3)
C6D C 0.5000 1.2349(4) 1.2349(4)
H2D H 0.5000 1.2677 1.2677
O1O O 0.6725(4) 1.2174(3) 1.2174(3)
O2O O 0.6141(6) 1.2821(3) 1.2821(3)
O4O O 0.5555(3) 1.06837(17) 1.06837(17)
C1D C 0.3773(7) 1.2385(4) 1.2385(4)
C4D C 0.4407(4) 1.1644(3) 1.1644(3)
H1D H 0.4001 1.1485 1.1485
C5D C 0.4418(4) 1.2122(3) 1.2122(3)
O1D O 0.3275(4) 1.2174(3) 1.2174(3)
O2D O 0.3859(6) 1.2821(3) 1.2821(3)
O4D O 0.4445(3) 1.06837(17) 1.06837(17)
C1M C 0.3773(7) 0.7615(4) 1.2385(4)
C2F C 0.5000 0.9117(4) 1.0883(4)
C3F C 0.5000 0.8608(3) 1.1392(3)
C4M C 0.4407(4) 0.8356(3) 1.1644(3)
H1M H 0.4001 0.8515 1.1485
C5M C 0.4418(4) 0.7878(3) 1.2122(3)
C6F C 0.5000 0.7651(4) 1.2349(4)
H2F H 0.5000 0.7323 1.2677
O1M O 0.3275(4) 0.7826(3) 1.2174(3)
O2M O 0.3859(6) 0.7179(3) 1.2821(3)
O4M O 0.4445(3) 0.93163(17) 1.06837(17)
C1F C 0.6227(7) 0.7615(4) 1.2385(4)
C4F C 0.5593(4) 0.8356(3) 1.1644(3)
H1F H 0.5999 0.8515 1.1485
C5F C 0.5582(4) 0.7878(3) 1.2122(3)
O1F O 0.6725(4) 0.7826(3) 1.2174(3)
O2F O 0.6141(6) 0.7179(3) 1.2821(3)
O4F O 0.5555(3) 0.93163(17) 1.06837(17)
N1C_2 N 0.8218(6) 0.8218(6) 0.8218(6)
Zn3C_2 Zn 0.76419(5) 0.76419(5) 0.76419(5)
O6C_2 O 0.7884(15) 0.7884(15) 0.866(2)
O6S_2 O 0.866(2) 0.7884(15) 0.7884(15)
O6I_2 O 0.7884(15) 0.866(2) 0.7884(15)
O5C_2 O 0.6083(5) 0.6083(5) 0.6083(5)
Zn1C_2 Zn 0.66304(3) 0.66304(3) 0.66304(3)
O1C_2 O 0.7826(3) 0.6725(4) 0.7826(3)
O1I_2 O -0.3275(4) 0.7826(3) 0.7826(3)
O1K_2 O 0.3275(4) 0.2174(3) 0.7826(3)
O1Q O 0.2174(3) 0.2174(3) 0.6725(4)
O1S O -0.2174(3) 0.7826(3) 0.6725(4)
O1S_2 O 0.7826(3) 0.7826(3) 0.6725(4)
O1W O 0.2174(3) 0.7826(3) 0.6725(4)
O2C_2 O 0.7179(3) 0.6141(6) 0.7179(3)
O2I_2 O -0.3859(6) 0.7179(3) 0.7179(3)
O2K_2 O 0.3859(6) 0.2821(3) 0.7179(3)
O2Q O 0.2821(3) 0.2821(3) 0.6141(6)
O2S O -0.2821(3) 0.7179(3) 0.6141(6)
O2S_2 O 0.7179(3) 0.7179(3) 0.6141(6)
O2W O 0.2821(3) 0.7179(3) 0.6141(6)
O4G O 0.06837(17) 0.5555(3) 1.06837(17)
O4L O -0.06837(17) 0.5555(3) 1.06837(17)
Zn1A_2 Zn 0.33696(3) 1.33696(3) 0.66304(3)
Zn1B Zn -0.33696(3) 0.33696(3) 0.66304(3)
Zn1B_2 Zn 0.66304(3) 1.33696(3) 0.66304(3)
Zn1D Zn 0.33696(3) 1.33696(3) 1.33696(3)
Zn1E Zn 0.66304(3) 1.33696(3) 1.33696(3)
Zn1F Zn 0.66304(3) 0.66304(3) 1.33696(3)
Zn1G Zn 0.33696(3) 0.66304(3) 1.33696(3)
Zn2A Zn 0.0000 0.42623(7) 1.0000
Zn3A_2 Zn 0.23581(5) 1.23581(5) 0.76419(5)
Zn3B Zn -0.23581(5) 0.23581(5) 0.76419(5)
Zn3B_2 Zn 0.76419(5) 1.23581(5) 0.76419(5)
Zn3D Zn 0.23581(5) 1.23581(5) 1.23581(5)
Zn3E Zn 0.76419(5) 1.23581(5) 1.23581(5)
Zn3F Zn 0.76419(5) 0.76419(5) 1.23581(5)
Zn3G Zn 0.23581(5) 0.76419(5) 1.23581(5)
loop_
_geom_bond_atom_site_label_1
_geom_bond_atom_site_label_2
_geom_bond_site_symmetry_1
_geom_bond_site_symmetry_2
C1 C5 1_555 1_555
C2 C3 1_555 1_555
C3 C4 1_555 1_555
C4 H1 1_555 1_555
C5 C4 1_555 1_555
C6 C5 1_555 1_555
H2 C6 1_555 1_555
O1 C1 1_555 1_555
O2 C1 1_555 1_555
O3 Zn2 1_555 1_555
O4 C2 1_555 1_555
O5 Zn1 1_555 1_555
N1 O6 1_555 1_555
Zn1 O2 1_555 1_555
Zn2 O4 1_555 1_555
Zn3 O1 1_555 1_555
O6 Zn3 1_555 1_555
C1I C5I 1_555 1_555
C4I C3 1_555 1_555
H1I C4I 1_555 1_555
C5I C6 1_555 1_555
O1I C1I 1_555 1_555
O2I C1I 1_555 1_555
O4I C2 1_555 1_555
O6J N1 1_555 1_555
O6W N1 1_555 1_555
C1A C5A 1_555 1_555
C2A C3A 1_555 1_555
C3A C4A 1_555 1_555
C4A H1A 1_555 1_555
C5A C4A 1_555 1_555
C6A C5A 1_555 1_555
H2A C6A 1_555 1_555
O1A C1A 1_555 1_555
O2A C1A 1_555 1_555
O4A C2A 1_555 1_555
O5A Zn1A 1_555 1_555
N1A O6A 1_555 1_555
Zn1A O2A 1_555 1_555
Zn3A O1A 1_555 1_555
O6A Zn3A 1_555 1_555
C1J C5J 1_555 1_555
C4J C3A 1_555 1_555
H1J C4J 1_555 1_555
C5J C6A 1_555 1_555
O1J Zn3 1_555 1_555
O2J Zn1 1_555 1_555
O4J C2A 1_555 1_555
O6K N1A 1_555 1_555
O6Q N1A 1_555 1_555
C1B C5B 1_555 1_555
C2B C3B 1_555 1_555
C3B C4B 1_555 1_555
C4B H1B 1_555 1_555
C5B C4B 1_555 1_555
C6B C5B 1_555 1_555
H2B C6B 1_555 1_555
O1B C1B 1_555 1_555
O2B C1B 1_555 1_555
O3B Zn2B 1_555 1_555
O4B C2B 1_555 1_555
Zn2B O4I 1_555 1_555
C1K C5K 1_555 1_555
C4K C3B 1_555 1_555
H1K C4K 1_555 1_555
C5K C6B 1_555 1_555
O1K C1K 1_555 1_555
O2K C1K 1_555 1_555
O4K Zn2 1_555 1_555
C1C C5C 1_555 1_555
C2C C3C 1_555 1_555
C3C C4C 1_555 1_555
C4C H1C 1_555 1_555
C5C C4C 1_555 1_555
C6C C5C 1_555 1_555
H2C C6C 1_555 1_555
O1C C1C 1_555 1_555
O2C C1C 1_555 1_555
O3C Zn2C 1_555 1_555
O4C C2C 1_555 1_555
O5C Zn1C 1_555 1_555
N1C O6C 1_555 1_555
Zn1C O2C 1_555 1_555
Zn2C O4J 1_555 1_555
Zn3C O1C 1_555 1_555
O6C Zn3C 1_555 1_555
C1H C5H 1_555 1_555
C4H C3C 1_555 1_555
H1H C4H 1_555 1_555
C5H C6C 1_555 1_555
O1H C1H 1_555 1_555
O2H C1H 1_555 1_555
O4H C2C 1_555 1_555
O6I N1C 1_555 1_555
O6S N1C 1_555 1_555
C1O C5O 1_555 1_555
C2D C3D 1_555 1_555
C3D C4O 1_555 1_555
C4O H1O 1_555 1_555
C5O C4O 1_555 1_555
C6D C5O 1_555 1_555
H2D C6D 1_555 1_555
O1O C1O 1_555 1_555
O2O C1O 1_555 1_555
O4O Zn2B 1_555 1_555
C1D C5D 1_555 1_555
C4D C3D 1_555 1_555
H1D C4D 1_555 1_555
C5D C6D 1_555 1_555
O1D C1D 1_555 1_555
O2D C1D 1_555 1_555
O4D Zn2 1_555 1_555
C1M C5M 1_555 1_555
C2F C3F 1_555 1_555
C3F C4M 1_555 1_555
C4M H1M 1_555 1_555
C5M C4M 1_555 1_555
C6F C5M 1_555 1_555
H2F C6F 1_555 1_555
O1M C1M 1_555 1_555
O2M C1M 1_555 1_555
O4M Zn2 1_555 1_555
C1F C5F 1_555 1_555
C4F C3F 1_555 1_555
H1F C4F 1_555 1_555
C5F C6F 1_555 1_555
O1F C1F 1_555 1_555
O2F C1F 1_555 1_555
O4F Zn2B 1_555 1_555
N1C_2 O6C_2 1_555 1_555
Zn3C_2 O1I 1_555 1_555
O6C_2 Zn3C_2 1_555 1_555
O6S_2 N1C_2 1_555 1_555
O6I_2 N1C_2 1_555 1_555
O5C_2 Zn1C_2 1_555 1_555
Zn1C_2 O2I 1_555 1_555
O1C_2 Zn3C_2 1_555 1_555
O1I_2 Zn3C 1_555 1_555
O1K_2 Zn3A 1_555 1_555
O1Q Zn3A 1_555 1_555
O1S Zn3C 1_555 1_555
O1S_2 Zn3C_2 1_555 1_555
O1W Zn3 1_555 1_555
O2C_2 Zn1C_2 1_555 1_555
O2I_2 Zn1C 1_555 1_555
O2K_2 Zn1A 1_555 1_555
O2Q Zn1A 1_555 1_555
O2S Zn1C 1_555 1_555
O2S_2 Zn1C_2 1_555 1_555
O2W Zn1 1_555 1_555
O4G Zn2C 1_555 1_555
O4L Zn2C 1_555 1_555
Zn1A_2 O2K 1_555 1_555
Zn1B O2H 1_555 1_555
Zn1B_2 O2B 1_555 1_555
Zn1D O2D 1_555 1_555
Zn1E O2O 1_555 1_555
Zn1F O2F 1_555 1_555
Zn1G O2M 1_555 1_555
Zn2A O4A 1_555 1_555
Zn3A_2 O1K 1_555 1_555
Zn3B O1H 1_555 1_555
Zn3B_2 O1B 1_555 1_555
Zn3D O1D 1_555 1_555
Zn3E O1O 1_555 1_555
Zn3F O1F 1_555 1_555
Zn3G O1M 1_555 1_555
Zn3 O6J 1_555 1_555
Zn3 O6W 1_555 1_555
C4I C5I 1_555 1_555
Zn3A O6K 1_555 1_555
Zn3A O6Q 1_555 1_555
C1J O1J 1_555 1_555
C1J O2J 1_555 1_555
C4J C5J 1_555 1_555
C2B O4K 1_555 1_555
O4B Zn2B 1_555 1_555
C4K C5K 1_555 1_555
O4C Zn2C 1_555 1_555
Zn3C O6I 1_555 1_555
Zn3C O6S 1_555 1_555
C4H C5H 1_555 1_555
O4H Zn2A 1_555 1_555
C2D O4O 1_555 1_555
C2D O4D 1_555 1_555
C4D C5D 1_555 1_555
C2F O4M 1_555 1_555
C2F O4F 1_555 1_555
C4F C5F 1_555 1_555
Zn3C_2 O6S_2 1_555 1_555
Zn3C_2 O6I_2 1_555 1_555

#END
