
#######################################################################
#
#                 Cambridge Crystallographic Data Centre
#                                CCDC 
#
#######################################################################
#
# If this CIF has been generated from an entry in the Cambridge 
# Structural Database, then it will include bibliographic, chemical, 
# crystal, experimental, refinement or atomic coordinate data resulting 
# from the CCDC's data processing and validation procedures.
#
#######################################################################

data_GISNED
_symmetry_cell_setting           rhombohedral
_symmetry_space_group_name_H-M   'R -3 c'
_symmetry_Int_Tables_number      167
_space_group_name_Hall           '-R 3 2"c'
loop_
_symmetry_equiv_pos_site_id
_symmetry_equiv_pos_as_xyz
1 x,y,z
2 -y,x-y,z
3 -x+y,-x,z
4 x-y,-y,1/2-z
5 -x,-x+y,1/2-z
6 y,x,1/2-z
7 2/3+x,1/3+y,1/3+z
8 2/3-y,1/3+x-y,1/3+z
9 2/3-x+y,1/3-x,1/3+z
10 2/3+x-y,1/3-y,5/6-z
11 2/3-x,1/3-x+y,5/6-z
12 2/3+y,1/3+x,5/6-z
13 1/3+x,2/3+y,2/3+z
14 1/3-y,2/3+x-y,2/3+z
15 1/3-x+y,2/3-x,2/3+z
16 1/3+x-y,2/3-y,1/6-z
17 1/3-x,2/3-x+y,1/6-z
18 1/3+y,2/3+x,1/6-z
19 -x,-y,-z
20 y,-x+y,-z
21 x-y,x,-z
22 -x+y,y,1/2+z
23 x,x-y,1/2+z
24 -y,-x,1/2+z
25 1/3-x,2/3-y,2/3-z
26 1/3+y,2/3-x+y,2/3-z
27 1/3+x-y,2/3+x,2/3-z
28 1/3-x+y,2/3+y,1/6+z
29 1/3+x,2/3+x-y,1/6+z
30 1/3-y,2/3-x,1/6+z
31 2/3-x,1/3-y,1/3-z
32 2/3+y,1/3-x+y,1/3-z
33 2/3+x-y,1/3+x,1/3-z
34 2/3-x+y,1/3+y,5/6+z
35 2/3+x,1/3+x-y,5/6+z
36 2/3-y,1/3-x,5/6+z
_cell_length_a                   26.669(3)
_cell_length_b                   26.669(3)
_cell_length_c                   86.622(4)
_cell_angle_alpha                90
_cell_angle_beta                 90
_cell_angle_gamma                120
_cell_volume                     53354.7
loop_
_atom_site_label
_atom_site_type_symbol
_atom_site_fract_x
_atom_site_fract_y
_atom_site_fract_z
Zn1 Zn 0.3333 0.6667 0.529185(5)
O1 O 0.3333 0.6667 0.50668(3)
O2 O 0.33200(10) 0.59867(11) 0.53763(3)
Zn2 Zn 0.325064(14) 0.594246(15) 0.499366(3)
C1 C 0.31947(17) 0.55263(18) 0.53081(5)
O3 O 0.31344(11) 0.54333(10) 0.51634(3)
O4 O 0.38755(12) 0.60967(13) 0.48524(3)
O5 O 0.25617(22) 0.55246(10) 0.48678(2)
C2 C 0.31893(15) 0.50529(19) 0.54008(4)
C3 C 0.33518(15) 0.51492(15) 0.55555(4)
C4 C 0.30127(16) 0.4520(2) 0.53411(4)
H1 H 0.3457 0.5505 0.5600
C5 C 0.33568(15) 0.4716(2) 0.56425(3)
H2 H 0.2903 0.4451 0.5238
C6 C 0.29900(15) 0.40813(15) 0.54274(4)
C7 C 0.31841(14) 0.41770(18) 0.55808(4)
H3 H 0.3479 0.4791 0.5745
H4 H 0.2844 0.3715 0.5384
O6 O 0.31741(9) 0.37293(9) 0.56540(2)
C8 C 0.35011(12) 0.38605(12) 0.57925(3)
C9 C 0.35569(16) 0.3333 0.5833
H5 H 0.3306 0.3942 0.5875
H6 H 0.3881 0.4198 0.5778
C10 C 0.37883(14) 0.31471(18) 0.56944(3)
O7 O 0.43110(11) 0.36415(15) 0.56477(2)
H7 H 0.3509 0.3011 0.5611
H8 H 0.3859 0.2837 0.5724
C11 C 0.4611(2) 0.35570(26) 0.55324(4)
C12 C 0.5120(2) 0.40517(27) 0.54899(4)
C13 C 0.44512(15) 0.30425(24) 0.54650(4)
H9 H 0.5224 0.4402 0.5538
C14 C 0.54693(16) 0.40271(25) 0.53780(5)
C15 C 0.4789(2) 0.30053(26) 0.53507(4)
H10 H 0.4113 0.2713 0.5496
C16 C 0.53060(19) 0.35032(26) 0.53047(4)
H11 H 0.5813 0.4358 0.5351
H12 H 0.4677 0.2652 0.5304
C17 C 0.5682(2) 0.34563(28) 0.51878(4)
O2A O 0.40133(11) 0.73333(15) 0.53763(3)
O2B O 0.26667(15) 0.66800(10) 0.53763(3)
Zn2A Zn 0.405754(15) 0.730818(21) 0.499366(3)
Zn2B Zn 0.269182(21) 0.674936(14) 0.499366(3)
C1A C 0.44737(18) 0.76684(25) 0.53081(5)
C1B C 0.23316(25) 0.68053(17) 0.53081(5)
O3A O 0.45667(10) 0.77011(15) 0.51634(3)
O4A O 0.39033(13) 0.77788(18) 0.48524(3)
O5A O 0.44754(10) 0.70371(24) 0.48678(2)
O3B O 0.22989(15) 0.68656(11) 0.51634(3)
O4B O 0.22212(18) 0.61245(12) 0.48524(3)
O5B O 0.29629(24) 0.74383(22) 0.48678(2)
C2A C 0.49471(19) 0.81364(24) 0.54008(4)
C2B C 0.18636(24) 0.68107(15) 0.54008(4)
C3A C 0.48508(15) 0.82026(21) 0.55555(4)
C4A C 0.5480(2) 0.84927(26) 0.53411(4)
C3B C 0.17974(21) 0.66482(15) 0.55555(4)
C4B C 0.15073(26) 0.69873(16) 0.53411(4)
H1A H 0.4495 0.7952 0.5600
C5A C 0.5284(2) 0.86408(25) 0.56425(3)
H2A H 0.5549 0.8452 0.5238
C6A C 0.59187(15) 0.89087(21) 0.54274(4)
H1B H 0.2048 0.6543 0.5600
C5B C 0.13592(25) 0.66432(15) 0.56425(3)
H2B H 0.1548 0.7097 0.5238
C6B C 0.10913(21) 0.70100(15) 0.54274(4)
C7A C 0.58230(18) 0.90071(23) 0.55808(4)
H3A H 0.5209 0.8688 0.5745
H4A H 0.6285 0.9129 0.5384
C7B C 0.09929(23) 0.68159(14) 0.55808(4)
H3B H 0.1312 0.6521 0.5745
H4B H 0.0871 0.7156 0.5384
O6A O 0.62707(9) 0.94448(13) 0.56540(2)
O6B O 0.05552(13) 0.68259(9) 0.56540(2)
C8A C 0.61395(12) 0.96406(17) 0.57925(3)
C8B C 0.03594(17) 0.64989(12) 0.57925(3)
C9A C 0.6667 1.02239(16) 0.5833
H5A H 0.6058 0.9364 0.5875
H6A H 0.5802 0.9683 0.5778
C9B C -0.02239(16) 0.64431(16) 0.5833
H5B H 0.0636 0.6694 0.5875
H6B H 0.0317 0.6119 0.5778
C8O C 0.29739(17) 0.28062(12) 0.58742(3)
C10O C 0.39745(23) 0.35196(18) 0.59723(3)
C10A C 0.68529(18) 1.06412(23) 0.56944(3)
C8Q C 0.71938(12) 1.01678(12) 0.58742(3)
C10Q C 0.64804(18) 1.04550(14) 0.59723(3)
C10B C -0.06412(23) 0.62117(14) 0.56944(3)
C8P C -0.01678(12) 0.70261(17) 0.58742(3)
C10P C -0.04550(14) 0.60255(23) 0.59723(3)
O6O O 0.27781(13) 0.29374(9) 0.60127(2)
H5O H 0.2697 0.2725 0.5792
H6O H 0.3016 0.2469 0.5889
O7O O 0.40028(19) 0.30252(15) 0.60190(2)
H7O H 0.3831 0.3656 0.6056
H8O H 0.4355 0.3830 0.5943
O7A O 0.63585(15) 1.06695(19) 0.56477(2)
H7A H 0.6989 1.0498 0.5611
H8A H 0.7163 1.1022 0.5724
O6Q O 0.70626(9) 0.98408(9) 0.60127(2)
H5Q H 0.7275 0.9973 0.5792
H6Q H 0.7531 1.0548 0.5889
O7Q O 0.69748(15) 1.09777(11) 0.60190(2)
H7Q H 0.6344 1.0176 0.6056
H8Q H 0.6170 1.0526 0.5943
O7B O -0.06695(19) 0.56890(11) 0.56477(2)
H7B H -0.0498 0.6491 0.5611
H8B H -0.1022 0.6141 0.5724
O6P O 0.01592(9) 0.72219(13) 0.60127(2)
H5P H 0.0027 0.7303 0.5792
H6P H -0.0548 0.6984 0.5889
O7P O -0.09777(11) 0.59972(19) 0.60190(2)
H7P H -0.0176 0.6169 0.6056
H8P H -0.0526 0.5645 0.5943
C7O C 0.23404(23) 0.24897(18) 0.60859(4)
C11O C 0.43873(33) 0.31097(26) 0.61343(4)
C11A C 0.64430(26) 1.10540(33) 0.55324(4)
C7Q C 0.75103(18) 0.98508(14) 0.60859(4)
C11Q C 0.68903(26) 1.1278(2) 0.61343(4)
C11B C -0.10540(33) 0.5389(2) 0.55324(4)
C7P C 0.01492(14) 0.76596(23) 0.60859(4)
C11P C -0.1278(2) 0.56127(33) 0.61343(4)
C5O C 0.19741(25) 0.1951(2) 0.60242(3)
C6O C 0.22420(21) 0.25854(15) 0.62393(4)
C12O C 0.44016(34) 0.26150(27) 0.61768(4)
C13O C 0.47420(28) 0.36242(24) 0.62017(4)
C12A C 0.59483(27) 1.10683(34) 0.54899(4)
C13A C 0.69575(24) 1.14087(28) 0.54650(4)
C5Q C 0.8049(2) 1.00235(15) 0.60242(3)
C6Q C 0.74146(15) 0.96567(15) 0.62393(4)
C12Q C 0.73850(27) 1.1787(2) 0.61768(4)
C13Q C 0.63758(24) 1.11179(15) 0.62017(4)
C12B C -0.10683(34) 0.4880(2) 0.54899(4)
C13B C -0.14087(28) 0.55488(15) 0.54650(4)
C5P C -0.00235(15) 0.80259(25) 0.60242(3)
C6P C 0.03433(15) 0.77580(21) 0.62393(4)
C12P C -0.1787(2) 0.55984(34) 0.61768(4)
C13P C -0.11179(15) 0.52580(28) 0.62017(4)
C3O C 0.15359(21) 0.15175(15) 0.61112(4)
H3O H 0.2021 0.1876 0.5922
C4O C 0.18260(26) 0.2147(2) 0.63256(4)
H4O H 0.2462 0.2952 0.6283
H9O H 0.4155 0.2265 0.6129
C14O C 0.47755(30) 0.26396(25) 0.62887(5)
C15O C 0.51170(33) 0.36614(26) 0.63160(4)
H10O H 0.4733 0.3954 0.6171
H9A H 0.5598 1.0822 0.5538
C14A C 0.59729(25) 1.14422(30) 0.53780(5)
C15A C 0.69947(26) 1.17837(33) 0.53507(4)
H10A H 0.7287 1.1400 0.5496
C3Q C 0.84825(15) 1.00185(15) 0.61112(4)
H3Q H 0.8124 1.0146 0.5922
C4Q C 0.7853(2) 0.96794(16) 0.63256(4)
H4Q H 0.7048 0.9511 0.6283
H9Q H 0.7735 1.1891 0.6129
C14Q C 0.73604(25) 1.21360(16) 0.62887(5)
C15Q C 0.63386(26) 1.1456(2) 0.63160(4)
H10Q H 0.6046 1.0780 0.6171
H9B H -0.0822 0.4776 0.5538
C14B C -0.14422(30) 0.45307(16) 0.53780(5)
C15B C -0.17837(33) 0.5211(2) 0.53507(4)
H10B H -0.1400 0.5887 0.5496
C3P C -0.00185(15) 0.84641(21) 0.61112(4)
H3P H -0.0146 0.7979 0.5922
C4P C 0.03206(16) 0.81740(26) 0.63256(4)
H4P H 0.0489 0.7538 0.6283
H9P H -0.1891 0.5845 0.6129
C14P C -0.21360(16) 0.52245(30) 0.62887(5)
C15P C -0.1456(2) 0.48830(33) 0.63160(4)
H10P H -0.0780 0.5267 0.6171
C2O C 0.14697(24) 0.16138(19) 0.62659(4)
H1O H 0.1285 0.1162 0.6067
H2O H 0.1785 0.2216 0.6429
C16O C 0.51361(32) 0.31635(26) 0.63620(4)
H11O H 0.4788 0.2309 0.6316
H12O H 0.5358 0.4015 0.6363
C16A C 0.64968(26) 1.18028(32) 0.53047(4)
H11A H 0.5642 1.1455 0.5351
H12A H 0.7348 1.2025 0.5304
C2Q C 0.83862(19) 0.98560(15) 0.62659(4)
H1Q H 0.8838 1.0124 0.6067
H2Q H 0.7784 0.9570 0.6429
C16Q C 0.68365(26) 1.19727(19) 0.63620(4)
H11Q H 0.7691 1.2480 0.6316
H12Q H 0.5985 1.1344 0.6363
C16B C -0.18028(32) 0.46940(19) 0.53047(4)
H11B H -0.1455 0.4187 0.5351
H12B H -0.2025 0.5323 0.5304
C2P C 0.01440(15) 0.85303(24) 0.62659(4)
H1P H -0.0124 0.8715 0.6067
H2P H 0.0430 0.8215 0.6429
C16P C -0.19727(19) 0.48639(32) 0.63620(4)
H11P H -0.2480 0.5212 0.6316
H12P H -0.1344 0.4642 0.6363
C1O C 0.10017(25) 0.11404(18) 0.63586(5)
C17O C 0.55590(34) 0.32104(28) 0.64789(4)
C17A C 0.65437(28) 1.22257(34) 0.51878(4)
C1Q C 0.88596(18) 0.98614(17) 0.63586(5)
C17Q C 0.67896(28) 1.2349(2) 0.64789(4)
C17B C -0.22257(34) 0.4318(2) 0.51878(4)
C1P C 0.01386(17) 0.89983(25) 0.63586(5)
C17P C -0.2349(2) 0.44410(34) 0.64789(4)
O4R O 0.61245(12) 0.39033(13) 0.51476(3)
O5S O 0.55246(10) 0.29629(24) 0.51322(2)
O2O O 0.06666(15) 0.06800(11) 0.62904(3)
O3O O 0.10344(15) 0.12334(10) 0.65033(3)
O4AA O 0.55545(18) 0.27634(13) 0.65191(3)
O5BA O 0.58950(22) 0.37038(24) 0.65345(2)
O4S O 0.60967(13) 1.22212(18) 0.51476(3)
O5T O 0.70371(24) 1.25617(22) 0.51322(2)
O2Q O 0.93200(11) 0.99867(10) 0.62904(3)
O3Q O 0.87666(10) 0.98011(11) 0.65033(3)
O4CA O 0.72366(13) 1.27912(12) 0.65191(3)
O5AA O 0.62962(24) 1.21913(10) 0.65345(2)
O4T O -0.22212(18) 0.38755(12) 0.51476(3)
O5R O -0.25617(22) 0.44754(10) 0.51322(2)
O2P O 0.00133(10) 0.93334(15) 0.62904(3)
O3P O 0.01989(11) 0.89656(15) 0.65033(3)
O4BA O -0.27912(12) 0.44455(18) 0.65191(3)
O5CA O -0.21913(10) 0.41050(22) 0.65345(2)
Zn2R Zn 0.674936(14) 0.405754(15) 0.500634(3)
Zn2S Zn 0.594246(15) 0.269182(21) 0.500634(3)
Zn1O Zn -0.0001 -0.0000 0.637482(5)
Zn2O Zn 0.064151(21) 0.072421(15) 0.667301(3)
Zn2AA Zn 0.602515(21) 0.260913(15) 0.666033(3)
Zn2BA Zn 0.658397(14) 0.397485(21) 0.666033(3)
Zn2S_2 Zn 0.594246(15) 1.269182(21) 0.500634(3)
Zn2T Zn 0.730818(21) 1.325064(14) 0.500634(3)
Zn1O_2 Zn 0.9999 1.0000 0.637482(5)
Zn2Q Zn 0.927579(15) 0.991731(14) 0.667301(3)
Zn2CA Zn 0.739087(15) 1.341603(14) 0.666033(3)
Zn2AA_2 Zn 0.602515(21) 1.260913(15) 0.666033(3)
Zn2T_2 Zn -0.269182(21) 0.325064(14) 0.500634(3)
Zn2R_2 Zn -0.325064(14) 0.405754(15) 0.500634(3)
Zn1O_3 Zn -0.0001 1.0000 0.637482(5)
Zn2P Zn 0.008269(14) 0.935849(21) 0.667301(3)
Zn2BA_2 Zn -0.341603(14) 0.397485(21) 0.666033(3)
Zn2CA_2 Zn -0.260913(15) 0.341603(14) 0.666033(3)
O1R O 0.6667 0.3333 0.49332(3)
O3R O 0.68656(11) 0.45667(10) 0.48366(3)
O5R_2 O 0.74383(22) 0.44754(10) 0.51322(2)
O3S O 0.54333(10) 0.22989(15) 0.48366(3)
O4S_2 O 0.60967(13) 0.22212(18) 0.51476(3)
O1R_2 O -0.3333 0.3333 0.49332(3)
O3T O -0.22989(15) 0.31344(11) 0.48366(3)
O5T_2 O -0.29629(24) 0.25617(22) 0.51322(2)
Zn1R Zn 0.6667 0.3333 0.470815(5)
Zn2T_3 Zn 0.730818(21) 0.325064(14) 0.500634(3)
O2R O 0.66800(10) 0.40133(11) 0.46237(3)
O2S O 0.59867(11) 0.26667(15) 0.46237(3)
O2T O 0.73333(15) 0.33200(10) 0.46237(3)
loop_
_geom_bond_atom_site_label_1
_geom_bond_atom_site_label_2
_geom_bond_site_symmetry_1
_geom_bond_site_symmetry_2
Zn1 O1 1_555 1_555
O1 Zn2 1_555 1_555
O2 Zn1 1_555 1_555
Zn2 O3 1_555 1_555
C1 O2 1_555 1_555
O3 C1 1_555 1_555
O4 Zn2 1_555 1_555
O5 Zn2 1_555 1_555
C2 C1 1_555 1_555
C3 C2 1_555 1_555
C4 C2 1_555 1_555
H1 C3 1_555 1_555
C5 C3 1_555 1_555
H2 C4 1_555 1_555
C6 C4 1_555 1_555
C7 C5 1_555 1_555
H3 C5 1_555 1_555
H4 C6 1_555 1_555
O6 C7 1_555 1_555
C8 O6 1_555 1_555
C9 C8 1_555 1_555
H5 C8 1_555 1_555
H6 C8 1_555 1_555
C10 C9 1_555 1_555
O7 C10 1_555 1_555
H7 C10 1_555 1_555
H8 C10 1_555 1_555
C11 O7 1_555 1_555
C12 C11 1_555 1_555
C13 C11 1_555 1_555
H9 C12 1_555 1_555
C14 C12 1_555 1_555
C15 C13 1_555 1_555
H10 C13 1_555 1_555
C16 C14 1_555 1_555
H11 C14 1_555 1_555
H12 C15 1_555 1_555
C17 C16 1_555 1_555
O2A Zn1 1_555 1_555
O2B Zn1 1_555 1_555
Zn2A O1 1_555 1_555
Zn2B O1 1_555 1_555
C1A O2A 1_555 1_555
C1B O2B 1_555 1_555
O3A Zn2A 1_555 1_555
O4A Zn2A 1_555 1_555
O5A Zn2A 1_555 1_555
O3B Zn2B 1_555 1_555
O4B Zn2B 1_555 1_555
O5B Zn2B 1_555 1_555
C2A C1A 1_555 1_555
C2B C1B 1_555 1_555
C3A C2A 1_555 1_555
C4A C2A 1_555 1_555
C3B C2B 1_555 1_555
C4B C2B 1_555 1_555
H1A C3A 1_555 1_555
C5A C3A 1_555 1_555
H2A C4A 1_555 1_555
C6A C4A 1_555 1_555
H1B C3B 1_555 1_555
C5B C3B 1_555 1_555
H2B C4B 1_555 1_555
C6B C4B 1_555 1_555
C7A C5A 1_555 1_555
H3A C5A 1_555 1_555
H4A C6A 1_555 1_555
C7B C5B 1_555 1_555
H3B C5B 1_555 1_555
H4B C6B 1_555 1_555
O6A C7A 1_555 1_555
O6B C7B 1_555 1_555
C8A O6A 1_555 1_555
C8B O6B 1_555 1_555
C9A C8A 1_555 1_555
H5A C8A 1_555 1_555
H6A C8A 1_555 1_555
C9B C8B 1_555 1_555
H5B C8B 1_555 1_555
H6B C8B 1_555 1_555
C8O C9 1_555 1_555
C10O C9 1_555 1_555
C10A C9A 1_555 1_555
C8Q C9A 1_555 1_555
C10Q C9A 1_555 1_555
C10B C9B 1_555 1_555
C8P C9B 1_555 1_555
C10P C9B 1_555 1_555
O6O C8O 1_555 1_555
H5O C8O 1_555 1_555
H6O C8O 1_555 1_555
O7O C10O 1_555 1_555
H7O C10O 1_555 1_555
H8O C10O 1_555 1_555
O7A C10A 1_555 1_555
H7A C10A 1_555 1_555
H8A C10A 1_555 1_555
O6Q C8Q 1_555 1_555
H5Q C8Q 1_555 1_555
H6Q C8Q 1_555 1_555
O7Q C10Q 1_555 1_555
H7Q C10Q 1_555 1_555
H8Q C10Q 1_555 1_555
O7B C10B 1_555 1_555
H7B C10B 1_555 1_555
H8B C10B 1_555 1_555
O6P C8P 1_555 1_555
H5P C8P 1_555 1_555
H6P C8P 1_555 1_555
O7P C10P 1_555 1_555
H7P C10P 1_555 1_555
H8P C10P 1_555 1_555
C7O O6O 1_555 1_555
C11O O7O 1_555 1_555
C11A O7A 1_555 1_555
C7Q O6Q 1_555 1_555
C11Q O7Q 1_555 1_555
C11B O7B 1_555 1_555
C7P O6P 1_555 1_555
C11P O7P 1_555 1_555
C5O C7O 1_555 1_555
C6O C7O 1_555 1_555
C12O C11O 1_555 1_555
C13O C11O 1_555 1_555
C12A C11A 1_555 1_555
C13A C11A 1_555 1_555
C5Q C7Q 1_555 1_555
C6Q C7Q 1_555 1_555
C12Q C11Q 1_555 1_555
C13Q C11Q 1_555 1_555
C12B C11B 1_555 1_555
C13B C11B 1_555 1_555
C5P C7P 1_555 1_555
C6P C7P 1_555 1_555
C12P C11P 1_555 1_555
C13P C11P 1_555 1_555
C3O C5O 1_555 1_555
H3O C5O 1_555 1_555
C4O C6O 1_555 1_555
H4O C6O 1_555 1_555
H9O C12O 1_555 1_555
C14O C12O 1_555 1_555
C15O C13O 1_555 1_555
H10O C13O 1_555 1_555
H9A C12A 1_555 1_555
C14A C12A 1_555 1_555
C15A C13A 1_555 1_555
H10A C13A 1_555 1_555
C3Q C5Q 1_555 1_555
H3Q C5Q 1_555 1_555
C4Q C6Q 1_555 1_555
H4Q C6Q 1_555 1_555
H9Q C12Q 1_555 1_555
C14Q C12Q 1_555 1_555
C15Q C13Q 1_555 1_555
H10Q C13Q 1_555 1_555
H9B C12B 1_555 1_555
C14B C12B 1_555 1_555
C15B C13B 1_555 1_555
H10B C13B 1_555 1_555
C3P C5P 1_555 1_555
H3P C5P 1_555 1_555
C4P C6P 1_555 1_555
H4P C6P 1_555 1_555
H9P C12P 1_555 1_555
C14P C12P 1_555 1_555
C15P C13P 1_555 1_555
H10P C13P 1_555 1_555
C2O C3O 1_555 1_555
H1O C3O 1_555 1_555
H2O C4O 1_555 1_555
C16O C14O 1_555 1_555
H11O C14O 1_555 1_555
H12O C15O 1_555 1_555
C16A C14A 1_555 1_555
H11A C14A 1_555 1_555
H12A C15A 1_555 1_555
C2Q C3Q 1_555 1_555
H1Q C3Q 1_555 1_555
H2Q C4Q 1_555 1_555
C16Q C14Q 1_555 1_555
H11Q C14Q 1_555 1_555
H12Q C15Q 1_555 1_555
C16B C14B 1_555 1_555
H11B C14B 1_555 1_555
H12B C15B 1_555 1_555
C2P C3P 1_555 1_555
H1P C3P 1_555 1_555
H2P C4P 1_555 1_555
C16P C14P 1_555 1_555
H11P C14P 1_555 1_555
H12P C15P 1_555 1_555
C1O C2O 1_555 1_555
C17O C16O 1_555 1_555
C17A C16A 1_555 1_555
C1Q C2Q 1_555 1_555
C17Q C16Q 1_555 1_555
C17B C16B 1_555 1_555
C1P C2P 1_555 1_555
C17P C16P 1_555 1_555
O4R C17 1_555 1_555
O5S C17 1_555 1_555
O2O C1O 1_555 1_555
O3O C1O 1_555 1_555
O4AA C17O 1_555 1_555
O5BA C17O 1_555 1_555
O4S C17A 1_555 1_555
O5T C17A 1_555 1_555
O2Q C1Q 1_555 1_555
O3Q C1Q 1_555 1_555
O4CA C17Q 1_555 1_555
O5AA C17Q 1_555 1_555
O4T C17B 1_555 1_555
O5R C17B 1_555 1_555
O2P C1P 1_555 1_555
O3P C1P 1_555 1_555
O4BA C17P 1_555 1_555
O5CA C17P 1_555 1_555
Zn2R O4R 1_555 1_555
Zn2S O5S 1_555 1_555
Zn1O O2O 1_555 1_555
Zn2O O3O 1_555 1_555
Zn2AA O4AA 1_555 1_555
Zn2BA O5BA 1_555 1_555
Zn2S_2 O4S 1_555 1_555
Zn2T O5T 1_555 1_555
Zn1O_2 O2Q 1_555 1_555
Zn2Q O3Q 1_555 1_555
Zn2CA O4CA 1_555 1_555
Zn2AA_2 O5AA 1_555 1_555
Zn2T_2 O4T 1_555 1_555
Zn2R_2 O5R 1_555 1_555
Zn1O_3 O2P 1_555 1_555
Zn2P O3P 1_555 1_555
Zn2BA_2 O4BA 1_555 1_555
Zn2CA_2 O5CA 1_555 1_555
O1R Zn2R 1_555 1_555
O3R Zn2R 1_555 1_555
O5R_2 Zn2R 1_555 1_555
O3S Zn2S 1_555 1_555
O4S_2 Zn2S 1_555 1_555
O1R_2 Zn2T_2 1_555 1_555
O3T Zn2T_2 1_555 1_555
O5T_2 Zn2T_2 1_555 1_555
Zn1R O1R 1_555 1_555
Zn2T_3 O1R 1_555 1_555
O2R Zn1R 1_555 1_555
O2S Zn1R 1_555 1_555
O2T Zn1R 1_555 1_555
C6 C7 1_555 1_555
C15 C16 1_555 1_555
C1A O3A 1_555 1_555
C1B O3B 1_555 1_555
C6A C7A 1_555 1_555
C6B C7B 1_555 1_555
C4O C2O 1_555 1_555
C15O C16O 1_555 1_555
C15A C16A 1_555 1_555
C4Q C2Q 1_555 1_555
C15Q C16Q 1_555 1_555
C15B C16B 1_555 1_555
C4P C2P 1_555 1_555
C15P C16P 1_555 1_555
Zn2S O1R 1_555 1_555
Zn2R_2 O1R_2 1_555 1_555

#END
