
#######################################################################
#
#                 Cambridge Crystallographic Data Centre
#                                CCDC 
#
#######################################################################
#
# If this CIF has been generated from an entry in the Cambridge 
# Structural Database, then it will include bibliographic, chemical, 
# crystal, experimental, refinement or atomic coordinate data resulting 
# from the CCDC's data processing and validation procedures.
#
#######################################################################

data_GITPIK
_symmetry_cell_setting           monoclinic
_symmetry_space_group_name_H-M   'C 2/c'
_symmetry_Int_Tables_number      15
_space_group_name_Hall           '-C 2yn'
loop_
_symmetry_equiv_pos_site_id
_symmetry_equiv_pos_as_xyz
1 x,y,z
2 -x,y,1/2-z
3 1/2+x,1/2+y,z
4 1/2-x,1/2+y,1/2-z
5 -x,-y,-z
6 x,-y,1/2+z
7 1/2-x,1/2-y,-z
8 1/2+x,1/2-y,1/2+z
_cell_length_a                   29.542(8)
_cell_length_b                   7.3171(18)
_cell_length_c                   35.757(10)
_cell_angle_alpha                90
_cell_angle_beta                 98.761(5)
_cell_angle_gamma                90
_cell_volume                     7639.11
loop_
_atom_site_label
_atom_site_type_symbol
_atom_site_fract_x
_atom_site_fract_y
_atom_site_fract_z
Zn1 Zn 0.290319(10) 0.53787(4) 0.184661(8)
Zn2 Zn 0.452353(11) 0.55492(6) 0.218456(9)
N1 N 0.28702(7) 0.3503(3) 0.08155(6)
N2 N 0.20889(8) 0.3637(3) 0.05142(6)
N3 N 0.22737(7) 0.2462(3) 0.11433(6)
N4 N 0.27061(8) 0.4538(3) 0.02145(6)
H1 H 0.3000 0.4526 0.0238
N5 N 0.15232(8) 0.2606(4) 0.08259(6)
H2 H 0.1358 0.2752 0.0608
N6 N 0.30241(7) 0.2469(3) 0.14381(6)
O1 O 0.22721(8) 0.8274(3) -0.13884(5)
O2 O 0.15496(8) 0.7689(4) -0.13208(6)
O3 O 0.00290(7) 0.0733(3) 0.18823(6)
O4 O 0.06676(7) 0.0689(3) 0.23149(6)
O5 O 0.35405(7) 0.4531(3) 0.19897(5)
O6 O 0.41908(7) 0.3610(3) 0.18238(6)
O7 O 0.24067(8) 0.0558(3) 0.21514(6)
O8 O 0.25260(7) 0.3460(3) 0.20251(5)
O9 O 0.28544(8) 0.7221(3) 0.22500(6)
O10 O 0.41515(8) 0.7709(3) 0.19237(7)
O11 O 0.5000 0.3123(5) 0.2500
O12 O 0.5000 0.8243(6) 0.2500
C1 C 0.27150(9) 0.2821(3) 0.11143(7)
C2 C 0.25380(9) 0.3877(3) 0.05209(7)
C3 C 0.19821(9) 0.2909(4) 0.08357(7)
C4 C 0.24901(10) 0.5234(4) -0.01316(7)
C5 C 0.27864(10) 0.5887(4) -0.03707(8)
H3 H 0.3101 0.5801 -0.0296
C6 C 0.26167(11) 0.6656(4) -0.07151(7)
H4 H 0.2818 0.7096 -0.0870
C7 C 0.21459(10) 0.6779(4) -0.08321(7)
C8 C 0.18544(10) 0.6095(4) -0.05969(8)
H5 H 0.1540 0.6150 -0.0675
C9 C 0.20192(10) 0.5329(4) -0.02469(8)
H6 H 0.1818 0.4886 -0.0092
C10 C 0.19659(11) 0.7640(4) -0.12045(7)
C11 C 0.12815(9) 0.2092(4) 0.11192(7)
C12 C 0.08090(10) 0.1838(5) 0.10249(8)
H7 H 0.0672 0.1932 0.0774
C13 C 0.05440(10) 0.1449(5) 0.13021(8)
H8 H 0.0229 0.1309 0.1235
C14 C 0.07400(9) 0.1263(4) 0.16786(7)
C15 C 0.12094(10) 0.1487(5) 0.17697(8)
H9 H 0.1347 0.1351 0.2020
C16 C 0.14781(10) 0.1909(5) 0.14962(8)
H10 H 0.1792 0.2071 0.1565
C17 C 0.04580(9) 0.0864(4) 0.19827(8)
C18 C 0.35116(9) 0.2647(4) 0.14304(7)
H11 H 0.3558 0.3296 0.1203
H12 H 0.3645 0.1439 0.1421
C19 C 0.37569(9) 0.3663(4) 0.17742(7)
C20 C 0.28849(9) 0.1097(3) 0.16965(7)
H13 H 0.3159 0.0564 0.1838
H14 H 0.2723 0.0129 0.1546
C21 C 0.25843(9) 0.1769(3) 0.19756(7)
Zn1A Zn 0.709681(10) 0.53787(4) 0.315339(8)
Zn2A Zn 0.547647(11) 0.55492(6) 0.281544(9)
N1A N 0.71298(7) 0.3503(3) 0.41845(6)
N2A N 0.79111(8) 0.3637(3) 0.44858(6)
N3A N 0.77263(7) 0.2462(3) 0.38567(6)
N4A N 0.72939(8) 0.4538(3) 0.47855(6)
H1A H 0.7000 0.4526 0.4762
N5A N 0.84768(8) 0.2606(4) 0.41741(6)
H2A H 0.8642 0.2752 0.4392
N6A N 0.69759(7) 0.2469(3) 0.35619(6)
O1A O 0.77279(8) 0.8274(3) 0.63884(5)
O2A O 0.84504(8) 0.7689(4) 0.63208(6)
O3A O 0.99710(7) 0.0733(3) 0.31177(6)
O4A O 0.93324(7) 0.0689(3) 0.26851(6)
O5A O 0.64595(7) 0.4531(3) 0.30103(5)
O6A O 0.58092(7) 0.3610(3) 0.31762(6)
O7A O 0.75933(8) 0.0558(3) 0.28486(6)
O8A O 0.74740(7) 0.3460(3) 0.29749(5)
O9A O 0.71456(8) 0.7221(3) 0.27500(6)
O10A O 0.58485(8) 0.7709(3) 0.30763(7)
C1A C 0.72850(9) 0.2821(3) 0.38857(7)
C2A C 0.74620(9) 0.3877(3) 0.44791(7)
C3A C 0.80179(9) 0.2909(4) 0.41643(7)
C4A C 0.75099(10) 0.5234(4) 0.51316(7)
C5A C 0.72136(10) 0.5887(4) 0.53707(8)
H3A H 0.6899 0.5801 0.5296
C6A C 0.73833(11) 0.6656(4) 0.57151(7)
H4A H 0.7182 0.7096 0.5870
C7A C 0.78541(10) 0.6779(4) 0.58321(7)
C8A C 0.81456(10) 0.6095(4) 0.55969(8)
H5A H 0.8460 0.6150 0.5675
C9A C 0.79808(10) 0.5329(4) 0.52469(8)
H6A H 0.8182 0.4886 0.5092
C10A C 0.80341(11) 0.7640(4) 0.62045(7)
C11A C 0.87185(9) 0.2092(4) 0.38808(7)
C12A C 0.91910(10) 0.1838(5) 0.39751(8)
H7A H 0.9328 0.1932 0.4226
C13A C 0.94560(10) 0.1449(5) 0.36979(8)
H8A H 0.9771 0.1309 0.3765
C14A C 0.92600(9) 0.1263(4) 0.33214(7)
C15A C 0.87906(10) 0.1487(5) 0.32303(8)
H9A H 0.8653 0.1351 0.2980
C16A C 0.85219(10) 0.1909(5) 0.35038(8)
H10A H 0.8208 0.2071 0.3435
C17A C 0.95420(9) 0.0864(4) 0.30173(8)
C18A C 0.64884(9) 0.2647(4) 0.35696(7)
H11A H 0.6442 0.3296 0.3797
H12A H 0.6355 0.1439 0.3579
C19A C 0.62431(9) 0.3663(4) 0.32258(7)
C20A C 0.71151(9) 0.1097(3) 0.33035(7)
H13A H 0.6841 0.0564 0.3162
H14A H 0.7277 0.0129 0.3454
C21A C 0.74157(9) 0.1769(3) 0.30244(7)
Zn1F Zn 0.209681(10) 0.96213(4) -0.184661(8)
Zn1G Zn 0.790319(10) 0.96213(4) 0.684661(8)
Zn2B Zn -0.047647(11) 0.05492(6) 0.218456(9)
Zn2B_2 Zn 0.952353(11) 0.05492(6) 0.218456(9)
Zn2C Zn 0.047647(11) 0.05492(6) 0.281544(9)
Zn2C_2 Zn 1.047647(11) 0.05492(6) 0.281544(9)
O1F O 0.27279(8) 0.6726(3) 0.13884(5)
O1G O 0.72721(8) 0.6726(3) 0.36116(5)
O3B O 0.50290(7) 0.5733(3) 0.18823(6)
O3C O 0.49710(7) 0.5733(3) 0.31177(6)
O4B O 0.56676(7) 0.5689(3) 0.23149(6)
O4C O 0.43324(7) 0.5689(3) 0.26851(6)
N7 N 0.10044(16) -0.3544(6) 0.17270(13)
O13 O 0.04346(9) -0.4232(4) 0.20358(8)
C22 C 0.08326(16) -0.3967(6) 0.20050(16)
C23 C 0.12404(19) -0.4125(9) 0.23657(15)
H15 H 0.1182 -0.3340 0.2572
H16 H 0.1278 -0.5374 0.2456
C24 C 0.1635(2) -0.3519(12) 0.2208(2)
H17 H 0.1884 -0.4387 0.2270
H18 H 0.1737 -0.2345 0.2315
C25 C 0.15160(15) -0.3345(7) 0.17754(15)
H19 H 0.1606 -0.2167 0.1687
H20 H 0.1656 -0.4310 0.1646
C26 C 0.07481(19) -0.3413(7) 0.13712(13)
H21 H 0.0429 -0.3556 0.1390
H22 H 0.0840 -0.4354 0.1211
H23 H 0.0797 -0.2238 0.1265
N8 N 0.4463(3) -0.0695(13) 0.0240(3)
O14 O 0.40813(12) 0.1631(7) -0.00988(9)
C27 C 0.4236(2) 0.0004(14) -0.0020(2)
C28 C 0.4124(4) -0.1641(14) -0.0309(2)
H24 H 0.3805 -0.2000 -0.0328
H25 H 0.4186 -0.1301 -0.0558
C29 C 0.4421(8) -0.311(2) -0.0154(5)
H26 H 0.4662 -0.3309 -0.0306
H27 H 0.4250 -0.4230 -0.0144
C30 C 0.4631(4) -0.2451(17) 0.0258(3)
H28 H 0.4516 -0.3165 0.0452
H29 H 0.4963 -0.2479 0.0298
C31 C 0.4596(4) 0.045(2) 0.0600(3)
H30 H 0.4454 0.1628 0.0566
H31 H 0.4923 0.0592 0.0648
H32 H 0.4495 -0.0160 0.0810
O15 O 0.45930(10) 0.0365(4) 0.15884(9)
O16 O 0.37170(14) 0.4520(8) 0.02939(14)
O17 O 0.07919(19) 0.9274(8) -0.10271(13)
loop_
_geom_bond_atom_site_label_1
_geom_bond_atom_site_label_2
_geom_bond_site_symmetry_1
_geom_bond_site_symmetry_2
Zn1 O5 1_555 1_555
Zn2 O6 1_555 1_555
N1 C1 1_555 1_555
N2 C2 1_555 1_555
N3 C1 1_555 1_555
N4 H1 1_555 1_555
N5 H2 1_555 1_555
N6 C1 1_555 1_555
O1 C10 1_555 1_555
O2 C10 1_555 1_555
O3 C17 1_555 1_555
O4 C17 1_555 1_555
O5 C19 1_555 1_555
O6 C19 1_555 1_555
O7 C21 1_555 1_555
O8 Zn1 1_555 1_555
O9 Zn1 1_555 1_555
O10 Zn2 1_555 1_555
O11 Zn2 1_555 1_555
O12 Zn2 1_555 1_555
C2 N1 1_555 1_555
C3 N2 1_555 1_555
C4 N4 1_555 1_555
C5 C4 1_555 1_555
H3 C5 1_555 1_555
C6 C5 1_555 1_555
H4 C6 1_555 1_555
C7 C6 1_555 1_555
C8 C7 1_555 1_555
H5 C8 1_555 1_555
C9 C4 1_555 1_555
H6 C9 1_555 1_555
C10 C7 1_555 1_555
C11 N5 1_555 1_555
C12 C11 1_555 1_555
H7 C12 1_555 1_555
C13 C12 1_555 1_555
H8 C13 1_555 1_555
C14 C13 1_555 1_555
C15 C14 1_555 1_555
H9 C15 1_555 1_555
C16 C11 1_555 1_555
H10 C16 1_555 1_555
C17 C14 1_555 1_555
C18 N6 1_555 1_555
H11 C18 1_555 1_555
H12 C18 1_555 1_555
C19 C18 1_555 1_555
C20 N6 1_555 1_555
H13 C20 1_555 1_555
H14 C20 1_555 1_555
C21 O8 1_555 1_555
N7 C22 1_555 1_555
O13 C22 1_555 1_555
C22 C23 1_555 1_555
C23 H15 1_555 1_555
H16 C23 1_555 1_555
C24 C23 1_555 1_555
H17 C24 1_555 1_555
H18 C24 1_555 1_555
C25 N7 1_555 1_555
H19 C25 1_555 1_555
H20 C25 1_555 1_555
C26 N7 1_555 1_555
H21 C26 1_555 1_555
H22 C26 1_555 1_555
H23 C26 1_555 1_555
N8 C27 1_555 1_555
O14 C27 1_555 1_555
C27 C28 1_555 1_555
C28 H24 1_555 1_555
H25 C28 1_555 1_555
C29 C28 1_555 1_555
H26 C29 1_555 1_555
H27 C29 1_555 1_555
C30 N8 1_555 1_555
H28 C30 1_555 1_555
H29 C30 1_555 1_555
C31 N8 1_555 1_555
H30 C31 1_555 1_555
H31 C31 1_555 1_555
H32 C31 1_555 1_555
Zn1A O5A 1_555 1_555
Zn2A O11 1_555 1_555
N1A C1A 1_555 1_555
N2A C2A 1_555 1_555
N3A C1A 1_555 1_555
N4A H1A 1_555 1_555
N5A H2A 1_555 1_555
N6A C1A 1_555 1_555
O1A C10A 1_555 1_555
O2A C10A 1_555 1_555
O3A C17A 1_555 1_555
O4A C17A 1_555 1_555
O5A C19A 1_555 1_555
O6A Zn2A 1_555 1_555
O7A C21A 1_555 1_555
O8A Zn1A 1_555 1_555
O9A Zn1A 1_555 1_555
O10A Zn2A 1_555 1_555
C2A N1A 1_555 1_555
C3A N2A 1_555 1_555
C4A N4A 1_555 1_555
C5A C4A 1_555 1_555
H3A C5A 1_555 1_555
C6A C5A 1_555 1_555
H4A C6A 1_555 1_555
C7A C6A 1_555 1_555
C8A C7A 1_555 1_555
H5A C8A 1_555 1_555
C9A C4A 1_555 1_555
H6A C9A 1_555 1_555
C10A C7A 1_555 1_555
C11A N5A 1_555 1_555
C12A C11A 1_555 1_555
H7A C12A 1_555 1_555
C13A C12A 1_555 1_555
H8A C13A 1_555 1_555
C14A C13A 1_555 1_555
C15A C14A 1_555 1_555
H9A C15A 1_555 1_555
C16A C11A 1_555 1_555
H10A C16A 1_555 1_555
C17A C14A 1_555 1_555
C18A N6A 1_555 1_555
H11A C18A 1_555 1_555
H12A C18A 1_555 1_555
C19A O6A 1_555 1_555
C20A N6A 1_555 1_555
H13A C20A 1_555 1_555
H14A C20A 1_555 1_555
C21A O8A 1_555 1_555
Zn1F O1 1_555 1_555
Zn1G O1A 1_555 1_555
Zn2B O3 1_555 1_555
Zn2B_2 O4A 1_555 1_555
Zn2C O4 1_555 1_555
Zn2C_2 O3A 1_555 1_555
O1F Zn1 1_555 1_555
O1G Zn1A 1_555 1_555
O3B Zn2 1_555 1_555
O3C Zn2A 1_555 1_555
O4B Zn2A 1_555 1_555
O4C Zn2 1_555 1_555
N3 C3 1_555 1_555
N4 C2 1_555 1_555
N5 C3 1_555 1_555
O12 Zn2A 1_555 1_555
C8 C9 1_555 1_555
C15 C16 1_555 1_555
C20 C21 1_555 1_555
C24 C25 1_555 1_555
C29 C30 1_555 1_555
N3A C3A 1_555 1_555
N4A C2A 1_555 1_555
N5A C3A 1_555 1_555
C8A C9A 1_555 1_555
C15A C16A 1_555 1_555
C18A C19A 1_555 1_555
C20A C21A 1_555 1_555

#END
