
#######################################################################
#
#                 Cambridge Crystallographic Data Centre
#                                CCDC 
#
#######################################################################
#
# If this CIF has been generated from an entry in the Cambridge 
# Structural Database, then it will include bibliographic, chemical, 
# crystal, experimental, refinement or atomic coordinate data resulting 
# from the CCDC's data processing and validation procedures.
#
#######################################################################

data_GIVHIC
_symmetry_cell_setting           rhombohedral
_symmetry_space_group_name_H-M   'R -3 c'
_symmetry_Int_Tables_number      167
_space_group_name_Hall           '-R 3 2"c'
loop_
_symmetry_equiv_pos_site_id
_symmetry_equiv_pos_as_xyz
1 x,y,z
2 -y,x-y,z
3 y,x,1/2-z
4 -x+y,-x,z
5 -x,-x+y,1/2-z
6 x-y,-y,1/2-z
7 1/3+x,2/3+y,2/3+z
8 1/3-y,2/3+x-y,2/3+z
9 1/3+y,2/3+x,1/6-z
10 1/3-x+y,2/3-x,2/3+z
11 1/3-x,2/3-x+y,1/6-z
12 1/3+x-y,2/3-y,1/6-z
13 2/3+x,1/3+y,1/3+z
14 2/3-y,1/3+x-y,1/3+z
15 2/3+y,1/3+x,5/6-z
16 2/3-x+y,1/3-x,1/3+z
17 2/3-x,1/3-x+y,5/6-z
18 2/3+x-y,1/3-y,5/6-z
19 -x,-y,-z
20 y,-x+y,-z
21 -y,-x,1/2+z
22 x-y,x,-z
23 x,x-y,1/2+z
24 -x+y,y,1/2+z
25 2/3-x,1/3-y,1/3-z
26 2/3+y,1/3-x+y,1/3-z
27 2/3-y,1/3-x,5/6+z
28 2/3+x-y,1/3+x,1/3-z
29 2/3+x,1/3+x-y,5/6+z
30 2/3-x+y,1/3+y,5/6+z
31 1/3-x,2/3-y,2/3-z
32 1/3+y,2/3-x+y,2/3-z
33 1/3-y,2/3-x,1/6+z
34 1/3+x-y,2/3+x,2/3-z
35 1/3+x,2/3+x-y,1/6+z
36 1/3-x+y,2/3+y,1/6+z
_cell_length_a                   15.914(1)
_cell_length_b                   15.914(1)
_cell_length_c                   35.966(5)
_cell_angle_alpha                90
_cell_angle_beta                 90
_cell_angle_gamma                120.00
_cell_volume                     7888.26
loop_
_atom_site_label
_atom_site_type_symbol
_atom_site_fract_x
_atom_site_fract_y
_atom_site_fract_z
Cl1 Cl -0.0797(8) 0.2641(6) -0.0866(5)
O1 O -0.1465(13) 0.2861(13) -0.1031(6)
O2 O -0.0748(13) 0.1947(12) -0.1096(7)
O3 O 0.0118(6) 0.3451(6) -0.0833
O4 O -0.1104(15) 0.2261(15) -0.0507(6)
Cl1N Cl -0.0692(6) 0.2536(8) -0.0801(5)
O1N O -0.0472(13) 0.1868(13) -0.0636(6)
O2N O -0.1386(12) 0.2585(13) -0.0571(7)
O4N O -0.1072(15) 0.2229(15) -0.1160(6)
C7 C -0.2551(20) 0.3277(19) -0.1438(7)
O5 O -0.3333 0.3333 -0.1582(7)
C7C C -0.4172(28) 0.2551(20) -0.1438(7)
O5DA O -0.3334 0.3334 -0.1751(7)
C7GA C -0.2495(28) 0.4116(20) -0.1895(7)
C7A C -0.3277(19) 0.4172(28) -0.1438(7)
C7EA C -0.3390(19) 0.2495(28) -0.1895(7)
C7DA C -0.4116(20) 0.3390(19) -0.1895(7)
C8 C -0.3333 0.3333 -0.0534(22)
N2 N -0.3079(13) 0.4009(15) -0.0609(5)
O8 O -0.3676(26) 0.4315(28) -0.0689(10)
O9 O -0.2191(16) 0.4704(19) -0.0582(8)
N2A N -0.4009(15) 0.2912(20) -0.0609(5)
N2C N -0.2912(20) 0.3079(13) -0.0609(5)
O8A O -0.4315(28) 0.2009(38) -0.0689(10)
O9A O -0.4704(19) 0.3105(25) -0.0582(8)
O8C O -0.2009(38) 0.3676(26) -0.0689(10)
O9C O -0.3105(25) 0.2191(16) -0.0582(8)
Ni1 Ni 0.3333 0.6667 -0.0833
S1 S -0.1972(1) 0.3952(1) 0.0392(1)
N1 N -0.0346(3) 0.3895(3) 0.0286(1)
C1 C -0.1309(3) 0.3367(3) 0.0380(1)
C2 C -0.1686(4) 0.2381(4) 0.0452(2)
C3 C -0.1122(5) 0.1962(5) 0.0432(2)
C4 C -0.0144(5) 0.2512(6) 0.0334(2)
C5 C 0.0222(5) 0.3482(5) 0.0262(2)
C6 C 0.0109(4) 0.4933(4) 0.0202(2)
H1 H -0.2337(4) 0.2001(4) 0.0516(2)
H2 H -0.1391(5) 0.1304(5) 0.0483(2)
H3 H 0.0247(5) 0.2231(6) 0.0318(2)
H4 H 0.0871(5) 0.3864(5) 0.0196(2)
H5 H 0.0805(4) 0.5241(4) 0.0239(2)
H6 H -0.0141(4) 0.5235(4) 0.0369(2)
C6R C -0.0109(4) 0.5067(4) -0.0202(2)
N1R N 0.0346(3) 0.6105(3) -0.0286(1)
C1R C 0.1309(3) 0.6633(3) -0.0380(1)
S1R S 0.1972(1) 0.6048(1) -0.0392(1)
Ni1R Ni -0.3333 0.3333 0.0833
S1S S 0.3952(1) 0.5924(1) -0.0392(1)
C1S C 0.3367(3) 0.4676(4) -0.0380(1)
N1S N 0.3895(3) 0.4241(4) -0.0286(1)
C5S C 0.3482(5) 0.3260(7) -0.0262(2)
C4S C 0.2512(6) 0.2656(8) -0.0334(2)
C3S C 0.1962(5) 0.3084(7) -0.0432(2)
C2S C 0.2381(4) 0.4067(6) -0.0452(2)
H1S H 0.2001(4) 0.4338(6) -0.0516(2)
H2S H 0.1304(5) 0.2695(7) -0.0483(2)
H3S H 0.2231(6) 0.1984(8) -0.0318(2)
H4S H 0.3864(5) 0.2993(7) -0.0196(2)
C6S C 0.4933(4) 0.4824(6) -0.0202(2)
C6A C 0.5067(4) 0.5176(6) 0.0202(2)
N1A N 0.6105(3) 0.5759(4) 0.0286(1)
C1A C 0.6633(3) 0.5324(4) 0.0380(1)
S1A S 0.6048(1) 0.4076(1) 0.0392(1)
Ni1R_2 Ni 0.6667 0.3333 0.0833
Ni1Z Ni -0.0000 0.0000 -0.2500
S1N S 0.0619(1) 0.1361(1) -0.2059(1)
C1N C 0.0034(3) 0.2024(3) -0.2047(1)
N1N N 0.0562(3) 0.2987(3) -0.1953(1)
C5N C 0.0149(5) 0.3555(5) -0.1929(2)
C4N C -0.0821(6) 0.3189(5) -0.2001(2)
C3N C -0.1371(5) 0.2211(5) -0.2099(2)
C2N C -0.0952(4) 0.1647(4) -0.2119(2)
H1N H -0.1332(4) 0.0996(4) -0.2183(2)
H2N H -0.2029(5) 0.1942(5) -0.2150(2)
H3N H -0.1102(6) 0.3580(5) -0.1985(2)
H4N H 0.0531(5) 0.4204(5) -0.1863(2)
C6N C 0.1600(4) 0.3442(4) -0.1869(2)
C2A C 0.7619(4) 0.5933(6) 0.0452(2)
C3A C 0.8038(5) 0.6916(7) 0.0432(2)
C4A C 0.7488(6) 0.7344(8) 0.0334(2)
C5A C 0.6518(5) 0.6740(7) 0.0262(2)
H4A H 0.6136(5) 0.7007(7) 0.0196(2)
H3A H 0.7769(6) 0.8016(8) 0.0318(2)
H2A H 0.8696(5) 0.7305(7) 0.0483(2)
H1A H 0.7999(4) 0.5662(6) 0.0516(2)
H5A H 0.4759(4) 0.5564(6) 0.0239(2)
H6A H 0.4765(4) 0.4624(6) 0.0369(2)
H5S H 0.5241(4) 0.4436(6) -0.0239(2)
H6S H 0.5235(4) 0.5376(6) -0.0369(2)
S1U S 0.4076(1) 0.8028(1) -0.0392(1)
S1Z S 0.2715(1) 0.5305(1) -0.1275(1)
C1Z C 0.3300(3) 0.4642(3) -0.1287(1)
N1Z N 0.2772(3) 0.3679(3) -0.1381(1)
C5Z C 0.3185(5) 0.3111(5) -0.1405(2)
C4Z C 0.4155(6) 0.3477(5) -0.1333(2)
C3Z C 0.4705(5) 0.4455(5) -0.1235(2)
C2Z C 0.4286(4) 0.5019(4) -0.1215(2)
H1Z H 0.4666(4) 0.5670(4) -0.1151(2)
H2Z H 0.5363(5) 0.4724(5) -0.1184(2)
H3Z H 0.4436(6) 0.3086(5) -0.1349(2)
H4Z H 0.2803(5) 0.2462(5) -0.1471(2)
C6Z C 0.1734(4) 0.3224(4) -0.1465(2)
S1BA S 0.4695(1) 0.7409(1) -0.1275(1)
S1CA S 0.2591(1) 0.7285(1) -0.1275(1)
C2R C 0.1686(4) 0.7619(4) -0.0452(2)
C3R C 0.1122(5) 0.8038(5) -0.0432(2)
C4R C 0.0144(5) 0.7488(6) -0.0334(2)
C5R C -0.0222(5) 0.6518(5) -0.0262(2)
H4R H -0.0871(5) 0.6136(5) -0.0196(2)
H3R H -0.0247(5) 0.7769(6) -0.0318(2)
H2R H 0.1391(5) 0.8696(5) -0.0483(2)
H1R H 0.2337(4) 0.7999(4) -0.0516(2)
H5R H -0.0805(4) 0.4759(4) -0.0239(2)
H6R H 0.0141(4) 0.4765(4) -0.0369(2)
H5Z H 0.1426(4) 0.2528(4) -0.1428(2)
H6Z H 0.1432(4) 0.3474(4) -0.1298(2)
H5N H 0.1908(4) 0.4138(4) -0.1906(2)
H6N H 0.1902(4) 0.3192(4) -0.2036(2)
O6? O 0.6977(35) 0.3615(45) 0.8333(22)
O7? O 0.6667 0.3333 0.9891(5)
C9? C 0.6614(36) 0.2944(23) 0.9431(27)
loop_
_geom_bond_atom_site_label_1
_geom_bond_atom_site_label_2
_geom_bond_site_symmetry_1
_geom_bond_site_symmetry_2
Ni1 S1R 1_555 1_555
S1 C1 1_555 1_555
N1 C1 1_555 1_555
C1 C2 1_555 1_555
C2 C3 1_555 1_555
C3 C4 1_555 1_555
C4 C5 1_555 1_555
C5 N1 1_555 1_555
C6 N1 1_555 1_555
Cl1 O1 1_555 1_555
O1 Cl1N 1_555 1_555
O2 Cl1 1_555 1_555
O3 Cl1 1_555 1_555
O4 Cl1 1_555 1_555
C7 O5 1_555 1_555
O5 C7C 1_555 1_555
C8 N2 1_555 1_555
N2 O8 1_555 1_555
O9 N2 1_555 1_555
H1 C2 1_555 1_555
H2 C3 1_555 1_555
H3 C4 1_555 1_555
H4 C5 1_555 1_555
H5 C6 1_555 1_555
H6 C6 1_555 1_555
C6R C6 1_555 1_555
N1R C6R 1_555 1_555
C1R N1R 1_555 1_555
S1R C1R 1_555 1_555
Ni1R S1 1_555 1_555
S1S Ni1 1_555 1_555
C1S S1S 1_555 1_555
N1S C1S 1_555 1_555
C5S N1S 1_555 1_555
C4S C5S 1_555 1_555
C3S C4S 1_555 1_555
C2S C1S 1_555 1_555
H1S C2S 1_555 1_555
H2S C3S 1_555 1_555
H3S C4S 1_555 1_555
H4S C5S 1_555 1_555
C6S N1S 1_555 1_555
C6A C6S 1_555 1_555
N1A C6A 1_555 1_555
C1A N1A 1_555 1_555
S1A C1A 1_555 1_555
Ni1R_2 S1A 1_555 1_555
Ni1Z S1N 1_555 1_555
S1N C1N 1_555 1_555
C1N N1N 1_555 1_555
N1N C5N 1_555 1_555
C5N C4N 1_555 1_555
C4N C3N 1_555 1_555
C3N C2N 1_555 1_555
C2N C1N 1_555 1_555
H1N C2N 1_555 1_555
H2N C3N 1_555 1_555
H3N C4N 1_555 1_555
H4N C5N 1_555 1_555
C6N N1N 1_555 1_555
C2A C1A 1_555 1_555
C3A C2A 1_555 1_555
C4A C3A 1_555 1_555
C5A N1A 1_555 1_555
H4A C5A 1_555 1_555
H3A C4A 1_555 1_555
H2A C3A 1_555 1_555
H1A C2A 1_555 1_555
H5A C6A 1_555 1_555
H6A C6A 1_555 1_555
H5S C6S 1_555 1_555
H6S C6S 1_555 1_555
S1U Ni1 1_555 1_555
S1Z Ni1 1_555 1_555
C1Z S1Z 1_555 1_555
N1Z C1Z 1_555 1_555
C5Z N1Z 1_555 1_555
C4Z C5Z 1_555 1_555
C3Z C4Z 1_555 1_555
C2Z C1Z 1_555 1_555
H1Z C2Z 1_555 1_555
H2Z C3Z 1_555 1_555
H3Z C4Z 1_555 1_555
H4Z C5Z 1_555 1_555
C6Z C6N 1_555 1_555
S1BA Ni1 1_555 1_555
S1CA Ni1 1_555 1_555
C2R C1R 1_555 1_555
C3R C2R 1_555 1_555
C4R C3R 1_555 1_555
C5R N1R 1_555 1_555
H4R C5R 1_555 1_555
H3R C4R 1_555 1_555
H2R C3R 1_555 1_555
H1R C2R 1_555 1_555
H5R C6R 1_555 1_555
H6R C6R 1_555 1_555
Cl1N Cl1 1_555 1_555
O1N Cl1 1_555 1_555
O2N Cl1 1_555 1_555
O4N Cl1 1_555 1_555
C7C O5DA 1_555 1_555
O5DA C7 1_555 1_555
C7GA O5 1_555 1_555
C7A O5 1_555 1_555
C7EA O5 1_555 1_555
C7DA O5 1_555 1_555
N2A C8 1_555 1_555
N2C C8 1_555 1_555
O8A N2A 1_555 1_555
O9A N2A 1_555 1_555
O8C N2C 1_555 1_555
O9C N2C 1_555 1_555
H5Z C6Z 1_555 1_555
H6Z C6Z 1_555 1_555
H5N C6N 1_555 1_555
H6N C6N 1_555 1_555
O1 O4N 1_555 1_555
O1 O2N 1_555 1_555
O2 Cl1N 1_555 1_555
O2 O1N 1_555 1_555
O2 O4N 1_555 1_555
O3 Cl1N 1_555 1_555
O4 Cl1N 1_555 1_555
O4 O2N 1_555 1_555
O4 O1N 1_555 1_555
O5 O5DA 1_555 1_555
N2 N2A 1_555 1_555
N2 N2C 1_555 1_555
C3S C2S 1_555 1_555
C4A C5A 1_555 1_555
N1Z C6Z 1_555 1_555
C3Z C2Z 1_555 1_555
C4R C5R 1_555 1_555
Cl1N O1N 1_555 1_555
Cl1N O2N 1_555 1_555
Cl1N O4N 1_555 1_555
O5DA C7GA 1_555 1_555
O5DA C7EA 1_555 1_555
O5DA C7A 1_555 1_555
O5DA C7DA 1_555 1_555
N2A N2C 1_555 1_555

#END
