
#######################################################################
#
#                 Cambridge Crystallographic Data Centre
#                                CCDC 
#
#######################################################################
#
# If this CIF has been generated from an entry in the Cambridge 
# Structural Database, then it will include bibliographic, chemical, 
# crystal, experimental, refinement or atomic coordinate data resulting 
# from the CCDC's data processing and validation procedures.
#
#######################################################################

data_GIWNUV
_symmetry_cell_setting           rhombohedral
_symmetry_space_group_name_H-M   'R -3'
_symmetry_Int_Tables_number      148
_space_group_name_Hall           '-R 3'
loop_
_symmetry_equiv_pos_site_id
_symmetry_equiv_pos_as_xyz
1 x,y,z
2 -y,x-y,z
3 -x+y,-x,z
4 1/3+x,2/3+y,2/3+z
5 1/3-y,2/3+x-y,2/3+z
6 1/3-x+y,2/3-x,2/3+z
7 2/3+x,1/3+y,1/3+z
8 2/3-y,1/3+x-y,1/3+z
9 2/3-x+y,1/3-x,1/3+z
10 -x,-y,-z
11 y,-x+y,-z
12 x-y,x,-z
13 2/3-x,1/3-y,1/3-z
14 2/3+y,1/3-x+y,1/3-z
15 2/3+x-y,1/3+x,1/3-z
16 1/3-x,2/3-y,2/3-z
17 1/3+y,2/3-x+y,2/3-z
18 1/3+x-y,2/3+x,2/3-z
_cell_length_a                   27.581(1)
_cell_length_b                   27.581(1)
_cell_length_c                   9.7870(6)
_cell_angle_alpha                90
_cell_angle_beta                 90
_cell_angle_gamma                120.00
_cell_volume                     6447.63
loop_
_atom_site_label
_atom_site_type_symbol
_atom_site_fract_x
_atom_site_fract_y
_atom_site_fract_z
Cu1 Cu 0.22903(41) 0.0805(5) 0.0203(10)
C1 C 0.2524(12) 0.2539(7) 0.1381(36)
C2 C 0.2731(8) 0.1830(7) 0.1844(20)
C3 C 0.2838(13) 0.2360(7) 0.2029(37)
C4 C 0.2034(7) 0.1677(7) 0.0257(22)
O1 O 0.1729(12) 0.1405(9) -0.0657(29)
N1 N 0.2353(13) 0.1501(10) 0.0895(27)
N2 N 0.2099(5) 0.2184(6) 0.0562(24)
H1 H 0.3111(31) 0.2596(14) 0.268(8)
H2 H 0.2582(23) 0.2903(14) 0.156(7)
H3 H 0.2891(25) 0.1677(12) 0.244(5)
Cu2 Cu 0.22886(42) 0.0999(4) -0.5381(8)
Cu3 Cu 0.20958(27) 0.0973(4) -0.2684(10)
C5 C 0.3627(4) 0.2724(5) -0.2109(38)
C6 C 0.2693(8) 0.2151(13) -0.2765(47)
C7 C 0.3156(6) 0.2663(8) -0.2696(36)
C8 C 0.0982(7) 0.0066(11) -0.2136(22)
C9 C 0.0585(4) -0.0828(9) -0.3098(25)
C10 C 0.0590(7) -0.0484(11) -0.2109(21)
C11 C 0.3185(6) 0.1757(11) -0.1758(47)
C12 C 0.1424(4) -0.0101(7) -0.3966(16)
O2 O 0.3197(4) 0.1354(11) -0.1335(35)
O3 O 0.1854(6) 0.0019(10) -0.4546(25)
N3 N 0.2707(5) 0.1699(10) -0.2289(43)
N4 N 0.3649(4) 0.2267(6) -0.1703(25)
N5 N 0.1416(5) 0.0252(9) -0.3018(18)
N6 N 0.0980(4) -0.0623(9) -0.4088(22)
H4 H 0.3947(5) 0.3086(18) -0.202(10)
H5 H 0.3144(8) 0.2983(16) -0.300(9)
H6 H 0.2352(14) 0.2113(29) -0.310(15)
H7 H 0.0353(10) -0.0635(28) -0.133(4)
H8 H 0.0975(10) 0.0313(19) -0.147(4)
H9 H 0.0342(5) -0.1221(23) -0.302(5)
N2J N 0.2184(6) 0.0085(8) -0.0562(24)
N4L N 0.3018(4) 0.1066(6) -0.4964(25)
N6K N 0.1603(10) 0.0980(4) -0.5912(22)
Cu1K Cu 0.14853(65) 0.22903(41) -0.0203(10)
Cu2L Cu 0.43781(42) 0.2334(4) -0.1286(8)
Cu2J Cu 0.0999(4) -0.12896(58) -0.4619(8)
loop_
_geom_bond_atom_site_label_1
_geom_bond_atom_site_label_2
_geom_bond_site_symmetry_1
_geom_bond_site_symmetry_2
Cu1 N1 1_555 1_555
C1 C3 1_555 1_555
C2 C3 1_555 1_555
C3 H1 1_555 1_555
C4 O1 1_555 1_555
N1 C2 1_555 1_555
N2 C1 1_555 1_555
H2 C1 1_555 1_555
H3 C2 1_555 1_555
Cu2 Cu3 1_555 1_555
Cu3 Cu1 1_555 1_555
C5 C7 1_555 1_555
C6 C7 1_555 1_555
C7 H5 1_555 1_555
C8 C10 1_555 1_555
C9 C10 1_555 1_555
C10 H7 1_555 1_555
C11 O2 1_555 1_555
C12 O3 1_555 1_555
N3 Cu3 1_555 1_555
N4 C5 1_555 1_555
N5 Cu3 1_555 1_555
N6 C9 1_555 1_555
H4 C5 1_555 1_555
H6 C6 1_555 1_555
H8 C8 1_555 1_555
H9 C9 1_555 1_555
N2J Cu1 1_555 1_555
N4L Cu2 1_555 1_555
N6K Cu2 1_555 1_555
Cu1K N2 1_555 1_555
Cu2L N4 1_555 1_555
Cu2J N6 1_555 1_555
C4 N1 1_555 1_555
C4 N2 1_555 1_555
C6 N3 1_555 1_555
C8 N5 1_555 1_555
C11 N3 1_555 1_555
C11 N4 1_555 1_555
C12 N5 1_555 1_555
C12 N6 1_555 1_555

#END
