
#######################################################################
#
#                 Cambridge Crystallographic Data Centre
#                                CCDC 
#
#######################################################################
#
# If this CIF has been generated from an entry in the Cambridge 
# Structural Database, then it will include bibliographic, chemical, 
# crystal, experimental, refinement or atomic coordinate data resulting 
# from the CCDC's data processing and validation procedures.
#
#######################################################################

data_GIYSAJ
_symmetry_cell_setting           orthorhombic
_symmetry_space_group_name_H-M   'P n a n'
_symmetry_Int_Tables_number      52
_space_group_name_Hall           '-P 2n 2bc'
loop_
_symmetry_equiv_pos_site_id
_symmetry_equiv_pos_as_xyz
1 x,y,z
2 1/2-x,y,-z
3 1/2-x,1/2-y,1/2+z
4 x,1/2-y,1/2-z
5 -x,-y,-z
6 1/2+x,-y,z
7 1/2+x,1/2+y,1/2-z
8 -x,1/2+y,1/2+z
_cell_length_a                   7.7910(9)
_cell_length_b                   21.372(3)
_cell_length_c                   36.997(3)
_cell_angle_alpha                90
_cell_angle_beta                 90
_cell_angle_gamma                90
_cell_volume                     6160.34
loop_
_atom_site_label
_atom_site_type_symbol
_atom_site_fract_x
_atom_site_fract_y
_atom_site_fract_z
C1 C -0.109(2) 0.3781(9) 0.3409(6)
C2 C -0.035(2) 0.3155(11) 0.3449(7)
C3 C 0.127(2) 0.3031(8) 0.3336(5)
H1 H 0.1856 0.3350 0.3217
C4 C -0.124(2) 0.2694(9) 0.3635(5)
H2 H -0.2332 0.2784 0.3725
C5 C -0.056(2) 0.2098(10) 0.3692(5)
H3 H -0.1203 0.1782 0.3799
C6 C 0.117(2) 0.1991(9) 0.3580(5)
C7 C 0.353(3) 0.1434(12) 0.3947(6)
C8 C 0.308(3) 0.1124(9) 0.3268(5)
C9 C 0.471(2) 0.0879(11) 0.3272(6)
H4 H 0.5378 0.0853 0.3479
C10 C 0.524(2) 0.0676(9) 0.2937(5)
H5 H 0.6299 0.0473 0.2931
C11 C 0.441(2) 0.0734(10) 0.2614(6)
C12 C 0.272(2) 0.0967(9) 0.2627(5)
H6 H 0.2049 0.0979 0.2419
C13 C 0.205(3) 0.1181(10) 0.2962(5)
H7 H 0.0951 0.1353 0.2977
C14 C -0.106(2) 0.5702(9) 0.3950(5)
C15 C -0.0158(19) 0.6125(12) 0.4222(7)
C16 C -0.091(2) 0.6640(9) 0.4360(5)
H8 H -0.2015 0.6740 0.4285
C17 C -0.0119(19) 0.7022(12) 0.4604(7)
H9 H -0.0666 0.7381 0.4688
C18 C 0.153(2) 0.6866(9) 0.4728(5)
C19 C 0.229(2) 0.6344(9) 0.4587(5)
H10 H 0.3417 0.6255 0.4653
C20 C 0.2500 0.7290(13) 0.5000
C21 C 0.5072(19) 0.0538(11) 0.2270(6)
C22 C 0.148(2) 0.5947(9) 0.4354(5)
H11 H 0.1989 0.5572 0.4284
C23 C 0.214(2) 0.2473(9) 0.3382(6)
H12 H 0.3244 0.2408 0.3295
C24 C 0.082(3) 0.0838(11) 0.3736(8)
C25 C 0.133(3) 0.7699(10) 0.5250(6)
C26 C 0.208(3) 0.1328(10) 0.3626(5)
F1 F -0.0491(18) 0.0784(7) 0.3527(4)
F2 F 0.0190(17) 0.0916(9) 0.4079(4)
F3 F 0.2668(15) 0.1741(6) 0.4222(3)
F4 F 0.4738(16) 0.1811(8) 0.3840(4)
F5 F 0.1619(17) 0.0275(5) 0.3733(3)
F6 F 0.416(2) 0.0928(7) 0.4066(4)
F7 F 0.0580(18) 0.8133(8) 0.5038(4)
F8 F 0.2207(14) 0.7970(6) 0.5511(3)
F9 F 0.0031(9) 0.7341(9) 0.5387(4)
La1 La -0.29603(9) 0.49954(7) 0.33741(3)
O1 O -0.2628(13) 0.3881(6) 0.3503(4)
O2 O -0.0274(13) 0.5224(6) 0.3802(3)
O3 O 0.4275(15) 0.0554(6) 0.1973(3)
O4 O 0.6629(15) 0.0328(6) 0.2260(3)
O5 O -0.2590(12) 0.5842(6) 0.3857(4)
O6 O -0.0232(13) 0.4232(8) 0.3260(4)
C1F C -0.609(2) 0.8781(9) 0.1591(6)
C2F C -0.535(2) 0.8155(11) 0.1551(7)
C3F C -0.373(2) 0.8031(8) 0.1664(5)
H1F H -0.3144 0.8350 0.1783
C4F C -0.624(2) 0.7694(9) 0.1365(5)
H2F H -0.7332 0.7784 0.1275
C5F C -0.556(2) 0.7098(10) 0.1308(5)
H3F H -0.6203 0.6782 0.1201
C6F C -0.383(2) 0.6991(9) 0.1420(5)
C7F C -0.147(3) 0.6434(12) 0.1053(6)
C8F C -0.192(3) 0.6124(9) 0.1732(5)
C9F C -0.029(2) 0.5879(11) 0.1728(6)
H4F H 0.0378 0.5853 0.1521
C10F C 0.024(2) 0.5676(9) 0.2063(5)
H5F H 0.1299 0.5473 0.2069
C11F C -0.059(2) 0.5734(10) 0.2386(6)
C12F C -0.228(2) 0.5967(9) 0.2373(5)
H6F H -0.2951 0.5979 0.2581
C13F C -0.295(3) 0.6181(10) 0.2038(5)
H7F H -0.4049 0.6353 0.2023
C14A C 0.606(2) 0.5702(9) 0.6050(5)
C15A C 0.5158(19) 0.6125(12) 0.5778(7)
C16A C 0.591(2) 0.6640(9) 0.5640(5)
H8A H 0.7015 0.6740 0.5715
C17A C 0.5119(19) 0.7022(12) 0.5396(7)
H9A H 0.5666 0.7381 0.5312
C18A C 0.347(2) 0.6866(9) 0.5272(5)
C19A C 0.271(2) 0.6344(9) 0.5413(5)
H10A H 0.1583 0.6255 0.5347
C21F C 0.0072(19) 0.5538(11) 0.2730(6)
C22A C 0.352(2) 0.5947(9) 0.5646(5)
H11A H 0.3011 0.5572 0.5716
C23F C -0.286(2) 0.7473(9) 0.1618(6)
H12F H -0.1756 0.7408 0.1705
C24F C -0.418(3) 0.5838(11) 0.1264(8)
C25A C 0.367(3) 0.7699(10) 0.4750(6)
C26F C -0.292(3) 0.6328(10) 0.1374(5)
F1F F -0.5491(18) 0.5784(7) 0.1473(4)
F2F F -0.4810(17) 0.5916(9) 0.0921(4)
F3F F -0.2332(15) 0.6741(6) 0.0778(3)
F4F F -0.0262(16) 0.6811(8) 0.1160(4)
F5F F -0.3381(17) 0.5275(5) 0.1267(3)
F6F F -0.084(2) 0.5928(7) 0.0934(4)
F7A F 0.4420(18) 0.8133(8) 0.4962(4)
F8A F 0.2793(14) 0.7970(6) 0.4489(3)
F9A F 0.4969(9) 0.7341(9) 0.4613(4)
La1F La -0.79603(9) 0.99954(7) 0.16259(3)
La1E La 0.20397(9) 0.50046(7) 0.33741(3)
La1F_2 La 0.20397(9) -0.00046(7) 0.16259(3)
La1C La 0.70397(9) 0.00046(7) 0.16259(3)
La1D La 0.29603(9) 0.50046(7) 0.66259(3)
La1A La 0.79603(9) 0.49954(7) 0.66259(3)
La1C_2 La -0.29603(9) 1.00046(7) 0.16259(3)
O1F O -0.7628(13) 0.8881(6) 0.1497(4)
O2A O 0.5274(13) 0.5224(6) 0.6198(3)
O2E O -0.5274(13) 0.4776(6) 0.3802(3)
O2F O -0.5274(13) 1.0224(6) 0.1198(3)
O2C O -1.0274(13) 0.9776(6) 0.1198(3)
O3F O -0.0725(15) 0.5554(6) 0.3027(3)
O3C O -0.5725(15) 0.4446(6) 0.3027(3)
O3_2 O -0.5725(15) 1.0554(6) 0.1973(3)
O3E O -1.0725(15) 0.9446(6) 0.1973(3)
O4F O 0.1629(15) 0.5328(6) 0.2740(3)
O4C O -0.3371(15) 0.4672(6) 0.2740(3)
O4E O -0.8371(15) 0.9672(6) 0.2260(3)
O5A O 0.7590(12) 0.5842(6) 0.6143(4)
O5F O -0.7590(12) 1.0842(6) 0.1143(4)
O6F O -0.5232(13) 0.9232(8) 0.1740(4)
O6E O -0.5232(13) 0.5768(8) 0.3260(4)
O6C O -1.0232(13) 1.0768(8) 0.1740(4)
loop_
_geom_bond_atom_site_label_1
_geom_bond_atom_site_label_2
_geom_bond_site_symmetry_1
_geom_bond_site_symmetry_2
C1 C2 1_555 1_555
C2 C3 1_555 1_555
C3 H1 1_555 1_555
C4 C2 1_555 1_555
H2 C4 1_555 1_555
C5 C4 1_555 1_555
H3 C5 1_555 1_555
C6 C5 1_555 1_555
C7 C26 1_555 1_555
C8 C9 1_555 1_555
C9 H4 1_555 1_555
C10 C9 1_555 1_555
H5 C10 1_555 1_555
C11 C10 1_555 1_555
C12 C11 1_555 1_555
H6 C12 1_555 1_555
C13 C8 1_555 1_555
H7 C13 1_555 1_555
C14 C15 1_555 1_555
C15 C16 1_555 1_555
C16 H8 1_555 1_555
C17 C16 1_555 1_555
H9 C17 1_555 1_555
C18 C17 1_555 1_555
C19 C18 1_555 1_555
H10 C19 1_555 1_555
C20 C18 1_555 1_555
C21 C11 1_555 1_555
C22 C15 1_555 1_555
H11 C22 1_555 1_555
C23 C3 1_555 1_555
H12 C23 1_555 1_555
C24 C26 1_555 1_555
C25 C20 1_555 1_555
C26 C6 1_555 1_555
F1 C24 1_555 1_555
F2 C24 1_555 1_555
F3 C7 1_555 1_555
F4 C7 1_555 1_555
F5 C24 1_555 1_555
F6 C7 1_555 1_555
F7 C25 1_555 1_555
F8 C25 1_555 1_555
F9 C25 1_555 1_555
La1 O1 1_555 1_555
O1 C1 1_555 1_555
O2 C14 1_555 1_555
O3 C21 1_555 1_555
O4 C21 1_555 1_555
O5 C14 1_555 1_555
O6 C1 1_555 1_555
C1F C2F 1_555 1_555
C2F C3F 1_555 1_555
C3F H1F 1_555 1_555
C4F C2F 1_555 1_555
H2F C4F 1_555 1_555
C5F C4F 1_555 1_555
H3F C5F 1_555 1_555
C6F C5F 1_555 1_555
C7F C26F 1_555 1_555
C8F C9F 1_555 1_555
C9F H4F 1_555 1_555
C10F C9F 1_555 1_555
H5F C10F 1_555 1_555
C11F C10F 1_555 1_555
C12F C11F 1_555 1_555
H6F C12F 1_555 1_555
C13F C8F 1_555 1_555
H7F C13F 1_555 1_555
C14A C15A 1_555 1_555
C15A C16A 1_555 1_555
C16A H8A 1_555 1_555
C17A C16A 1_555 1_555
H9A C17A 1_555 1_555
C18A C20 1_555 1_555
C19A C18A 1_555 1_555
H10A C19A 1_555 1_555
C21F C11F 1_555 1_555
C22A C15A 1_555 1_555
H11A C22A 1_555 1_555
C23F C3F 1_555 1_555
H12F C23F 1_555 1_555
C24F C26F 1_555 1_555
C25A C20 1_555 1_555
C26F C6F 1_555 1_555
F1F C24F 1_555 1_555
F2F C24F 1_555 1_555
F3F C7F 1_555 1_555
F4F C7F 1_555 1_555
F5F C24F 1_555 1_555
F6F C7F 1_555 1_555
F7A C25A 1_555 1_555
F8A C25A 1_555 1_555
F9A C25A 1_555 1_555
La1F O1F 1_555 1_555
La1E O2 1_555 1_555
La1F_2 O3 1_555 1_555
La1C O3 1_555 1_555
La1D O2A 1_555 1_555
La1A O2A 1_555 1_555
La1C_2 O2F 1_555 1_555
O1F C1F 1_555 1_555
O2A C14A 1_555 1_555
O2E La1 1_555 1_555
O2F La1F 1_555 1_555
O2C La1F 1_555 1_555
O3F La1 1_555 1_555
O3C La1 1_555 1_555
O3_2 La1F 1_555 1_555
O3E La1F 1_555 1_555
O4F C21F 1_555 1_555
O4C La1 1_555 1_555
O4E La1F 1_555 1_555
O5A C14A 1_555 1_555
O5F La1F 1_555 1_555
O6F C1F 1_555 1_555
O6E La1 1_555 1_555
O6C La1F 1_555 1_555
C6 C23 1_555 1_555
C8 C26 1_555 1_555
C12 C13 1_555 1_555
C19 C22 1_555 1_555
La1 O2 1_555 1_555
La1 O5 1_555 1_555
La1 O6 1_555 1_555
O4 La1C 1_555 1_555
O6 La1E 1_555 1_555
C6F C23F 1_555 1_555
C8F C26F 1_555 1_555
C12F C13F 1_555 1_555
C17A C18A 1_555 1_555
C19A C22A 1_555 1_555
C21F O3F 1_555 1_555
La1F O6F 1_555 1_555
La1E O3F 1_555 1_555
La1E O4F 1_555 1_555
La1A O5A 1_555 1_555
La1C_2 O3_2 1_555 1_555
La1C_2 O6F 1_555 1_555

#END
