
#######################################################################
#
#                 Cambridge Crystallographic Data Centre
#                                CCDC 
#
#######################################################################
#
# If this CIF has been generated from an entry in the Cambridge 
# Structural Database, then it will include bibliographic, chemical, 
# crystal, experimental, refinement or atomic coordinate data resulting 
# from the CCDC's data processing and validation procedures.
#
#######################################################################

data_GOBLUG
_symmetry_cell_setting           triclinic
_symmetry_space_group_name_H-M   'P -1'
_symmetry_Int_Tables_number      2
_space_group_name_Hall           '-P 1'
loop_
_symmetry_equiv_pos_site_id
_symmetry_equiv_pos_as_xyz
1 x,y,z
2 -x,-y,-z
_cell_length_a                   11.840(2)
_cell_length_b                   14.960(3)
_cell_length_c                   16.671(3)
_cell_angle_alpha                90.42(3)
_cell_angle_beta                 104.33(3)
_cell_angle_gamma                99.00(3)
_cell_volume                     2822.5
loop_
_atom_site_label
_atom_site_type_symbol
_atom_site_fract_x
_atom_site_fract_y
_atom_site_fract_z
Zn1 Zn 0.11599(3) 0.43133(3) 0.14425(2)
Zn2 Zn 0.5000 1.0000 0.5000
N1 N 0.0992(3) 0.48375(19) 0.25485(18)
N2 N 0.2090(3) 0.55374(19) 0.12614(18)
N3 N 0.0942(3) 0.39250(19) 0.02215(18)
N4 N -0.0119(3) 0.3220(2) 0.15298(18)
N5 N 0.3855(3) 0.8723(2) 0.41544(19)
N6 N -0.2213(5) 0.0067(3) -0.1329(3)
N7 N 0.3633(3) 1.0719(2) 0.47808(18)
N8 N 0.5436(3) 1.04834(19) 0.39341(18)
N9 N 0.2550(3) 1.3554(2) 0.20117(18)
C1 C 0.0411(3) 0.4399(2) 0.3086(2)
C2 C 0.0497(4) 0.5007(3) 0.3777(2)
H1 H 0.0154 0.4877 0.4231
C3 C 0.1149(4) 0.5790(3) 0.3666(2)
H2 H 0.1351 0.6319 0.4025
C4 C 0.1485(3) 0.5683(2) 0.2902(2)
C5 C 0.2253(3) 0.6326(2) 0.2597(2)
C6 C 0.2564(3) 0.6223(2) 0.1841(2)
C7 C 0.3469(4) 0.6831(3) 0.1578(2)
H3 H 0.3939 0.7362 0.1872
C8 C 0.3517(4) 0.6500(3) 0.0835(2)
H4 H 0.4038 0.6747 0.0512
C9 C 0.2631(3) 0.5702(2) 0.0623(2)
C10 C 0.2355(3) 0.5168(2) -0.0117(2)
C11 C 0.1513(3) 0.4376(2) -0.0318(2)
C12 C 0.1107(3) 0.3901(3) -0.1124(2)
H5 H 0.1349 0.4073 -0.1611
C13 C 0.0328(4) 0.3174(3) -0.1052(2)
H6 H -0.0087 0.2736 -0.1482
C14 C 0.0232(3) 0.3175(2) -0.0205(2)
C15 C -0.0425(3) 0.2490(2) 0.0142(2)
C16 C -0.0524(3) 0.2501(2) 0.0969(2)
C17 C -0.1029(4) 0.1739(3) 0.1361(3)
H7 H -0.1368 0.1156 0.1108
C18 C -0.0931(4) 0.2006(3) 0.2146(3)
H8 H -0.1186 0.1645 0.2555
C19 C -0.0369(3) 0.2942(3) 0.2258(2)
C20 C -0.0149(3) 0.3490(2) 0.2985(2)
C21 C 0.2809(3) 0.7162(2) 0.3129(2)
C22 C 0.2665(3) 0.8030(2) 0.2864(2)
H9 H 0.2206 0.8107 0.2323
C23 C 0.3194(3) 0.8779(3) 0.3395(2)
H10 H 0.3077 0.9363 0.3204
C24 C 0.4010(4) 0.7888(3) 0.4410(2)
H11 H 0.4485 0.7836 0.4952
C25 C 0.3517(4) 0.7108(3) 0.3928(2)
H12 H 0.3658 0.6535 0.4136
C26 C 0.3041(3) 0.5484(3) -0.0744(2)
C27 C 0.2929(4) 0.6314(3) -0.1102(3)
H13 H 0.2383 0.6664 -0.0980
C28 C 0.3619(4) 0.6630(4) -0.1640(3)
H14 H 0.3544 0.7197 -0.1882
C29 C 0.4411(4) 0.6125(4) -0.1822(3)
H15 H 0.4872 0.6342 -0.2193
C30 C 0.4532(4) 0.5311(4) -0.1466(3)
H16 H 0.5088 0.4969 -0.1586
C31 C 0.3840(4) 0.4979(3) -0.0926(3)
H17 H 0.3920 0.4411 -0.0686
C32 C -0.1039(4) 0.1657(2) -0.0382(2)
C33 C -0.0430(5) 0.1087(3) -0.0705(3)
H18 H 0.0404 0.1228 -0.0610
C34 C -0.1038(6) 0.0312(4) -0.1165(3)
H19 H -0.0599 -0.0070 -0.1379
C35 C -0.2781(5) 0.0604(3) -0.1014(3)
H20 H -0.3614 0.0440 -0.1118
C36 C -0.2258(4) 0.1396(3) -0.0539(3)
H21 H -0.2723 0.1753 -0.0325
C37 C -0.0513(4) 0.3083(3) 0.3719(2)
C38 C -0.1678(5) 0.2677(4) 0.3664(3)
H22 H -0.2263 0.2680 0.3158
C39 C -0.1984(6) 0.2271(4) 0.4340(3)
H23 H -0.2781 0.1999 0.4289
C40 C -0.1181(6) 0.2250(3) 0.5069(3)
H24 H -0.1406 0.1954 0.5521
C41 C -0.0015(5) 0.2668(3) 0.5152(3)
H25 H 0.0556 0.2676 0.5666
C42 C 0.0299(4) 0.3074(3) 0.4473(3)
H26 H 0.1095 0.3353 0.4529
C43 C 0.2861(3) 1.0753(3) 0.5269(2)
C44 C 0.2012(4) 1.1317(3) 0.4900(3)
H27 H 0.1367 1.1437 0.5105
C45 C 0.2292(4) 1.1646(3) 0.4213(3)
H28 H 0.1891 1.2042 0.3845
C46 C 0.3330(3) 1.1275(2) 0.4145(2)
C47 C 0.3924(3) 1.1459(2) 0.3513(2)
C48 C 0.4862(3) 1.1052(2) 0.3388(2)
C49 C 0.5376(3) 1.1153(2) 0.2686(2)
H29 H 0.5149 1.1512 0.2224
C50 C 0.6245(3) 1.0635(3) 0.2812(2)
H30 H 0.6734 1.0558 0.2451
C51 C 0.6286(3) 1.0225(2) 0.3596(2)
C52 C 0.3516(3) 1.2190(2) 0.2958(2)
C53 C 0.2971(3) 1.2030(2) 0.2125(2)
H31 H 0.2916 1.1454 0.1861
C54 C 0.2504(3) 1.2725(2) 0.1678(2)
H32 H 0.2132 1.2608 0.1105
C55 C 0.3133(3) 1.3720(2) 0.2806(2)
H33 H 0.3209 1.4311 0.3047
C56 C 0.3634(3) 1.3068(2) 0.3297(2)
H34 H 0.4054 1.3216 0.3857
C57 C 0.7099(3) 0.9666(3) 0.3973(2)
C58 C 0.7988(4) 0.9444(3) 0.3527(2)
C59 C 0.7831(6) 0.8622(4) 0.3117(4)
H35 H 0.7124 0.8206 0.3078
C60 C 0.8702(7) 0.8380(5) 0.2748(4)
H36 H 0.8579 0.7810 0.2458
C61 C 0.9724(6) 0.8977(6) 0.2813(4)
H37 H 1.0319 0.8829 0.2567
C62 C 0.9871(6) 0.9766(7) 0.3224(5)
H38 H 1.0588 1.0173 0.3273
C63 C 0.9023(5) 1.0026(5) 0.3588(4)
H39 H 0.9163 1.0600 0.3874
N7A N 0.6367(3) 0.9281(2) 0.52192(18)
N8A N 0.4564(3) 0.95166(19) 0.60659(18)
C43A C 0.7139(3) 0.9247(3) 0.4731(2)
C44A C 0.7988(4) 0.8683(3) 0.5100(3)
H27A H 0.8633 0.8563 0.4895
C45A C 0.7708(4) 0.8354(3) 0.5787(3)
H28A H 0.8109 0.7958 0.6155
C46A C 0.6670(3) 0.8725(2) 0.5855(2)
C47A C 0.6076(3) 0.8541(2) 0.6487(2)
C48A C 0.5138(3) 0.8948(2) 0.6612(2)
C49A C 0.4624(3) 0.8847(2) 0.7314(2)
H29A H 0.4851 0.8488 0.7776
C50A C 0.3755(3) 0.9365(3) 0.7188(2)
H30A H 0.3266 0.9442 0.7549
C51A C 0.3714(3) 0.9775(2) 0.6404(2)
C57A C 0.2901(3) 1.0334(3) 0.6027(2)
C58A C 0.2012(4) 1.0556(3) 0.6473(2)
C59A C 0.2169(6) 1.1378(4) 0.6883(4)
H35A H 0.2876 1.1794 0.6922
C60A C 0.1298(7) 1.1620(5) 0.7252(4)
H36A H 0.1421 1.2190 0.7542
C61A C 0.0276(6) 1.1023(6) 0.7187(4)
H37A H -0.0319 1.1171 0.7433
C62A C 0.0129(6) 1.0234(7) 0.6776(5)
H38A H -0.0588 0.9827 0.6727
C63A C 0.0977(5) 0.9974(5) 0.6412(4)
H39A H 0.0837 0.9400 0.6126
N9A N 0.7450(3) 0.6446(2) 0.79883(18)
C52A C 0.6484(3) 0.7810(2) 0.7042(2)
C53A C 0.7029(3) 0.7970(2) 0.7875(2)
H31A H 0.7084 0.8546 0.8139
C54A C 0.7496(3) 0.7275(2) 0.8322(2)
H32A H 0.7868 0.7392 0.8895
C55A C 0.6867(3) 0.6280(2) 0.7194(2)
H33A H 0.6791 0.5689 0.6953
C56A C 0.6366(3) 0.6932(2) 0.6703(2)
H34A H 0.5946 0.6784 0.6143
Zn1A Zn 0.88401(3) 0.56867(3) 0.85575(2)
N1A N 0.9008(3) 0.51625(19) 0.74515(18)
N2A N 0.7910(3) 0.44626(19) 0.87386(18)
N3A N 0.9058(3) 0.60750(19) 0.97785(18)
N4A N 1.0119(3) 0.6780(2) 0.84702(18)
N5A N 0.6145(3) 0.1277(2) 0.58456(19)
N6A N 1.2213(5) 0.9933(3) 1.1329(3)
C1A C 0.9589(3) 0.5601(2) 0.6914(2)
C2A C 0.9503(4) 0.4993(3) 0.6223(2)
H1A H 0.9846 0.5123 0.5769
C3A C 0.8851(4) 0.4210(3) 0.6334(2)
H2A H 0.8649 0.3681 0.5975
C4A C 0.8515(3) 0.4317(2) 0.7098(2)
C5A C 0.7747(3) 0.3674(2) 0.7403(2)
C6A C 0.7436(3) 0.3777(2) 0.8159(2)
C7A C 0.6531(4) 0.3169(3) 0.8422(2)
H3A H 0.6061 0.2638 0.8128
C8A C 0.6483(4) 0.3500(3) 0.9165(2)
H4A H 0.5962 0.3253 0.9488
C9A C 0.7369(3) 0.4298(2) 0.9377(2)
C10A C 0.7645(3) 0.4832(2) 1.0117(2)
C11A C 0.8487(3) 0.5624(2) 1.0318(2)
C12A C 0.8893(3) 0.6099(3) 1.1124(2)
H5A H 0.8651 0.5927 1.1611
C13A C 0.9672(4) 0.6826(3) 1.1052(2)
H6A H 1.0087 0.7264 1.1482
C14A C 0.9768(3) 0.6825(2) 1.0205(2)
C15A C 1.0425(3) 0.7510(2) 0.9858(2)
C16A C 1.0524(3) 0.7499(2) 0.9031(2)
C17A C 1.1029(4) 0.8261(3) 0.8639(3)
H7A H 1.1368 0.8844 0.8892
C18A C 1.0931(4) 0.7994(3) 0.7854(3)
H8A H 1.1186 0.8355 0.7445
C19A C 1.0369(3) 0.7058(3) 0.7742(2)
C20A C 1.0149(3) 0.6510(2) 0.7015(2)
C21A C 0.7191(3) 0.2838(2) 0.6871(2)
C22A C 0.7335(3) 0.1970(2) 0.7136(2)
H9A H 0.7794 0.1893 0.7677
C23A C 0.6806(3) 0.1221(3) 0.6605(2)
H10A H 0.6923 0.0637 0.6796
C24A C 0.5990(4) 0.2112(3) 0.5590(2)
H11A H 0.5515 0.2164 0.5048
C25A C 0.6483(4) 0.2892(3) 0.6072(2)
H12A H 0.6342 0.3465 0.5864
C26A C 0.6959(3) 0.4516(3) 1.0744(2)
C27A C 0.7071(4) 0.3686(3) 1.1102(3)
H13A H 0.7617 0.3336 1.0980
C28A C 0.6381(4) 0.3370(4) 1.1640(3)
H14A H 0.6456 0.2803 1.1882
C29A C 0.5589(4) 0.3875(4) 1.1822(3)
H15A H 0.5128 0.3658 1.2193
C30A C 0.5468(4) 0.4689(4) 1.1466(3)
H16A H 0.4912 0.5031 1.1586
C31A C 0.6160(4) 0.5021(3) 1.0926(3)
H17A H 0.6080 0.5589 1.0686
C32A C 1.1039(4) 0.8343(2) 1.0382(2)
C33A C 1.0430(5) 0.8913(3) 1.0705(3)
H18A H 0.9596 0.8772 1.0610
C34A C 1.1038(6) 0.9688(4) 1.1165(3)
H19A H 1.0599 1.0070 1.1379
C35A C 1.2781(5) 0.9396(3) 1.1014(3)
H20A H 1.3614 0.9560 1.1118
C36A C 1.2258(4) 0.8604(3) 1.0539(3)
H21A H 1.2723 0.8247 1.0325
C37A C 1.0513(4) 0.6917(3) 0.6281(2)
C38A C 1.1678(5) 0.7323(4) 0.6336(3)
H22A H 1.2263 0.7320 0.6842
C39A C 1.1984(6) 0.7729(4) 0.5660(3)
H23A H 1.2781 0.8001 0.5711
C40A C 1.1181(6) 0.7750(3) 0.4931(3)
H24A H 1.1406 0.8046 0.4479
C41A C 1.0015(5) 0.7332(3) 0.4848(3)
H25A H 0.9444 0.7324 0.4334
C42A C 0.9701(4) 0.6926(3) 0.5527(3)
H26A H 0.8905 0.6647 0.5471
Zn1_2 Zn 0.11599(3) 1.43133(3) 0.14425(2)
Zn2_2 Zn 0.5000 0.0000 0.5000
N5A_2 N 0.6145(3) 1.1277(2) 0.58456(19)
N9_2 N 0.2550(3) 0.3554(2) 0.20117(18)
O1 O 0.2526(9) 0.3569(6) 0.7250(6)
C64 C 0.2487(10) 0.4277(7) 0.6858(6)
H40 H 0.2003 0.4685 0.6974
N10 N 0.3149(7) 0.4520(5) 0.6223(5)
C65 C 0.3082(14) 0.5430(6) 0.5892(9)
H41 H 0.3178 0.5873 0.6350
H42 H 0.2312 0.5423 0.5500
H43 H 0.3711 0.5596 0.5608
C66 C 0.3860(12) 0.3816(8) 0.6126(9)
H44 H 0.3388 0.3215 0.6120
H45 H 0.4566 0.3879 0.6590
H46 H 0.4096 0.3887 0.5604
O2 O 0.4734(8) 0.8900(6) -0.0514(6)
C67 C 0.5339(9) 0.8281(7) -0.0362(5)
H47 H 0.5238 0.7748 -0.0704
N11 N 0.6237(6) 0.8507(5) 0.0431(4)
C68 C 0.6763(11) 0.7653(8) 0.0582(8)
H48 H 0.7618 0.7793 0.0645
H49 H 0.6406 0.7218 0.0111
H50 H 0.6607 0.7391 0.1089
C69 C 0.6561(18) 0.9184(13) 0.0948(12)
H51 H 0.7324 0.9513 0.0901
H52 H 0.6638 0.8973 0.1512
H53 H 0.5970 0.9589 0.0831
loop_
_geom_bond_atom_site_label_1
_geom_bond_atom_site_label_2
_geom_bond_site_symmetry_1
_geom_bond_site_symmetry_2
Zn1 N1 1_555 1_555
Zn2 N5 1_555 1_555
N1 C1 1_555 1_555
N2 Zn1 1_555 1_555
N3 Zn1 1_555 1_555
N4 Zn1 1_555 1_555
N5 C23 1_555 1_555
N6 C34 1_555 1_555
N7 Zn2 1_555 1_555
N8 Zn2 1_555 1_555
N9 C54 1_555 1_555
C1 C2 1_555 1_555
C2 H1 1_555 1_555
C3 C2 1_555 1_555
H2 C3 1_555 1_555
C4 N1 1_555 1_555
C5 C4 1_555 1_555
C6 N2 1_555 1_555
C7 C6 1_555 1_555
H3 C7 1_555 1_555
C8 C7 1_555 1_555
H4 C8 1_555 1_555
C9 N2 1_555 1_555
C10 C9 1_555 1_555
C11 N3 1_555 1_555
C12 C11 1_555 1_555
H5 C12 1_555 1_555
C13 C12 1_555 1_555
H6 C13 1_555 1_555
C14 N3 1_555 1_555
C15 C14 1_555 1_555
C16 N4 1_555 1_555
C17 C16 1_555 1_555
H7 C17 1_555 1_555
C18 C17 1_555 1_555
H8 C18 1_555 1_555
C19 N4 1_555 1_555
C20 C1 1_555 1_555
C21 C5 1_555 1_555
C22 C21 1_555 1_555
H9 C22 1_555 1_555
C23 C22 1_555 1_555
H10 C23 1_555 1_555
C24 N5 1_555 1_555
H11 C24 1_555 1_555
C25 C21 1_555 1_555
H12 C25 1_555 1_555
C26 C10 1_555 1_555
C27 C26 1_555 1_555
H13 C27 1_555 1_555
C28 C27 1_555 1_555
H14 C28 1_555 1_555
C29 C28 1_555 1_555
H15 C29 1_555 1_555
C30 C29 1_555 1_555
H16 C30 1_555 1_555
C31 C26 1_555 1_555
H17 C31 1_555 1_555
C32 C15 1_555 1_555
C33 C32 1_555 1_555
H18 C33 1_555 1_555
C34 C33 1_555 1_555
H19 C34 1_555 1_555
C35 N6 1_555 1_555
H20 C35 1_555 1_555
C36 C32 1_555 1_555
H21 C36 1_555 1_555
C37 C20 1_555 1_555
C38 C37 1_555 1_555
H22 C38 1_555 1_555
C39 C38 1_555 1_555
H23 C39 1_555 1_555
C40 C39 1_555 1_555
H24 C40 1_555 1_555
C41 C40 1_555 1_555
H25 C41 1_555 1_555
C42 C37 1_555 1_555
H26 C42 1_555 1_555
C43 N7 1_555 1_555
C44 C43 1_555 1_555
H27 C44 1_555 1_555
C45 C44 1_555 1_555
H28 C45 1_555 1_555
C46 N7 1_555 1_555
C47 C46 1_555 1_555
C48 N8 1_555 1_555
C49 C48 1_555 1_555
H29 C49 1_555 1_555
C50 C49 1_555 1_555
H30 C50 1_555 1_555
C51 N8 1_555 1_555
C52 C47 1_555 1_555
C53 C52 1_555 1_555
H31 C53 1_555 1_555
C54 C53 1_555 1_555
H32 C54 1_555 1_555
C55 N9 1_555 1_555
H33 C55 1_555 1_555
C56 C52 1_555 1_555
H34 C56 1_555 1_555
C57 C51 1_555 1_555
C58 C57 1_555 1_555
C59 C58 1_555 1_555
H35 C59 1_555 1_555
C60 C59 1_555 1_555
H36 C60 1_555 1_555
C61 C60 1_555 1_555
H37 C61 1_555 1_555
C62 C61 1_555 1_555
H38 C62 1_555 1_555
C63 C58 1_555 1_555
H39 C63 1_555 1_555
O1 C64 1_555 1_555
C64 H40 1_555 1_555
N10 C64 1_555 1_555
C65 N10 1_555 1_555
H41 C65 1_555 1_555
H42 C65 1_555 1_555
H43 C65 1_555 1_555
C66 N10 1_555 1_555
H44 C66 1_555 1_555
H45 C66 1_555 1_555
H46 C66 1_555 1_555
O2 C67 1_555 1_555
C67 H47 1_555 1_555
N11 C67 1_555 1_555
C68 N11 1_555 1_555
H48 C68 1_555 1_555
H49 C68 1_555 1_555
H50 C68 1_555 1_555
C69 N11 1_555 1_555
H51 C69 1_555 1_555
H52 C69 1_555 1_555
H53 C69 1_555 1_555
N7A Zn2 1_555 1_555
N8A Zn2 1_555 1_555
C43A C57 1_555 1_555
C44A C43A 1_555 1_555
H27A C44A 1_555 1_555
C45A C44A 1_555 1_555
H28A C45A 1_555 1_555
C46A N7A 1_555 1_555
C47A C46A 1_555 1_555
C48A N8A 1_555 1_555
C49A C48A 1_555 1_555
H29A C49A 1_555 1_555
C50A C49A 1_555 1_555
H30A C50A 1_555 1_555
C51A N8A 1_555 1_555
C57A C43 1_555 1_555
C58A C57A 1_555 1_555
C59A C58A 1_555 1_555
H35A C59A 1_555 1_555
C60A C59A 1_555 1_555
H36A C60A 1_555 1_555
C61A C60A 1_555 1_555
H37A C61A 1_555 1_555
C62A C61A 1_555 1_555
H38A C62A 1_555 1_555
C63A C58A 1_555 1_555
H39A C63A 1_555 1_555
N9A C54A 1_555 1_555
C52A C47A 1_555 1_555
C53A C52A 1_555 1_555
H31A C53A 1_555 1_555
C54A C53A 1_555 1_555
H32A C54A 1_555 1_555
C55A N9A 1_555 1_555
H33A C55A 1_555 1_555
C56A C52A 1_555 1_555
H34A C56A 1_555 1_555
Zn1A N9A 1_555 1_555
N1A Zn1A 1_555 1_555
N2A Zn1A 1_555 1_555
N3A Zn1A 1_555 1_555
N4A Zn1A 1_555 1_555
N5A C23A 1_555 1_555
N6A C34A 1_555 1_555
C1A N1A 1_555 1_555
C2A C1A 1_555 1_555
H1A C2A 1_555 1_555
C3A C2A 1_555 1_555
H2A C3A 1_555 1_555
C4A N1A 1_555 1_555
C5A C4A 1_555 1_555
C6A N2A 1_555 1_555
C7A C6A 1_555 1_555
H3A C7A 1_555 1_555
C8A C7A 1_555 1_555
H4A C8A 1_555 1_555
C9A N2A 1_555 1_555
C10A C9A 1_555 1_555
C11A N3A 1_555 1_555
C12A C11A 1_555 1_555
H5A C12A 1_555 1_555
C13A C12A 1_555 1_555
H6A C13A 1_555 1_555
C14A N3A 1_555 1_555
C15A C14A 1_555 1_555
C16A N4A 1_555 1_555
C17A C16A 1_555 1_555
H7A C17A 1_555 1_555
C18A C17A 1_555 1_555
H8A C18A 1_555 1_555
C19A N4A 1_555 1_555
C20A C1A 1_555 1_555
C21A C5A 1_555 1_555
C22A C21A 1_555 1_555
H9A C22A 1_555 1_555
C23A C22A 1_555 1_555
H10A C23A 1_555 1_555
C24A N5A 1_555 1_555
H11A C24A 1_555 1_555
C25A C21A 1_555 1_555
H12A C25A 1_555 1_555
C26A C10A 1_555 1_555
C27A C26A 1_555 1_555
H13A C27A 1_555 1_555
C28A C27A 1_555 1_555
H14A C28A 1_555 1_555
C29A C28A 1_555 1_555
H15A C29A 1_555 1_555
C30A C29A 1_555 1_555
H16A C30A 1_555 1_555
C31A C26A 1_555 1_555
H17A C31A 1_555 1_555
C32A C15A 1_555 1_555
C33A C32A 1_555 1_555
H18A C33A 1_555 1_555
C34A C33A 1_555 1_555
H19A C34A 1_555 1_555
C35A N6A 1_555 1_555
H20A C35A 1_555 1_555
C36A C32A 1_555 1_555
H21A C36A 1_555 1_555
C37A C20A 1_555 1_555
C38A C37A 1_555 1_555
H22A C38A 1_555 1_555
C39A C38A 1_555 1_555
H23A C39A 1_555 1_555
C40A C39A 1_555 1_555
H24A C40A 1_555 1_555
C41A C40A 1_555 1_555
H25A C41A 1_555 1_555
C42A C37A 1_555 1_555
H26A C42A 1_555 1_555
Zn1_2 N9 1_555 1_555
Zn2_2 N5A 1_555 1_555
N5A_2 Zn2 1_555 1_555
N9_2 Zn1 1_555 1_555
C3 C4 1_555 1_555
C5 C6 1_555 1_555
C8 C9 1_555 1_555
C10 C11 1_555 1_555
C13 C14 1_555 1_555
C15 C16 1_555 1_555
C18 C19 1_555 1_555
C19 C20 1_555 1_555
C24 C25 1_555 1_555
C30 C31 1_555 1_555
C35 C36 1_555 1_555
C41 C42 1_555 1_555
C45 C46 1_555 1_555
C47 C48 1_555 1_555
C50 C51 1_555 1_555
C55 C56 1_555 1_555
C62 C63 1_555 1_555
N7A C43A 1_555 1_555
C45A C46A 1_555 1_555
C47A C48A 1_555 1_555
C50A C51A 1_555 1_555
C51A C57A 1_555 1_555
C62A C63A 1_555 1_555
C55A C56A 1_555 1_555
C3A C4A 1_555 1_555
C5A C6A 1_555 1_555
C8A C9A 1_555 1_555
C10A C11A 1_555 1_555
C13A C14A 1_555 1_555
C15A C16A 1_555 1_555
C18A C19A 1_555 1_555
C19A C20A 1_555 1_555
C24A C25A 1_555 1_555
C30A C31A 1_555 1_555
C35A C36A 1_555 1_555
C41A C42A 1_555 1_555

#END
