
#######################################################################
#
#                 Cambridge Crystallographic Data Centre
#                                CCDC 
#
#######################################################################
#
# If this CIF has been generated from an entry in the Cambridge 
# Structural Database, then it will include bibliographic, chemical, 
# crystal, experimental, refinement or atomic coordinate data resulting 
# from the CCDC's data processing and validation procedures.
#
#######################################################################

data_GOKBUE
_symmetry_cell_setting           triclinic
_symmetry_space_group_name_H-M   'P -1'
_symmetry_Int_Tables_number      2
_space_group_name_Hall           '-P 1'
loop_
_symmetry_equiv_pos_site_id
_symmetry_equiv_pos_as_xyz
1 x,y,z
2 -x,-y,-z
_cell_length_a                   9.732(2)
_cell_length_b                   10.596(2)
_cell_length_c                   12.592(2)
_cell_angle_alpha                111.37(1)
_cell_angle_beta                 106.05(1)
_cell_angle_gamma                96.36(1)
_cell_volume                     1129.16
loop_
_atom_site_label
_atom_site_type_symbol
_atom_site_fract_x
_atom_site_fract_y
_atom_site_fract_z
Cu1 Cu 0.35613(5) 0.00712(5) 0.40434(4)
Cu2 Cu 0.06698(5) -0.10931(5) 0.41221(4)
Cu3 Cu 0.24215(5) 0.20603(5) 0.58546(4)
Cu4 Cu 0.65971(5) 0.10660(5) 0.39411(4)
O1 O 0.2965(4) 0.3419(4) 0.7531(3)
O2 O 0.5178(5) 0.3005(4) 0.8185(3)
C1 C 0.4159(6) 0.3581(5) 0.8349(4)
C2 C 0.4304(7) 0.4556(8) 0.9627(5)
H1 H 0.3600 0.5130 0.9567
H2 H 0.4026 0.3994 1.0027
O3 O -0.0052(3) -0.2628(3) 0.4547(3)
O4 O 0.1993(3) -0.2661(3) 0.5889(3)
C3 C 0.0646(5) -0.3099(4) 0.5257(4)
C4 C -0.0192(5) -0.4333(5) 0.5347(5)
H3 H -0.1241 -0.4419 0.5017
H4 H 0.0054 -0.4179 0.6192
O5 O 0.7526(5) -0.0370(5) 0.1752(4)
O6 O 0.5728(4) 0.0574(4) 0.2205(3)
C5 C 0.6344(6) -0.0032(6) 0.1467(4)
C6 C 0.5597(7) -0.0349(8) 0.0140(5)
H5 H 0.6342 -0.0096 -0.0171
H6 H 0.5199 -0.1349 -0.0298
O7 O 0.3566(4) 0.3362(3) 0.5484(3)
O8 O 0.4536(3) 0.1934(3) 0.4247(3)
C7 C 0.4345(5) 0.3117(4) 0.4823(4)
C8 C 0.5158(7) 0.4319(5) 0.4698(7)
H7 H 0.6206 0.4399 0.5028
H8 H 0.4914 0.4106 0.3841
O9 O 0.1748(3) 0.0642(3) 0.4160(2)
O10 O -0.1254(3) -0.0688(3) 0.3867(2)
O11 O 0.2598(3) -0.1508(3) 0.4305(2)
O12 O 0.5316(3) -0.0545(3) 0.3847(2)
O13 O -0.0204(6) -0.2825(8) 0.2032(5)
O14 O 0.2645(6) -0.0500(7) 0.1866(5)
H9 H 0.1511 0.1090 0.3707
H10 H -0.1655 -0.0477 0.3247
H11 H 0.2988 -0.1973 0.4018
H12 H 0.5154 -0.1271 0.3312
H13 H -0.1015 -0.2977 0.2169
H14 H -0.0477 -0.2456 0.1492
H15 H 0.3553 -0.0163 0.1974
H16 H 0.2105 -0.0112 0.1500
Cu1A Cu 0.64387(5) 0.99288(5) 0.59566(4)
Cu1A_2 Cu 0.64387(5) -0.00712(5) 0.59566(4)
Cu2A Cu -0.06698(5) -0.89069(5) 0.58779(4)
Cu2A_2 Cu -0.06698(5) 0.10931(5) 0.58779(4)
Cu2A_3 Cu 0.93302(5) 0.10931(5) 0.58779(4)
Cu2A_4 Cu 0.93302(5) 1.10931(5) 0.58779(4)
Cu3A Cu 0.75785(5) 0.79397(5) 0.41454(4)
Cu3A_2 Cu -0.24215(5) -0.20603(5) 0.41454(4)
Cu3A_3 Cu 0.75785(5) 0.79397(5) 1.41454(4)
Cu3_2 Cu 0.24215(5) -0.79397(5) 0.58546(4)
Cu4A Cu 0.34029(5) 0.89340(5) 0.60589(4)
Cu4A_2 Cu 0.34029(5) -0.10660(5) 0.60589(4)
Cu4_2 Cu -0.34029(5) -0.89340(5) 0.39411(4)
Cu4A_3 Cu 0.34029(5) -0.10660(5) -0.39411(4)
O1A O 0.7035(4) 0.6581(4) 1.2469(3)
O1A_2 O 0.7035(4) 0.6581(4) 0.2469(3)
O2A O 0.4822(5) 0.6995(4) 1.1815(3)
C1A C 0.5841(6) 0.6419(5) 1.1651(4)
C2A C 0.5696(7) 0.5444(8) 1.0373(5)
H1A H 0.6400 0.4870 1.0433
H2A H 0.5974 0.6006 0.9973
O3A O 0.0052(3) -0.7372(3) 0.5453(3)
O3A_2 O 0.0052(3) 0.2628(3) 0.5453(3)
O3_2 O 0.9948(3) 0.7372(3) 0.4547(3)
O4A O -0.1993(3) -0.7339(3) 0.4111(3)
O4A_2 O 0.8007(3) 0.2661(3) 0.4111(3)
O4_2 O 0.1993(3) 0.7339(3) 0.5889(3)
C3A C -0.0646(5) -0.6901(4) 0.4743(4)
C4A C 0.0192(5) -0.5667(5) 0.4653(5)
H3A H 0.1241 -0.5581 0.4983
H4A H -0.0054 -0.5821 0.3808
O5A O 0.2474(5) 0.0370(5) -0.1752(4)
O6A O 0.4272(4) -0.0574(4) -0.2205(3)
O6A_2 O 0.4272(4) 0.9426(4) 0.7795(3)
C5A C 0.3656(6) 0.0032(6) -0.1467(4)
C6A C 0.4403(7) 0.0349(8) -0.0140(5)
H5A H 0.3658 0.0096 0.0171
H6A H 0.4801 0.1349 0.0298
O7A O 0.6434(4) 0.6638(3) 0.4516(3)
O8A O 0.5464(3) 0.8066(3) 0.5753(3)
C7A C 0.5655(5) 0.6883(4) 0.5177(4)
C8A C 0.4842(7) 0.5681(5) 0.5302(7)
H7A H 0.3794 0.5601 0.4972
H8A H 0.5086 0.5894 0.6159
O9A O 0.8252(3) 0.9358(3) 0.5840(2)
O9A_2 O -0.1748(3) -1.0642(3) 0.5840(2)
O10A O 0.1254(3) 0.0688(3) 0.6133(2)
O10_2 O 0.8746(3) 0.9312(3) 0.3867(2)
O10A_2 O 0.1254(3) -0.9312(3) 0.6133(2)
O10_3 O -0.1254(3) -1.0688(3) 0.3867(2)
O11A O 0.7402(3) 0.1508(3) 0.5695(2)
O11A_2 O 0.7402(3) 1.1508(3) 0.5695(2)
O11_2 O 0.2598(3) 0.8492(3) 0.4305(2)
O11A_3 O -0.2598(3) -0.8492(3) 0.5695(2)
O12A O 0.4684(3) 0.0545(3) 0.6153(2)
O12A_2 O 0.4684(3) 1.0545(3) 0.6153(2)
O12_2 O 0.5316(3) 0.9455(3) 0.3847(2)
O13A O 0.0204(6) -0.7175(8) 0.7968(5)
O14A O 0.7355(6) 1.0500(7) 0.8134(5)
H9A H 0.8489 0.8910 0.6293
H9A_2 H -0.1511 -1.1090 0.6293
H10A H 0.1655 0.0477 0.6753
H10_2 H 0.8345 0.9523 0.3247
H10A_2 H 0.1655 -0.9523 0.6753
H10_3 H -0.1655 -1.0477 0.3247
H11A H 0.7012 0.1973 0.5982
H11A_2 H 0.7012 1.1973 0.5982
H11_2 H 0.2988 0.8027 0.4018
H11A_3 H -0.2988 -0.8027 0.5982
H12A H 0.4846 0.1271 0.6688
H12A_2 H 0.4846 1.1271 0.6688
H12_2 H 0.5154 0.8729 0.3312
H13A H 0.1015 -0.7023 0.7831
H14A H 0.0477 -0.7544 0.8508
H15A H 0.6447 1.0163 0.8026
H16A H 0.7895 1.0112 0.8500
O15 O 0.0501(8) 0.1411(10) 0.2340(8)
H17 H 0.0801 0.0771 0.2481
H18 H -0.0393 0.1040 0.1990
O16 O -0.3236(11) -0.6319(7) 0.2234(6)
H19 H -0.2893 -0.6887 0.2511
H20 H -0.2884 -0.6555 0.1642
O17 O 0.2616(9) -0.4059(7) 0.2688(8)
H21 H 0.1866 -0.3704 0.2506
H22 H 0.3272 -0.3725 0.2417
O18 O 0.9001(19) 0.8279(17) 0.0362(16)
O20 O 0.192(3) 0.684(3) 0.064(3)
O21 O 0.920(3) 0.659(3) 0.843(3)
O22 O 0.702(4) 0.676(4) 0.810(3)
O19? O 0.207(3) 0.706(3) 0.970(3)
loop_
_geom_bond_atom_site_label_1
_geom_bond_atom_site_label_2
_geom_bond_site_symmetry_1
_geom_bond_site_symmetry_2
Cu1 O8 1_555 1_555
Cu2 O3 1_555 1_555
Cu3 O1 1_555 1_555
Cu4 O6 1_555 1_555
O1 C1 1_555 1_555
O2 C1 1_555 1_555
C1 C2 1_555 1_555
C2 H1 1_555 1_555
H2 C2 1_555 1_555
O3 C3 1_555 1_555
O4 C3 1_555 1_555
C3 C4 1_555 1_555
C4 H3 1_555 1_555
H4 C4 1_555 1_555
O5 C5 1_555 1_555
O6 C5 1_555 1_555
C5 C6 1_555 1_555
C6 H5 1_555 1_555
H6 C6 1_555 1_555
O7 Cu3 1_555 1_555
O8 Cu4 1_555 1_555
C7 O7 1_555 1_555
C8 C7 1_555 1_555
H7 C8 1_555 1_555
H8 C8 1_555 1_555
O9 Cu1 1_555 1_555
O10 Cu2 1_555 1_555
O11 Cu1 1_555 1_555
O12 Cu1 1_555 1_555
O13 Cu2 1_555 1_555
O14 Cu1 1_555 1_555
O15 H17 1_555 1_555
O16 H19 1_555 1_555
O17 H21 1_555 1_555
H9 O9 1_555 1_555
H10 O10 1_555 1_555
H11 O11 1_555 1_555
H12 O12 1_555 1_555
H13 O13 1_555 1_555
H14 O13 1_555 1_555
H15 O14 1_555 1_555
H16 O14 1_555 1_555
H18 O15 1_555 1_555
H20 O16 1_555 1_555
H22 O17 1_555 1_555
Cu1A O8A 1_555 1_555
Cu1A_2 O12 1_555 1_555
Cu2A O3A 1_555 1_555
Cu2A_2 O10 1_555 1_555
Cu2A_3 O11A 1_555 1_555
Cu2A_4 O9A 1_555 1_555
Cu3A O1A_2 1_555 1_555
Cu3A_2 O3 1_555 1_555
Cu3A_3 O1A 1_555 1_555
Cu3_2 O3A 1_555 1_555
Cu4A O4_2 1_555 1_555
Cu4A_2 O4 1_555 1_555
Cu4_2 O4A 1_555 1_555
Cu4A_3 O6A 1_555 1_555
O1A C1A 1_555 1_555
O2A C1A 1_555 1_555
C1A C2A 1_555 1_555
C2A C2 1_555 1_555
H1A C2A 1_555 1_555
H2A C2A 1_555 1_555
O3A C3A 1_555 1_555
O3A_2 Cu3 1_555 1_555
O3_2 Cu3A 1_555 1_555
O4A C3A 1_555 1_555
O4A_2 Cu4 1_555 1_555
C3A C4A 1_555 1_555
C4A C4 1_555 1_555
H3A C4A 1_555 1_555
H4A C4A 1_555 1_555
O5A C5A 1_555 1_555
O6A C5A 1_555 1_555
O6A_2 Cu4A 1_555 1_555
C5A C6A 1_555 1_555
C6A C6 1_555 1_555
H5A C6A 1_555 1_555
H6A C6A 1_555 1_555
O7A Cu3A 1_555 1_555
O8A Cu4A 1_555 1_555
C7A O7A 1_555 1_555
C8A C8 1_555 1_555
H7A C8A 1_555 1_555
H8A C8A 1_555 1_555
O9A Cu1A 1_555 1_555
O9A_2 Cu2A 1_555 1_555
O10A Cu2 1_555 1_555
O10_2 Cu2A_4 1_555 1_555
O10A_2 Cu2A 1_555 1_555
O10_3 Cu2A 1_555 1_555
O11A Cu4 1_555 1_555
O11A_2 Cu1A 1_555 1_555
O11_2 Cu4A 1_555 1_555
O11A_3 Cu2A 1_555 1_555
O12A Cu1 1_555 1_555
O12A_2 Cu1A 1_555 1_555
O12_2 Cu1A 1_555 1_555
O13A Cu2A 1_555 1_555
O14A Cu1A 1_555 1_555
H9A O9A 1_555 1_555
H9A_2 O9A_2 1_555 1_555
H10A O10A 1_555 1_555
H10_2 O10_2 1_555 1_555
H10A_2 O10A_2 1_555 1_555
H10_3 O10_3 1_555 1_555
H11A O11A 1_555 1_555
H11A_2 O11A_2 1_555 1_555
H11_2 O11_2 1_555 1_555
H11A_3 O11A_3 1_555 1_555
H12A O12A 1_555 1_555
H12A_2 O12A_2 1_555 1_555
H12_2 O12_2 1_555 1_555
H13A O13A 1_555 1_555
H14A O13A 1_555 1_555
H15A O14A 1_555 1_555
H16A O14A 1_555 1_555
Cu2 O9 1_555 1_555
Cu2 O11 1_555 1_555
Cu3 O9 1_555 1_555
Cu3 O10A 1_555 1_555
Cu4 O12 1_555 1_555
O8 C7 1_555 1_555
O10 Cu3A_2 1_555 1_555
O11 Cu4A_2 1_555 1_555
Cu1A_2 O11A 1_555 1_555
Cu1A_2 O12A 1_555 1_555
Cu2A_2 O3A_2 1_555 1_555
Cu2A_2 O10A 1_555 1_555
Cu2A_4 O11A_2 1_555 1_555
Cu3A O9A 1_555 1_555
Cu3A O10_2 1_555 1_555
Cu3_2 O10A_2 1_555 1_555
Cu4A O12A_2 1_555 1_555
Cu4A_2 O12A 1_555 1_555
Cu4_2 O11A_3 1_555 1_555
O8A C7A 1_555 1_555
C7A C8A 1_555 1_555

#END
