
#######################################################################
#
#                 Cambridge Crystallographic Data Centre
#                                CCDC 
#
#######################################################################
#
# If this CIF has been generated from an entry in the Cambridge 
# Structural Database, then it will include bibliographic, chemical, 
# crystal, experimental, refinement or atomic coordinate data resulting 
# from the CCDC's data processing and validation procedures.
#
#######################################################################

data_GOLYOX
_symmetry_cell_setting           triclinic
_symmetry_space_group_name_H-M   'P -1'
_symmetry_Int_Tables_number      2
_space_group_name_Hall           '-P 1'
loop_
_symmetry_equiv_pos_site_id
_symmetry_equiv_pos_as_xyz
1 x,y,z
2 -x,-y,-z
_cell_length_a                   14.0905(15)
_cell_length_b                   14.6762(17)
_cell_length_c                   21.5858(14)
_cell_angle_alpha                89.937(2)
_cell_angle_beta                 85.402(3)
_cell_angle_gamma                61.994(2)
_cell_volume                     3925.04
loop_
_atom_site_label
_atom_site_type_symbol
_atom_site_fract_x
_atom_site_fract_y
_atom_site_fract_z
C75 C -0.1724(3) 0.7817(3) 0.64780(19)
H49 H -0.1945 0.7311 0.6600
H50 H -0.1205 0.7800 0.6746
H51 H -0.2341 0.8491 0.6509
C76 C -0.1252(3) 0.7591(3) 0.58492(19)
N5 N -0.0887(3) 0.7400(3) 0.53211(16)
C1 C 0.2213(3) 0.3240(3) 0.74423(17)
C2 C 0.1599(3) 0.4265(3) 0.76459(17)
H1 H 0.1173 0.4428 0.8023
C3 C 0.1614(3) 0.5036(3) 0.72967(16)
C4 C 0.2208(3) 0.4845(3) 0.67292(15)
H2 H 0.2194 0.5387 0.6500
C5 C 0.2821(3) 0.3843(3) 0.65076(15)
C6 C 0.2815(3) 0.3033(3) 0.68723(15)
H3 H 0.3224 0.2352 0.6724
C7 C 0.1391(3) 0.1739(3) 0.85852(16)
H4 H 0.0804 0.1868 0.8867
C8 C 0.1382(3) 0.2564(3) 0.82499(17)
H5 H 0.0810 0.3227 0.8324
C9 C 0.2223(3) 0.2389(3) 0.78109(15)
C10 C 0.3051(3) 0.1402(3) 0.77373(16)
H6 H 0.3644 0.1249 0.7453
C11 C 0.3002(3) 0.0632(3) 0.80888(17)
H7 H 0.3568 -0.0035 0.8020
C12 C 0.4338(3) 0.2512(3) 0.49771(17)
H8 H 0.4504 0.1903 0.4758
C13 C 0.3780(3) 0.2692(3) 0.55491(16)
H9 H 0.3622 0.2186 0.5712
C14 C 0.3449(3) 0.3584(3) 0.58858(16)
C15 C 0.3753(3) 0.4263(3) 0.56153(16)
H10 H 0.3606 0.4866 0.5835
C16 C 0.4276(3) 0.4068(3) 0.50197(15)
H11 H 0.4366 0.4590 0.4824
C17 C 0.0036(3) 0.6568(3) 0.77150(16)
C18 C -0.0225(3) 0.7220(3) 0.82363(15)
H12 H 0.0316 0.7209 0.8461
C19 C -0.1301(3) 0.7889(2) 0.84189(15)
C20 C -0.2115(3) 0.7930(2) 0.80811(14)
H13 H -0.2832 0.8398 0.8199
C21 C -0.1848(3) 0.7264(3) 0.75646(16)
C22 C -0.0768(3) 0.6588(3) 0.73767(16)
H14 H -0.0590 0.6152 0.7026
C23 C -0.4468(3) 0.8162(3) 0.68715(16)
H15 H -0.5105 0.8778 0.6859
C24 C -0.3679(2) 0.8184(3) 0.71703(16)
H16 H -0.3788 0.8801 0.7356
C25 C -0.2710(3) 0.7303(3) 0.72052(15)
C26 C -0.2647(3) 0.6417(3) 0.69368(15)
H17 H -0.2032 0.5788 0.6966
C27 C -0.3477(3) 0.6453(3) 0.66296(16)
H18 H -0.3388 0.5846 0.6440
C28 C -0.0957(3) 0.9219(3) 0.98080(16)
H19 H -0.0380 0.9224 0.9988
C29 C -0.0764(3) 0.8689(3) 0.92874(17)
H20 H -0.0063 0.8376 0.9096
C30 C -0.1557(3) 0.8565(3) 0.90010(14)
C31 C -0.2594(3) 0.9190(3) 0.92655(17)
H21 H -0.3187 0.9225 0.9084
C32 C -0.2735(3) 0.9764(3) 0.98089(17)
H22 H -0.3439 1.0182 0.9979
C33 C 0.5555(3) 0.4290(3) 0.30333(17)
C34 C 0.5172(3) 0.5389(3) 0.28611(15)
C35 C 0.4500(3) 0.6183(3) 0.33003(16)
H23 H 0.4285 0.6031 0.3688
C36 C 0.4168(3) 0.7192(3) 0.31427(17)
H24 H 0.3740 0.7727 0.3432
C37 C 0.4458(3) 0.7415(3) 0.25716(18)
C38 C 0.5141(3) 0.6634(3) 0.21301(18)
H25 H 0.5342 0.6794 0.1741
C39 C 0.5510(3) 0.5609(3) 0.22920(16)
H26 H 0.5986 0.5075 0.2015
C40 C 0.2653(3) 0.9096(3) 0.21765(18)
C41 C 0.1764(3) 0.9864(3) 0.25316(17)
H27 H 0.1860 1.0152 0.2890
C42 C 0.0738(3) 1.0194(3) 0.23462(16)
H28 H 0.0144 1.0711 0.2578
C43 C 0.0592(3) 0.9758(3) 0.18166(17)
C44 C 0.1479(3) 0.8996(3) 0.14639(17)
H29 H 0.1382 0.8710 0.1106
C45 C 0.2515(3) 0.8659(3) 0.16457(16)
H30 H 0.3109 0.8143 0.1412
C46 C -0.0483(3) 1.0120(3) 0.15897(16)
C47 C 0.7045(3) 0.0856(3) 0.35425(16)
C48 C 0.7859(3) -0.0242(3) 0.34712(16)
C49 C 0.7744(3) -0.0967(3) 0.38355(17)
H31 H 0.7131 -0.0765 0.4111
C50 C 0.8541(3) -0.2000(3) 0.37916(17)
H32 H 0.8459 -0.2487 0.4034
C51 C 0.9460(3) -0.2294(3) 0.33821(16)
C52 C 0.9586(3) -0.1578(3) 0.30185(17)
H33 H 1.0204 -0.1782 0.2747
C53 C 0.8784(3) -0.0548(3) 0.30586(16)
H34 H 0.8865 -0.0065 0.2811
C54 C 1.1185(3) -0.3502(3) 0.40174(16)
C55 C 1.0929(3) -0.3789(3) 0.45809(17)
H35 H 1.0500 -0.4115 0.4622
C56 C 1.1339(3) -0.3572(3) 0.50882(17)
H36 H 1.1126 -0.3714 0.5480
C57 C 1.2016(3) -0.3173(3) 0.50563(16)
C58 C 1.2320(3) -0.2929(3) 0.44652(16)
H37 H 1.2798 -0.2657 0.4425
C59 C 1.1898(3) -0.3098(3) 0.39448(18)
H38 H 1.2091 -0.2942 0.3552
C60 C 1.2478(3) -0.2971(3) 0.56220(16)
C61 C 0.7805(3) 0.2564(3) 0.09415(16)
C62 C 0.8014(3) 0.3283(3) 0.05279(16)
C63 C 0.7997(3) 0.4178(3) 0.07951(17)
H39 H 0.7800 0.4340 0.1218
C64 C 0.8268(3) 0.4798(3) 0.04332(16)
H40 H 0.8290 0.5365 0.0610
C65 C 0.8510(3) 0.4574(3) -0.01967(16)
C66 C 0.8578(3) 0.3680(3) -0.04656(18)
H41 H 0.8791 0.3514 -0.0887
C67 C 0.8321(3) 0.3047(3) -0.00942(17)
H42 H 0.8357 0.2452 -0.0269
C68 C 0.7506(3) 0.6204(3) -0.09291(16)
C69 C 0.6844(3) 0.7071(3) -0.05751(18)
H43 H 0.7079 0.7241 -0.0224
C70 C 0.5802(3) 0.7703(3) -0.07456(16)
H44 H 0.5349 0.8303 -0.0509
C71 C 0.5442(3) 0.7450(3) -0.12559(16)
C72 C 0.6132(3) 0.6565(3) -0.16227(16)
H45 H 0.5901 0.6405 -0.1979
C73 C 0.7162(3) 0.5924(3) -0.14526(16)
H46 H 0.7617 0.5317 -0.1683
C74 C 0.4301(3) 0.8126(3) -0.14219(16)
N1 N 0.2206(2) 0.0779(2) 0.85163(13)
N2 N 0.4657(2) 0.3142(2) 0.47164(13)
N3 N -0.4411(2) 0.7316(2) 0.65875(13)
N4 N -0.1960(2) 0.9763(2) 1.00978(13)
Ni1 Ni 0.78772(4) 0.04531(3) 0.09797(2)
Ni2 Ni 0.72372(4) 0.21476(3) 0.22851(2)
O1 O 0.11147(19) 0.60477(18) 0.75252(11)
O2 O 0.53115(19) 0.41132(18) 0.35707(11)
O3 O 0.60823(19) 0.36150(18) 0.26063(11)
O4 O 0.3893(2) 0.93125(19) 0.29269(12)
O5 O 0.4584(2) 0.87714(19) 0.18270(12)
O6 O -0.13537(18) 1.07386(18) 0.18976(11)
O7 O -0.04952(19) 0.97531(18) 0.10642(11)
O8 O 0.6378(2) 0.11279(19) 0.39938(11)
O9 O 0.69445(18) 0.15443(18) 0.31743(10)
O10 O 1.0069(2) -0.42477(19) 0.35085(12)
O11 O 1.1247(2) -0.3739(2) 0.28055(11)
O12 O 1.2058(2) -0.3054(2) 0.61281(12)
Ni3 Ni 0.56837(4) 0.27120(3) 0.38901(2)
O13 O 1.32286(19) -0.27525(18) 0.55333(11)
O14 O 0.7546(2) 0.28352(19) 0.15087(11)
O15 O 0.78725(19) 0.17809(18) 0.06868(11)
O16 O 0.90566(19) 0.60375(19) -0.02990(11)
O17 O 0.95016(19) 0.48152(19) -0.12048(11)
O18 O 0.37289(19) 0.88368(17) -0.10112(11)
O19 O 0.40129(19) 0.79341(19) -0.19309(11)
O20 O 0.83240(19) 0.23874(19) 0.27308(11)
H47 H 0.8141 0.3105 0.2726
H48 H 0.8312 0.2186 0.3154
S1 S 0.39736(7) 0.87228(7) 0.23730(4)
S2 S 1.05218(7) -0.35545(7) 0.33661(4)
S3 S 0.87906(7) 0.54160(7) -0.06775(4)
N1A N 0.7794(2) -0.0779(2) 0.14837(13)
N3A N 0.4411(2) 0.2684(2) 0.34125(13)
N4_2 N 0.8040(2) -0.0237(2) 0.00978(13)
Ni1_2 Ni -0.21228(4) 1.04531(3) 0.09797(2)
Ni1_3 Ni -0.21228(4) 1.04531(3) 1.09797(2)
Ni1A Ni 0.21228(4) -0.04531(3) 0.90203(2)
Ni1A_2 Ni 0.21228(4) 0.95469(3) -0.09797(2)
Ni2_2 Ni -0.27628(4) 1.21476(3) 0.22851(2)
Ni2A Ni 0.27628(4) 0.78524(3) -0.22851(2)
O6_2 O 0.86463(18) 0.07386(18) 0.18976(11)
O7_2 O 0.95048(19) -0.02469(18) 0.10642(11)
Ni3A Ni -0.56837(4) 0.72880(3) 0.61099(2)
Ni3A_2 Ni 1.43163(4) -0.27120(3) 0.61099(2)
O13A O 0.67714(19) 0.27525(18) 0.44667(11)
O18A O 0.62711(19) 0.11632(17) 0.10112(11)
O19A O 0.59871(19) 0.20659(19) 0.19309(11)
C77? C 1.0877(6) -0.0879(7) 0.3906(4)
H52? H 1.0765 -0.1465 0.3853
H53? H 1.1624 -0.1074 0.3875
H54? H 1.0530 -0.0390 0.3591
C78? C 1.0397(7) -0.0388(7) 0.4510(3)
N6? N 1.0000 0.0000 0.5000
loop_
_geom_bond_atom_site_label_1
_geom_bond_atom_site_label_2
_geom_bond_site_symmetry_1
_geom_bond_site_symmetry_2
C1 C2 1_555 1_555
C2 H1 1_555 1_555
C3 C2 1_555 1_555
C4 C3 1_555 1_555
H2 C4 1_555 1_555
C5 C4 1_555 1_555
C6 C1 1_555 1_555
H3 C6 1_555 1_555
C7 H4 1_555 1_555
C8 C7 1_555 1_555
H5 C8 1_555 1_555
C9 C1 1_555 1_555
C10 C9 1_555 1_555
H6 C10 1_555 1_555
C11 C10 1_555 1_555
H7 C11 1_555 1_555
C12 H8 1_555 1_555
C13 C12 1_555 1_555
H9 C13 1_555 1_555
C14 C5 1_555 1_555
C15 C14 1_555 1_555
H10 C15 1_555 1_555
C16 C15 1_555 1_555
H11 C16 1_555 1_555
C17 C18 1_555 1_555
C18 H12 1_555 1_555
C19 C18 1_555 1_555
C20 C19 1_555 1_555
H13 C20 1_555 1_555
C21 C20 1_555 1_555
C22 C17 1_555 1_555
H14 C22 1_555 1_555
C23 H15 1_555 1_555
C24 C23 1_555 1_555
H16 C24 1_555 1_555
C25 C21 1_555 1_555
C26 C25 1_555 1_555
H17 C26 1_555 1_555
C27 C26 1_555 1_555
H18 C27 1_555 1_555
C28 H19 1_555 1_555
C29 C28 1_555 1_555
H20 C29 1_555 1_555
C30 C19 1_555 1_555
C31 C30 1_555 1_555
H21 C31 1_555 1_555
C32 C31 1_555 1_555
H22 C32 1_555 1_555
C33 C34 1_555 1_555
C34 C35 1_555 1_555
C35 H23 1_555 1_555
C36 C35 1_555 1_555
H24 C36 1_555 1_555
C37 C36 1_555 1_555
C38 C37 1_555 1_555
H25 C38 1_555 1_555
C39 C34 1_555 1_555
H26 C39 1_555 1_555
C40 C41 1_555 1_555
C41 H27 1_555 1_555
C42 C41 1_555 1_555
H28 C42 1_555 1_555
C43 C42 1_555 1_555
C44 C43 1_555 1_555
H29 C44 1_555 1_555
C45 C40 1_555 1_555
H30 C45 1_555 1_555
C46 C43 1_555 1_555
C47 C48 1_555 1_555
C48 C49 1_555 1_555
C49 H31 1_555 1_555
C50 C49 1_555 1_555
H32 C50 1_555 1_555
C51 C50 1_555 1_555
C52 C51 1_555 1_555
H33 C52 1_555 1_555
C53 C48 1_555 1_555
H34 C53 1_555 1_555
C54 C55 1_555 1_555
C55 H35 1_555 1_555
C56 C55 1_555 1_555
H36 C56 1_555 1_555
C57 C56 1_555 1_555
C58 C57 1_555 1_555
H37 C58 1_555 1_555
C59 C54 1_555 1_555
H38 C59 1_555 1_555
C60 C57 1_555 1_555
C61 C62 1_555 1_555
C62 C63 1_555 1_555
C63 H39 1_555 1_555
C64 C63 1_555 1_555
H40 C64 1_555 1_555
C65 C64 1_555 1_555
C66 C65 1_555 1_555
H41 C66 1_555 1_555
C67 C62 1_555 1_555
H42 C67 1_555 1_555
C68 C69 1_555 1_555
C69 H43 1_555 1_555
C70 C69 1_555 1_555
H44 C70 1_555 1_555
C71 C70 1_555 1_555
C72 C71 1_555 1_555
H45 C72 1_555 1_555
C73 C68 1_555 1_555
H46 C73 1_555 1_555
C74 C71 1_555 1_555
N1 C7 1_555 1_555
N2 C12 1_555 1_555
N3 C23 1_555 1_555
N4 C28 1_555 1_555
Ni1 O15 1_555 1_555
Ni2 O3 1_555 1_555
O1 C3 1_555 1_555
O2 C33 1_555 1_555
O3 C33 1_555 1_555
O4 S1 1_555 1_555
O5 S1 1_555 1_555
O6 C46 1_555 1_555
O7 C46 1_555 1_555
O8 C47 1_555 1_555
O9 C47 1_555 1_555
O10 S2 1_555 1_555
O11 S2 1_555 1_555
O12 C60 1_555 1_555
Ni3 N2 1_555 1_555
O13 C60 1_555 1_555
O14 C61 1_555 1_555
O15 C61 1_555 1_555
O16 S3 1_555 1_555
O17 S3 1_555 1_555
O18 C74 1_555 1_555
O19 C74 1_555 1_555
O20 Ni2 1_555 1_555
H47 O20 1_555 1_555
H48 O20 1_555 1_555
S1 C37 1_555 1_555
S2 C51 1_555 1_555
S3 C65 1_555 1_555
C75 H49 1_555 1_555
H50 C75 1_555 1_555
H51 C75 1_555 1_555
C76 C75 1_555 1_555
N5 C76 1_555 1_555
N1A Ni1 1_555 1_555
N3A Ni3 1_555 1_555
N4_2 Ni1 1_555 1_555
Ni1_2 O6 1_555 1_555
Ni1_3 N4 1_555 1_555
Ni1A N1 1_555 1_555
Ni1A_2 O18 1_555 1_555
Ni2_2 O6 1_555 1_555
Ni2A O19 1_555 1_555
O6_2 Ni1 1_555 1_555
O7_2 Ni1 1_555 1_555
Ni3A N3 1_555 1_555
Ni3A_2 O13 1_555 1_555
O13A Ni3 1_555 1_555
O18A Ni1 1_555 1_555
O19A Ni2 1_555 1_555
C5 C6 1_555 1_555
C8 C9 1_555 1_555
C11 N1 1_555 1_555
C13 C14 1_555 1_555
C16 N2 1_555 1_555
C17 O1 1_555 1_555
C21 C22 1_555 1_555
C24 C25 1_555 1_555
C27 N3 1_555 1_555
C29 C30 1_555 1_555
C32 N4 1_555 1_555
C38 C39 1_555 1_555
C40 S1 1_555 1_555
C44 C45 1_555 1_555
C52 C53 1_555 1_555
C54 S2 1_555 1_555
C58 C59 1_555 1_555
C66 C67 1_555 1_555
C68 S3 1_555 1_555
C72 C73 1_555 1_555
Ni2 O9 1_555 1_555
Ni2 O14 1_555 1_555
Ni2 O6_2 1_555 1_555
O2 Ni3 1_555 1_555
O7 Ni1_2 1_555 1_555
O8 Ni3 1_555 1_555
O9 Ni3 1_555 1_555

#END
