
#######################################################################
#
#                 Cambridge Crystallographic Data Centre
#                                CCDC 
#
#######################################################################
#
# If this CIF has been generated from an entry in the Cambridge 
# Structural Database, then it will include bibliographic, chemical, 
# crystal, experimental, refinement or atomic coordinate data resulting 
# from the CCDC's data processing and validation procedures.
#
#######################################################################

data_GOMFUL
_symmetry_cell_setting           monoclinic
_symmetry_space_group_name_H-M   'P 21/c'
_symmetry_Int_Tables_number      14
_space_group_name_Hall           '-P 2ybc'
loop_
_symmetry_equiv_pos_site_id
_symmetry_equiv_pos_as_xyz
1 x,y,z
2 -x,1/2+y,1/2-z
3 -x,-y,-z
4 x,1/2-y,1/2+z
_cell_length_a                   22.666(5)
_cell_length_b                   34.027(7)
_cell_length_c                   8.3431(17)
_cell_angle_alpha                90
_cell_angle_beta                 97.11(3)
_cell_angle_gamma                90
_cell_volume                     6385.19
loop_
_atom_site_label
_atom_site_type_symbol
_atom_site_fract_x
_atom_site_fract_y
_atom_site_fract_z
C1 C 0.1702(5) 0.7426(5) -0.0590(18)
C2 C 0.1403(5) 0.7825(5) -0.118(4)
H1 H 0.1017 0.7877 -0.1722
C3 C 0.1859(6) 0.8071(6) -0.0694(17)
H2 H 0.1858 0.8343 -0.0943
C4 C 0.2316(7) 0.7886(6) 0.018(2)
C5 C 0.2828(6) 0.8095(5) 0.115(2)
C6 C 0.3297(4) 0.7886(6) 0.1885(16)
C7 C 0.3801(7) 0.8089(5) 0.297(2)
H3 H 0.3851 0.8356 0.3292
C8 C 0.4146(5) 0.7780(5) 0.3307(13)
H4 H 0.4523 0.7819 0.3926
C9 C 0.4001(6) 0.7436(6) 0.285(2)
C10 C 0.4249(5) 0.7060(5) 0.2833(18)
C11 C 0.4044(7) 0.6715(5) 0.2411(19)
C12 C 0.4296(6) 0.6360(5) 0.2434(18)
H5 H 0.4711 0.6318 0.2706
C13 C 0.3908(7) 0.6067(5) 0.2037(19)
H6 H 0.3982 0.5792 0.2079
C14 C 0.3364(6) 0.6261(5) 0.154(2)
C15 C 0.2809(6) 0.6063(5) 0.1079(19)
C16 C 0.2270(7) 0.6270(6) 0.0644(19)
C17 C 0.1710(5) 0.6074(5) 0.026(2)
H7 H 0.1639 0.5802 0.0405
C18 C 0.1317(7) 0.6330(6) -0.032(2)
H8 H 0.0912 0.6282 -0.0716
C19 C 0.1648(6) 0.6732(5) -0.022(2)
C20 C 0.1375(6) 0.7089(6) -0.0849(17)
C21 C 0.2798(7) 0.8532(5) 0.1057(19)
C22 C 0.2351(6) 0.8743(6) 0.1663(16)
H9 H 0.2045 0.8606 0.2110
C23 C 0.2343(7) 0.9128(6) 0.163(2)
H10 H 0.2014 0.9262 0.1976
C24 C 0.2827(12) 0.9359(6) 0.107(3)
H11 H 0.2834 0.9638 0.1088
C25 C 0.3252(13) 0.9143(6) 0.055(3)
H12 H 0.3568 0.9276 0.0134
C26 C 0.3266(9) 0.8733(5) 0.058(3)
H13 H 0.3598 0.8596 0.0269
C27 C 0.4891(5) 0.7069(5) 0.3525(18)
C28 C 0.5327(4) 0.7285(5) 0.2705(14)
H14 H 0.5223 0.7413 0.1697
C29 C 0.5894(5) 0.7289(6) 0.349(2)
H15 H 0.6186 0.7450 0.3090
C30 C 0.6063(6) 0.7048(6) 0.496(2)
C31 C 0.5640(8) 0.6850(6) 0.570(3)
H16 H 0.5745 0.6707 0.6670
C32 C 0.5089(6) 0.6867(5) 0.502(2)
H17 H 0.4797 0.6735 0.5542
C33 C 0.2810(7) 0.5632(5) 0.105(2)
C34 C 0.3091(9) 0.5429(8) 0.009(3)
H18 H 0.3309 0.5573 -0.0619
C35 C 0.3107(13) 0.5009(8) -0.003(3)
H19 H 0.3332 0.4871 -0.0737
C36 C 0.2769(13) 0.4830(7) 0.097(5)
C37 C 0.2485(12) 0.5010(7) 0.214(4)
H20 H 0.2304 0.4862 0.2910
C38 C 0.2476(7) 0.5416(6) 0.213(2)
H21 H 0.2249 0.5554 0.2830
C39 C 0.0743(6) 0.7077(6) -0.160(2)
C40 C 0.0270(9) 0.7259(6) -0.1192(17)
H22 H 0.0392 0.7448 -0.0380
C41 C -0.0303(9) 0.7268(8) -0.151(3)
H23 H -0.0563 0.7399 -0.0877
C42 C -0.0477(5) 0.7068(7) -0.286(3)
C43 C -0.0060(7) 0.6837(6) -0.357(2)
H24 H -0.0187 0.6670 -0.4458
C44 C 0.0573(6) 0.6856(6) -0.291(3)
H25 H 0.0859 0.6713 -0.3414
N1 N 0.2225(4) 0.7492(4) 0.0225(17)
N2 N 0.3392(4) 0.7502(5) 0.1865(14)
N3 N 0.3419(5) 0.6643(5) 0.1717(17)
N4 N 0.2207(5) 0.6660(4) 0.0425(14)
O1 O 0.7018(5) 0.7464(5) 0.593(2)
O2 O 0.7152(6) 0.6904(7) 0.4424(19)
O3 O 0.6939(6) 0.6813(4) 0.688(2)
O4 O 0.249(2) 0.4191(11) -0.076(6)
O5 O 0.3258(13) 0.4188(8) 0.212(12)
O6 O 0.230(2) 0.4166(7) 0.176(8)
O7 O -0.1215(4) 0.6942(7) -0.5434(18)
O8 O -0.1440(5) 0.7425(7) -0.365(3)
O9 O -0.1490(8) 0.6788(9) -0.248(5)
S1 S 0.68622(18) 0.7064(2) 0.5624(8)
S2 S 0.2759(9) 0.4282(3) 0.099(2)
S3 S -0.12100(19) 0.7029(3) -0.3670(9)
K1 K 0.7845(3) 0.7415(5) 0.8724(12)
K2 K 0.7735(4) 0.6248(3) 0.5531(17)
K3 K 0.6795(5) 0.8248(4) 0.5761(18)
Pt1 Pt 0.28197(2) 0.707591(19) 0.10542(8)
O1C O 0.7018(5) 0.7536(5) 1.093(2)
O2C O 0.7152(6) 0.8096(7) 0.9424(19)
O3C O 0.6939(6) 0.8187(4) 0.188(2)
O6B O 0.770(2) 0.5834(7) 0.824(8)
O7C O 0.8785(4) 0.8058(7) 0.9566(18)
O8_2 O 0.8560(5) 0.7425(7) 0.635(3)
O8C O 0.8560(5) 0.7575(7) 1.135(3)
O9_2 O 0.8510(8) 0.6788(9) 0.752(5)
K1_2 K -0.2155(3) 0.7415(5) -0.1276(12)
K1C K -0.2155(3) 0.7585(5) -0.6276(12)
K1C_2 K 0.7845(3) 0.7585(5) 0.3724(12)
K2_2 K -0.2265(4) 0.6248(3) -0.4469(17)
K2B K 0.2265(4) 0.3752(3) 0.4469(17)
K3C K 0.6795(5) 0.6752(4) 0.0761(18)
K3C_2 K 0.6795(5) 0.6752(4) 1.0761(18)
loop_
_geom_bond_atom_site_label_1
_geom_bond_atom_site_label_2
_geom_bond_site_symmetry_1
_geom_bond_site_symmetry_2
C1 C2 1_555 1_555
C2 H1 1_555 1_555
C3 C2 1_555 1_555
H2 C3 1_555 1_555
C4 C3 1_555 1_555
C5 C4 1_555 1_555
C6 C5 1_555 1_555
C7 C6 1_555 1_555
H3 C7 1_555 1_555
C8 C7 1_555 1_555
H4 C8 1_555 1_555
C9 C8 1_555 1_555
C10 C9 1_555 1_555
C11 C10 1_555 1_555
C12 C11 1_555 1_555
H5 C12 1_555 1_555
C13 C12 1_555 1_555
H6 C13 1_555 1_555
C14 C13 1_555 1_555
C15 C14 1_555 1_555
C16 C15 1_555 1_555
C17 C16 1_555 1_555
H7 C17 1_555 1_555
C18 C17 1_555 1_555
H8 C18 1_555 1_555
C19 C18 1_555 1_555
C20 C1 1_555 1_555
C21 C5 1_555 1_555
C22 C21 1_555 1_555
H9 C22 1_555 1_555
C23 C22 1_555 1_555
H10 C23 1_555 1_555
C24 C23 1_555 1_555
H11 C24 1_555 1_555
C25 C24 1_555 1_555
H12 C25 1_555 1_555
C26 C21 1_555 1_555
H13 C26 1_555 1_555
C27 C10 1_555 1_555
C28 C27 1_555 1_555
H14 C28 1_555 1_555
C29 C28 1_555 1_555
H15 C29 1_555 1_555
C30 C29 1_555 1_555
C31 C30 1_555 1_555
H16 C31 1_555 1_555
C32 C27 1_555 1_555
H17 C32 1_555 1_555
C33 C15 1_555 1_555
C34 C33 1_555 1_555
H18 C34 1_555 1_555
C35 C34 1_555 1_555
H19 C35 1_555 1_555
C36 C35 1_555 1_555
C37 C36 1_555 1_555
H20 C37 1_555 1_555
C38 C33 1_555 1_555
H21 C38 1_555 1_555
C39 C20 1_555 1_555
C40 C39 1_555 1_555
H22 C40 1_555 1_555
C41 C40 1_555 1_555
H23 C41 1_555 1_555
C42 C41 1_555 1_555
C43 C42 1_555 1_555
H24 C43 1_555 1_555
C44 C39 1_555 1_555
H25 C44 1_555 1_555
N1 C1 1_555 1_555
N2 C6 1_555 1_555
N3 C11 1_555 1_555
N4 C16 1_555 1_555
O1 S1 1_555 1_555
O2 S1 1_555 1_555
O3 S1 1_555 1_555
O4 S2 1_555 1_555
O5 S2 1_555 1_555
O6 S2 1_555 1_555
O7 S3 1_555 1_555
O8 S3 1_555 1_555
O9 S3 1_555 1_555
S1 C30 1_555 1_555
S2 C36 1_555 1_555
S3 C42 1_555 1_555
K1 O1 1_555 1_555
K2 O2 1_555 1_555
K3 O1 1_555 1_555
Pt1 N1 1_555 1_555
O1C K1 1_555 1_555
O2C K1 1_555 1_555
O3C K3 1_555 1_555
O6B K2 1_555 1_555
O7C K1 1_555 1_555
O8_2 K1 1_555 1_555
O8C K1 1_555 1_555
O9_2 K1 1_555 1_555
K1_2 O8 1_555 1_555
K1C O7 1_555 1_555
K1C_2 O1 1_555 1_555
K2_2 O9 1_555 1_555
K2B O6 1_555 1_555
K3C O2 1_555 1_555
K3C_2 O3 1_555 1_555
C4 N1 1_555 1_555
C9 N2 1_555 1_555
C14 N3 1_555 1_555
C19 C20 1_555 1_555
C19 N4 1_555 1_555
C25 C26 1_555 1_555
C31 C32 1_555 1_555
C37 C38 1_555 1_555
C43 C44 1_555 1_555
N2 Pt1 1_555 1_555
N3 Pt1 1_555 1_555
N4 Pt1 1_555 1_555
O2 K1C_2 1_555 1_555
O3 K1 1_555 1_555
O3 K2 1_555 1_555
O8 K1C 1_555 1_555
O9 K1_2 1_555 1_555
K2 O9_2 1_555 1_555
K3 O2C 1_555 1_555
O1C K3C_2 1_555 1_555
O3C K1C_2 1_555 1_555
O8_2 K1C_2 1_555 1_555

#END
