
#######################################################################
#
#                 Cambridge Crystallographic Data Centre
#                                CCDC 
#
#######################################################################
#
# If this CIF has been generated from an entry in the Cambridge 
# Structural Database, then it will include bibliographic, chemical, 
# crystal, experimental, refinement or atomic coordinate data resulting 
# from the CCDC's data processing and validation procedures.
#
#######################################################################

data_GORLIK
_symmetry_cell_setting           monoclinic
_symmetry_space_group_name_H-M   'C 2/c'
_symmetry_Int_Tables_number      15
_space_group_name_Hall           '-C 2yn'
loop_
_symmetry_equiv_pos_site_id
_symmetry_equiv_pos_as_xyz
1 x,y,z
2 -x,y,1/2-z
3 1/2+x,1/2+y,z
4 1/2-x,1/2+y,1/2-z
5 -x,-y,-z
6 x,-y,1/2+z
7 1/2-x,1/2-y,-z
8 1/2+x,1/2-y,1/2+z
_cell_length_a                   31.136(9)
_cell_length_b                   20.048(6)
_cell_length_c                   15.849(4)
_cell_angle_alpha                90
_cell_angle_beta                 108.347(5)
_cell_angle_gamma                90
_cell_volume                     9390.28
loop_
_atom_site_label
_atom_site_type_symbol
_atom_site_fract_x
_atom_site_fract_y
_atom_site_fract_z
Cd1 Cd 0.23369(2) 0.07571(4) -0.04346(5)
Cd2 Cd 0.2500 0.2500 0.0000
N1 N 0.2434(4) -0.0356(4) -0.0758(8)
N2 N 0.1910(4) 0.0489(5) -0.1935(7)
C1 C 0.4579(3) 0.1915(6) 0.5989(7)
C2 C 0.4373(3) 0.1503(5) 0.5161(6)
H1 H 0.4187 0.1152 0.5267
H2 H 0.4610 0.1307 0.4973
C3 C 0.4202(3) 0.2251(5) 0.6249(7)
H3 H 0.4045 0.2568 0.5805
H4 H 0.4322 0.2479 0.6807
C4 C 0.4837(4) 0.1440(5) 0.6718(6)
H5 H 0.5115 0.1304 0.6628
H6 H 0.4661 0.1050 0.6732
C5 C 0.4897(4) 0.2475(4) 0.5836(7)
H7 H 0.5052 0.2703 0.6379
H8 H 0.4720 0.2792 0.5416
C6 C 0.3836(4) 0.1712(5) 0.3732(7)
C7 C 0.3564(5) 0.2169(6) 0.3110(7)
H9 H 0.3589 0.2622 0.3240
C8 C 0.3276(4) 0.1965(5) 0.2347(7)
H10 H 0.3097 0.2280 0.1963
C9 C 0.3229(4) 0.1304(5) 0.2101(6)
C10 C 0.3486(5) 0.0819(6) 0.2687(9)
H11 H 0.3462 0.0370 0.2533
C11 C 0.3776(4) 0.1029(6) 0.3504(8)
H12 H 0.3935 0.0712 0.3911
C12 C 0.2926(3) 0.1066(5) 0.1229(7)
C13 C 0.3660(4) 0.1774(6) 0.6884(7)
C14 C 0.3441(4) 0.1197(6) 0.6977(7)
H13 H 0.3473 0.0812 0.6675
C15 C 0.3170(4) 0.1194(6) 0.7529(8)
H14 H 0.3019 0.0805 0.7587
C16 C 0.3124(4) 0.1745(5) 0.7982(8)
C17 C 0.3345(4) 0.2329(5) 0.7879(8)
H15 H 0.3325 0.2708 0.8204
C18 C 0.3592(4) 0.2346(5) 0.7297(8)
H16 H 0.3714 0.2747 0.7184
C19 C 0.2864(4) 0.1725(6) 0.8633(8)
C20 C 0.5531(4) 0.2522(5) 0.5291(8)
C21 C 0.5626(4) 0.3171(6) 0.5527(8)
H17 H 0.5453 0.3401 0.5815
C22 C 0.5975(4) 0.3486(6) 0.5340(8)
H18 H 0.6039 0.3929 0.5508
C23 C 0.6237(3) 0.3152(5) 0.4902(6)
C24 C 0.6125(4) 0.2514(5) 0.4664(8)
H19 H 0.6291 0.2280 0.4366
C25 C 0.5771(4) 0.2199(6) 0.4848(9)
H20 H 0.5698 0.1761 0.4665
C26 C 0.6622(3) 0.3483(5) 0.4733(6)
C27 C 0.2631(6) -0.0811(7) -0.0177(10)
H21 H 0.2719 -0.0675 0.0414
C28 C 0.2719(8) -0.1406(10) -0.0302(14)
H22 H 0.2862 -0.1687 0.0171
C29 C 0.2587(6) -0.1646(9) -0.1239(15)
H23 H 0.2659 -0.2070 -0.1391
C30 C 0.2355(6) -0.1203(8) -0.1849(13)
H24 H 0.2239 -0.1325 -0.2444
C31 C 0.2289(5) -0.0566(7) -0.1584(11)
C32 C 0.2016(5) -0.0051(8) -0.2269(10)
C33 C 0.1898(8) -0.0178(10) -0.3207(11)
H25 H 0.1988 -0.0564 -0.3431
C34 C 0.1649(11) 0.0298(12) -0.3739(13)
H26 H 0.1565 0.0243 -0.4353
C35 C 0.1518(11) 0.0850(10) -0.3404(12)
H27 H 0.1331 0.1162 -0.3779
C36 C 0.1665(7) 0.0946(8) -0.2505(10)
H28 H 0.1592 0.1343 -0.2278
O1 O 0.5000 0.1835(5) 0.7500
O2 O 0.4111(2) 0.1962(4) 0.4466(4)
O3 O 0.3905(3) 0.1731(4) 0.6308(5)
O4 O 0.5199(3) 0.2161(4) 0.5465(6)
O5 O 0.2735(3) 0.1497(4) 0.0686(5)
O6 O 0.2855(3) 0.0464(4) 0.1051(5)
O7 O 0.2762(3) 0.1184(5) 0.8816(7)
O8 O 0.2768(3) 0.2277(4) 0.8926(5)
O9 O 0.6701(3) 0.4095(3) 0.4952(5)
O10 O 0.6857(2) 0.3165(3) 0.4345(4)
C1A C 0.5421(3) 0.1915(6) 0.9011(7)
C2A C 0.5627(3) 0.1503(5) 0.9839(6)
H1A H 0.5813 0.1152 0.9733
H2A H 0.5390 0.1307 1.0027
C3A C 0.5798(3) 0.2251(5) 0.8751(7)
H3A H 0.5955 0.2568 0.9195
H4A H 0.5678 0.2479 0.8193
C4A C 0.5163(4) 0.1440(5) 0.8282(6)
H5A H 0.4885 0.1304 0.8372
H6A H 0.5339 0.1050 0.8268
C5A C 0.5103(4) 0.2475(4) 0.9164(7)
H7A H 0.4948 0.2703 0.8621
H8A H 0.5280 0.2792 0.9584
C6A C 0.6164(4) 0.1712(5) 1.1268(7)
C7A C 0.6436(5) 0.2169(6) 1.1890(7)
H9A H 0.6411 0.2622 1.1760
C8A C 0.6724(4) 0.1965(5) 1.2653(7)
H10A H 0.6903 0.2280 1.3037
C9A C 0.6771(4) 0.1304(5) 1.2899(6)
C10A C 0.6514(5) 0.0819(6) 1.2313(9)
H11A H 0.6538 0.0370 1.2467
C11A C 0.6224(4) 0.1029(6) 1.1496(8)
H12A H 0.6065 0.0712 1.1089
C12A C 0.7074(3) 0.1066(5) 1.3771(7)
C13A C 0.6340(4) 0.1774(6) 0.8116(7)
C14A C 0.6559(4) 0.1197(6) 0.8023(7)
H13A H 0.6527 0.0812 0.8325
C15A C 0.6830(4) 0.1194(6) 0.7471(8)
H14A H 0.6981 0.0805 0.7413
C16A C 0.6876(4) 0.1745(5) 0.7018(8)
C17A C 0.6655(4) 0.2329(5) 0.7121(8)
H15A H 0.6675 0.2708 0.6796
C18A C 0.6408(4) 0.2346(5) 0.7703(8)
H16A H 0.6286 0.2747 0.7816
C19A C 0.7136(4) 0.1725(6) 0.6367(8)
C20A C 0.4469(4) 0.2522(5) 0.9709(8)
C21A C 0.4374(4) 0.3171(6) 0.9473(8)
H17A H 0.4547 0.3401 0.9185
C22A C 0.4025(4) 0.3486(6) 0.9660(8)
H18A H 0.3961 0.3929 0.9492
C23A C 0.3763(3) 0.3152(5) 1.0098(6)
C24A C 0.3875(4) 0.2514(5) 1.0336(8)
H19A H 0.3709 0.2280 1.0634
C25A C 0.4229(4) 0.2199(6) 1.0152(9)
H20A H 0.4302 0.1761 1.0335
C26A C 0.3378(3) 0.3483(5) 1.0267(6)
O2A O 0.5889(2) 0.1962(4) 1.0534(4)
O3A O 0.6095(3) 0.1731(4) 0.8692(5)
O4A O 0.4801(3) 0.2161(4) 0.9535(6)
O5A O 0.7265(3) 0.1497(4) 1.4314(5)
O6A O 0.7145(3) 0.0464(4) 1.3949(5)
O7A O 0.7238(3) 0.1184(5) 0.6184(7)
O8A O 0.7232(3) 0.2277(4) 0.6074(5)
O9A O 0.3299(3) 0.4095(3) 1.0048(5)
O10A O 0.3143(2) 0.3165(3) 1.0655(4)
Cd1A Cd 0.76631(2) 0.07571(4) 0.54346(5)
N1A N 0.7566(4) -0.0356(4) 0.5758(8)
N2A N 0.8090(4) 0.0489(5) 0.6935(7)
C27A C 0.7369(6) -0.0811(7) 0.5177(10)
H21A H 0.7281 -0.0675 0.4586
C28A C 0.7281(8) -0.1406(10) 0.5302(14)
H22A H 0.7138 -0.1687 0.4829
C29A C 0.7413(6) -0.1646(9) 0.6239(15)
H23A H 0.7341 -0.2070 0.6391
C30A C 0.7645(6) -0.1203(8) 0.6849(13)
H24A H 0.7761 -0.1325 0.7444
C31A C 0.7711(5) -0.0566(7) 0.6584(11)
C32A C 0.7984(5) -0.0051(8) 0.7269(10)
C33A C 0.8102(8) -0.0178(10) 0.8207(11)
H25A H 0.8012 -0.0564 0.8431
C34A C 0.8351(11) 0.0298(12) 0.8739(13)
H26A H 0.8435 0.0243 0.9353
C35A C 0.8482(11) 0.0850(10) 0.8404(12)
H27A H 0.8669 0.1162 0.8779
C36A C 0.8335(7) 0.0946(8) 0.7505(10)
H28A H 0.8408 0.1343 0.7278
Cd1_2 Cd 0.23369(2) 0.07571(4) 0.95654(5)
Cd1A_2 Cd 0.76631(2) 0.07571(4) 1.54346(5)
Cd1F Cd 0.26631(2) 0.42429(4) 1.04346(5)
Cd1G Cd 0.73369(2) 0.42429(4) 0.45654(5)
Cd2_2 Cd 0.2500 0.2500 1.0000
Cd2A Cd 0.7500 0.2500 0.5000
Cd2A_2 Cd 0.7500 0.2500 1.5000
O5A_2 O 0.7265(3) 0.1497(4) 0.4314(5)
O5F O 0.2265(3) 0.3503(4) -0.0686(5)
O6A_2 O 0.7145(3) 0.0464(4) 0.3949(5)
O7_2 O 0.2762(3) 0.1184(5) -0.1184(7)
O8_2 O 0.2768(3) 0.2277(4) -0.1074(5)
O8F O 0.2232(3) 0.2723(4) 0.1074(5)
O9F O 0.8299(3) 0.0905(3) 0.5048(5)
O9G O 0.1701(3) 0.0905(3) -0.0048(5)
O10A_2 O 0.3143(2) 0.3165(3) 0.0655(4)
O10F O 0.8143(2) 0.1835(3) 0.5655(4)
O10G O 0.1857(2) 0.1835(3) -0.0655(4)
N3 N 0.5848(8) 0.0406(9) 0.491(2)
C37 C 0.5638(9) 0.0499(12) 0.5662(18)
H29 H 0.5314 0.0470 0.5442
H30 H 0.5754 0.0158 0.6099
H31 H 0.5724 0.0929 0.5928
C38 C 0.6307(7) 0.0435(13) 0.499(2)
H32 H 0.6341 0.0365 0.4414
H33 H 0.6433 0.0861 0.5217
H34 H 0.6463 0.0089 0.5387
C39 C 0.5525(12) 0.0381(12) 0.417(3)
C40 C 0.5718(12) 0.0359(9) 0.326(3)
H35 H 0.5469 0.0338 0.2714
H36 H 0.5892 0.0754 0.3255
H37 H 0.5906 -0.0027 0.3301
O11 O 0.5101(6) 0.0434(10) 0.394(2)
loop_
_geom_bond_atom_site_label_1
_geom_bond_atom_site_label_2
_geom_bond_site_symmetry_1
_geom_bond_site_symmetry_2
Cd1 N1 1_555 1_555
Cd2 O5 1_555 1_555
N1 C27 1_555 1_555
N2 Cd1 1_555 1_555
C1 C2 1_555 1_555
C2 H1 1_555 1_555
H2 C2 1_555 1_555
C3 C1 1_555 1_555
H3 C3 1_555 1_555
H4 C3 1_555 1_555
C4 C1 1_555 1_555
H5 C4 1_555 1_555
H6 C4 1_555 1_555
C5 C1 1_555 1_555
H7 C5 1_555 1_555
H8 C5 1_555 1_555
C6 C7 1_555 1_555
C7 H9 1_555 1_555
C8 C7 1_555 1_555
H10 C8 1_555 1_555
C9 C8 1_555 1_555
C10 C9 1_555 1_555
H11 C10 1_555 1_555
C11 C6 1_555 1_555
H12 C11 1_555 1_555
C12 C9 1_555 1_555
C13 C14 1_555 1_555
C14 H13 1_555 1_555
C15 C14 1_555 1_555
H14 C15 1_555 1_555
C16 C15 1_555 1_555
C17 C16 1_555 1_555
H15 C17 1_555 1_555
C18 C13 1_555 1_555
H16 C18 1_555 1_555
C19 C16 1_555 1_555
C20 C21 1_555 1_555
C21 H17 1_555 1_555
C22 C21 1_555 1_555
H18 C22 1_555 1_555
C23 C22 1_555 1_555
C24 C23 1_555 1_555
H19 C24 1_555 1_555
C25 C20 1_555 1_555
H20 C25 1_555 1_555
C26 C23 1_555 1_555
C27 H21 1_555 1_555
C28 C27 1_555 1_555
H22 C28 1_555 1_555
C29 C28 1_555 1_555
H23 C29 1_555 1_555
C30 C29 1_555 1_555
H24 C30 1_555 1_555
C31 N1 1_555 1_555
C32 N2 1_555 1_555
C33 C32 1_555 1_555
H25 C33 1_555 1_555
C34 C33 1_555 1_555
H26 C34 1_555 1_555
C35 C34 1_555 1_555
H27 C35 1_555 1_555
C36 N2 1_555 1_555
H28 C36 1_555 1_555
O1 C4 1_555 1_555
O2 C2 1_555 1_555
O3 C3 1_555 1_555
O4 C5 1_555 1_555
O5 Cd1 1_555 1_555
O6 Cd1 1_555 1_555
O7 C19 1_555 1_555
O8 C19 1_555 1_555
O9 C26 1_555 1_555
O10 C26 1_555 1_555
N3 C37 1_555 1_555
C37 H29 1_555 1_555
H30 C37 1_555 1_555
H31 C37 1_555 1_555
C38 N3 1_555 1_555
H32 C38 1_555 1_555
H33 C38 1_555 1_555
H34 C38 1_555 1_555
C39 N3 1_555 1_555
C40 C39 1_555 1_555
H35 C40 1_555 1_555
H36 C40 1_555 1_555
H37 C40 1_555 1_555
O11 C39 1_555 1_555
C1A C2A 1_555 1_555
C2A H1A 1_555 1_555
H2A C2A 1_555 1_555
C3A C1A 1_555 1_555
H3A C3A 1_555 1_555
H4A C3A 1_555 1_555
C4A O1 1_555 1_555
H5A C4A 1_555 1_555
H6A C4A 1_555 1_555
C5A C1A 1_555 1_555
H7A C5A 1_555 1_555
H8A C5A 1_555 1_555
C6A C7A 1_555 1_555
C7A H9A 1_555 1_555
C8A C7A 1_555 1_555
H10A C8A 1_555 1_555
C9A C8A 1_555 1_555
C10A C9A 1_555 1_555
H11A C10A 1_555 1_555
C11A C6A 1_555 1_555
H12A C11A 1_555 1_555
C12A C9A 1_555 1_555
C13A C14A 1_555 1_555
C14A H13A 1_555 1_555
C15A C14A 1_555 1_555
H14A C15A 1_555 1_555
C16A C15A 1_555 1_555
C17A C16A 1_555 1_555
H15A C17A 1_555 1_555
C18A C13A 1_555 1_555
H16A C18A 1_555 1_555
C19A C16A 1_555 1_555
C20A C21A 1_555 1_555
C21A H17A 1_555 1_555
C22A C21A 1_555 1_555
H18A C22A 1_555 1_555
C23A C22A 1_555 1_555
C24A C23A 1_555 1_555
H19A C24A 1_555 1_555
C25A C20A 1_555 1_555
H20A C25A 1_555 1_555
C26A C23A 1_555 1_555
O2A C2A 1_555 1_555
O3A C3A 1_555 1_555
O4A C5A 1_555 1_555
O5A C12A 1_555 1_555
O6A C12A 1_555 1_555
O7A C19A 1_555 1_555
O8A C19A 1_555 1_555
O9A C26A 1_555 1_555
O10A C26A 1_555 1_555
Cd1A O7A 1_555 1_555
N1A Cd1A 1_555 1_555
N2A Cd1A 1_555 1_555
C27A N1A 1_555 1_555
H21A C27A 1_555 1_555
C28A C27A 1_555 1_555
H22A C28A 1_555 1_555
C29A C28A 1_555 1_555
H23A C29A 1_555 1_555
C30A C29A 1_555 1_555
H24A C30A 1_555 1_555
C31A N1A 1_555 1_555
C32A N2A 1_555 1_555
C33A C32A 1_555 1_555
H25A C33A 1_555 1_555
C34A C33A 1_555 1_555
H26A C34A 1_555 1_555
C35A C34A 1_555 1_555
H27A C35A 1_555 1_555
C36A N2A 1_555 1_555
H28A C36A 1_555 1_555
Cd1_2 O7 1_555 1_555
Cd1A_2 O5A 1_555 1_555
Cd1F O9A 1_555 1_555
Cd1G O9 1_555 1_555
Cd2_2 O8 1_555 1_555
Cd2A O10 1_555 1_555
Cd2A_2 O5A 1_555 1_555
O5A_2 Cd1A 1_555 1_555
O5F Cd2 1_555 1_555
O6A_2 Cd1A 1_555 1_555
O7_2 Cd1 1_555 1_555
O8_2 Cd2 1_555 1_555
O8F Cd2 1_555 1_555
O9F Cd1A 1_555 1_555
O9G Cd1 1_555 1_555
O10A_2 Cd2 1_555 1_555
O10F Cd1A 1_555 1_555
O10G Cd1 1_555 1_555
Cd2 O10G 1_555 1_555
C6 O2 1_555 1_555
C10 C11 1_555 1_555
C12 O5 1_555 1_555
C12 O6 1_555 1_555
C13 O3 1_555 1_555
C17 C18 1_555 1_555
C20 O4 1_555 1_555
C24 C25 1_555 1_555
C30 C31 1_555 1_555
C31 C32 1_555 1_555
C35 C36 1_555 1_555
O10 Cd1G 1_555 1_555
C1A C4A 1_555 1_555
C6A O2A 1_555 1_555
C10A C11A 1_555 1_555
C13A O3A 1_555 1_555
C17A C18A 1_555 1_555
C20A O4A 1_555 1_555
C24A C25A 1_555 1_555
O6A Cd1A_2 1_555 1_555
O8A Cd2A 1_555 1_555
O10A Cd1F 1_555 1_555
O10A Cd2_2 1_555 1_555
C30A C31A 1_555 1_555
C31A C32A 1_555 1_555
C35A C36A 1_555 1_555
Cd2A O5A_2 1_555 1_555
Cd2A O10F 1_555 1_555

#END
