
#######################################################################
#
#                 Cambridge Crystallographic Data Centre
#                                CCDC 
#
#######################################################################
#
# If this CIF has been generated from an entry in the Cambridge 
# Structural Database, then it will include bibliographic, chemical, 
# crystal, experimental, refinement or atomic coordinate data resulting 
# from the CCDC's data processing and validation procedures.
#
#######################################################################

data_GOSDEZ
_symmetry_cell_setting           orthorhombic
_symmetry_space_group_name_H-M   'P 2 2 21'
_symmetry_Int_Tables_number      17
_space_group_name_Hall           'P 2c 2'
loop_
_symmetry_equiv_pos_site_id
_symmetry_equiv_pos_as_xyz
1 x,y,z
2 -x,-y,1/2+z
3 x,-y,-z
4 -x,y,1/2-z
_cell_length_a                   28.677(2)
_cell_length_b                   15.8555(11)
_cell_length_c                   21.4018(15)
_cell_angle_alpha                90
_cell_angle_beta                 90
_cell_angle_gamma                90
_cell_volume                     9731.15
loop_
_atom_site_label
_atom_site_type_symbol
_atom_site_fract_x
_atom_site_fract_y
_atom_site_fract_z
Cd1 Cd 0.704627(8) 0.028447(15) 0.739897(15)
Cd2 Cd 0.791376(8) 0.513909(15) 0.756872(14)
Cd3 Cd 0.753264(9) 0.239104(16) 0.737370(14)
C1 C 0.88077(11) 0.2971(2) 0.7547(2)
C2 C 0.94618(11) 0.1651(2) 0.7506(2)
C3 C 0.97598(10) 0.08865(19) 0.75141(18)
C4 C 0.95254(11) 0.0106(2) 0.7540(2)
H1 H 0.9202 0.0107 0.7571
C5 C 0.97538(11) -0.0663(2) 0.75203(19)
C6 C 0.94721(12) -0.1454(2) 0.7535(2)
O1 O 0.64314(11) 0.95005(19) 0.78970(17)
O2 O 0.75533(11) 0.0094(2) 0.81814(16)
O3 O 0.85372(10) 0.43140(19) 0.78596(18)
C7 C 0.61326(13) 0.8221(2) 0.7473(2)
O4 O 0.67610(10) 0.90170(19) 0.70369(17)
C8 C 0.64586(13) 0.8965(2) 0.7475(2)
C9 C 0.84487(12) 0.3639(2) 0.7572(2)
C10 C 0.95202(12) 0.2320(2) 0.79263(18)
H2 H 0.9777 0.2327 0.8192
O5 O 0.80564(10) 0.35104(18) 0.73155(15)
C11 C 0.57869(14) 0.8150(2) 0.7922(2)
H3 H 0.5757 0.8560 0.8230
O6 O 0.78785(11) 0.1317(2) 0.78757(17)
C12 C 0.78687(13) 0.0656(2) 0.81844(19)
C13 C 0.61809(13) 0.7592(3) 0.7024(2)
H4 H 0.6411 0.7636 0.6720
C14 C 0.87713(12) 0.2324(2) 0.71113(19)
H5 H 0.8526 0.2325 0.6828
C15 C 0.90917(12) 0.1687(2) 0.7094(2)
H6 H 0.9059 0.1264 0.6796
C16 C 0.82901(14) 0.0504(3) 0.8603(2)
C17 C 0.91980(13) 0.2971(2) 0.7950(2)
H7 H 0.9239 0.3411 0.8233
O7 O 0.68316(9) 0.16375(17) 0.75760(18)
O8 O 0.74029(10) 0.48845(18) 0.68084(15)
O9 O 0.25683(11) 0.4657(2) 0.66444(16)
O10 O 0.71484(11) 0.3228(2) 0.67097(16)
O11 O 1.23826(10) 0.0190(2) 0.82900(16)
C18 C 0.54850(13) 0.7462(3) 0.7910(2)
H8 H 0.5246 0.7432 0.8203
C19 C 0.52416(10) 0.4502(2) 0.74752(18)
C20 C 0.54785(11) 0.52703(19) 0.74643(17)
H9 H 0.5803 0.5267 0.7446
C21 C 0.52448(10) 0.6047(2) 0.74801(18)
C22 C 0.55300(12) 0.6823(2) 0.7476(2)
C23 C 0.33147(12) 0.5197(3) 0.6335(2)
O12 O 1.22973(11) 0.1552(2) 0.84910(16)
C24 C 0.28598(13) 0.5260(3) 0.6694(2)
O13 O 0.83375(12) -0.3756(2) 0.8006(2)
O14 O 0.63662(11) 0.1038(2) 0.68737(18)
O15 O 0.85410(14) -0.4064(3) 0.7056(2)
C25 C 0.85679(14) -0.3613(2) 0.7544(3)
C26 C 0.58874(13) 0.6904(2) 0.7029(2)
H10 H 0.5926 0.6484 0.6730
C27 C 0.90901(13) 0.0234(3) 0.93197(19)
O16 O 0.74385(10) 0.62315(19) 0.65408(16)
C28 C 0.55310(11) 0.3723(2) 0.74377(19)
C29 C 1.08336(13) 0.0291(3) 0.93683(19)
C30 C 0.41558(12) 0.5094(3) 0.56850(18)
C31 C 0.46063(12) 0.5072(3) 0.53257(19)
C32 C 0.95313(12) 0.0105(3) 0.96782(19)
C33 C 1.03752(12) 0.0127(3) 0.96849(19)
C34 C 0.99523(12) 0.0213(2) 0.9375(2)
H11 H 0.9953 0.0348 0.8952
C35 C 0.57331(13) 0.2399(3) 0.6948(2)
H12 H 0.5666 0.1970 0.6666
C36 C 0.89027(13) -0.2891(3) 0.7540(3)
C37 C 0.67683(12) 0.5438(2) 0.62546(19)
C38 C 0.61375(13) 0.2357(2) 0.7308(2)
C39 C 0.64649(13) 0.4817(3) 0.64416(19)
H13 H 0.6547 0.4457 0.6766
C40 C 1.10140(13) -0.0244(3) 0.8909(2)
H14 H 1.0842 -0.0707 0.8775
C41 C 0.87353(13) -0.0364(3) 0.9303(2)
H15 H 0.8763 -0.0853 0.9540
C42 C 0.38268(13) 0.4480(3) 0.56284(19)
H16 H 0.3886 0.4021 0.5370
C43 C 0.54266(12) 0.3081(2) 0.7009(2)
H17 H 0.5157 0.3109 0.6767
C44 C 0.83408(13) -0.0243(3) 0.8939(2)
H18 H 0.8112 -0.0658 0.8919
C45 C 0.95105(14) -0.2053(3) 0.7052(2)
H19 H 0.9727 -0.1981 0.6733
C46 C 0.66356(12) 0.5981(2) 0.5769(2)
H20 H 0.6833 0.6413 0.5642
C47 C 1.11004(14) 0.0990(3) 0.9545(2)
H21 H 1.0990 0.1350 0.9855
C48 C 1.14537(14) -0.0082(3) 0.8648(2)
H22 H 1.1577 -0.0453 0.8355
C49 C 0.59261(13) 0.3659(3) 0.7808(2)
H23 H 0.5988 0.4072 0.8106
C50 C 0.72345(13) 0.5542(3) 0.6554(2)
C51 C 1.17034(13) 0.0618(3) 0.8820(2)
C52 C 0.34074(13) 0.4521(3) 0.59451(19)
H24 H 0.3188 0.4095 0.5896
C53 C 0.40643(13) 0.5785(3) 0.6079(2)
H25 H 0.4281 0.6217 0.6119
C54 C 1.15229(13) 0.1153(3) 0.9268(2)
H26 H 1.1690 0.1631 0.9384
C55 C 1.21653(13) 0.0814(3) 0.8512(2)
O17 O 0.74059(15) 0.2962(3) 0.83264(19)
C56 C 0.92155(15) -0.2762(3) 0.7062(2)
H27 H 0.9232 -0.3152 0.6738
C57 C 0.88875(16) -0.2300(3) 0.8026(3)
H28 H 0.8684 -0.2384 0.8359
C58 C 0.86349(15) 0.1093(3) 0.8627(2)
H29 H 0.8601 0.1590 0.8401
C59 C 0.90294(14) 0.0973(3) 0.8975(2)
H30 H 0.9259 0.1387 0.8981
C60 C 0.62327(13) 0.2982(3) 0.7738(2)
H31 H 0.6501 0.2953 0.7981
C61 C 0.64594(13) 0.1630(2) 0.7234(2)
C62 C 0.36485(14) 0.5817(3) 0.6407(2)
H32 H 0.3593 0.6262 0.6680
C63 C 0.91687(15) -0.1593(3) 0.8019(3)
H33 H 0.9152 -0.1207 0.8346
C64 C 0.50356(13) 0.5159(2) 0.5634(2)
H34 H 0.5039 0.5264 0.6061
C65 C 0.54546(12) 0.5092(3) 0.53169(18)
C66 C 0.58985(12) 0.5240(3) 0.56583(18)
C67 C 0.62006(14) 0.5864(3) 0.5476(2)
H35 H 0.6116 0.6220 0.5150
C68 C 0.60292(13) 0.4724(3) 0.6144(2)
H36 H 0.5826 0.4305 0.6278
O18 O 0.27894(11) 0.5864(2) 0.70268(18)
C1C C 1.11923(11) 0.2971(2) 0.7453(2)
C2C C 1.05382(11) 0.1651(2) 0.7494(2)
C3C C 1.02402(10) 0.08865(19) 0.74859(18)
C4C C 1.04746(11) 0.0106(2) 0.7460(2)
H1C H 1.0798 0.0107 0.7429
C5C C 1.02462(11) -0.0663(2) 0.74797(19)
C6C C 1.05279(12) -0.1454(2) 0.7465(2)
O3C O 1.14628(10) 0.43140(19) 0.71404(18)
C9C C 1.15513(12) 0.3639(2) 0.7428(2)
C10C C 1.04798(12) 0.2320(2) 0.70737(18)
H2C H 1.0223 0.2327 0.6808
O5C O 1.19436(10) 0.35104(18) 0.76845(15)
C14C C 1.12287(12) 0.2324(2) 0.78887(19)
H5C H 1.1474 0.2325 0.8172
C15C C 1.09083(12) 0.1687(2) 0.7906(2)
H6C H 1.0941 0.1264 0.8204
C17C C 1.08020(13) 0.2971(2) 0.7050(2)
H7C H 1.0761 0.3411 0.6767
O13C O 1.16625(12) -0.3756(2) 0.6994(2)
O15C O 1.14590(14) -0.4064(3) 0.7944(2)
C25C C 1.14321(14) -0.3613(2) 0.7456(3)
C36C C 1.10973(13) -0.2891(3) 0.7460(3)
C45C C 1.04895(14) -0.2053(3) 0.7948(2)
H19C H 1.0273 -0.1981 0.8267
C56C C 1.07845(15) -0.2762(3) 0.7938(2)
H27C H 1.0768 -0.3152 0.8262
C57C C 1.11125(16) -0.2300(3) 0.6974(3)
H28C H 1.1316 -0.2384 0.6641
C63C C 1.08313(15) -0.1593(3) 0.6981(3)
H33C H 1.0848 -0.1207 0.6654
O1C O 0.35686(11) 0.95005(19) 0.71030(17)
C7C C 0.38674(13) 0.8221(2) 0.7527(2)
O4C O 0.32390(10) 0.90170(19) 0.79631(17)
C8C C 0.35414(13) 0.8965(2) 0.7525(2)
C11C C 0.42131(14) 0.8150(2) 0.7078(2)
H3C H 0.4243 0.8560 0.6770
C13C C 0.38191(13) 0.7592(3) 0.7976(2)
H4C H 0.3589 0.7636 0.8280
O7C O 0.31684(9) 0.16375(17) 0.74240(18)
C18C C 0.45150(13) 0.7462(3) 0.7090(2)
H8C H 0.4754 0.7432 0.6797
C19C C 0.47584(10) 0.4502(2) 0.75248(18)
C20C C 0.45215(11) 0.52703(19) 0.75357(17)
H9C H 0.4197 0.5267 0.7554
C21C C 0.47552(10) 0.6047(2) 0.75199(18)
C22C C 0.44700(12) 0.6823(2) 0.7524(2)
O14C O 0.36338(11) 0.1038(2) 0.81263(18)
C26C C 0.41126(13) 0.6904(2) 0.7971(2)
H10C H 0.4074 0.6484 0.8270
C28C C 0.44690(11) 0.3723(2) 0.75623(19)
C35C C 0.42669(13) 0.2399(3) 0.8052(2)
H12C H 0.4334 0.1970 0.8334
C38C C 0.38625(13) 0.2357(2) 0.7692(2)
C43C C 0.45734(12) 0.3081(2) 0.7991(2)
H17C H 0.4843 0.3109 0.8233
C49C C 0.40739(13) 0.3659(3) 0.7192(2)
H23C H 0.4012 0.4072 0.6894
C60C C 0.37673(13) 0.2982(3) 0.7262(2)
H31C H 0.3499 0.2953 0.7019
C61C C 0.35406(13) 0.1630(2) 0.7766(2)
O2B O 0.75533(11) -0.0094(2) 1.18186(16)
O6B O 0.78785(11) -0.1317(2) 1.21243(17)
C12B C 0.78687(13) -0.0656(2) 1.18156(19)
C16B C 0.82901(14) -0.0504(3) 1.1397(2)
O11B O 1.23826(10) -0.0190(2) 1.17100(16)
O12B O 1.22973(11) -0.1552(2) 1.15090(16)
C27B C 0.90901(13) -0.0234(3) 1.06803(19)
C29B C 1.08336(13) -0.0291(3) 1.06317(19)
C32B C 0.95313(12) -0.0105(3) 1.03218(19)
C33B C 1.03752(12) -0.0127(3) 1.03151(19)
C34B C 0.99523(12) -0.0213(2) 1.0625(2)
H11B H 0.9953 -0.0348 1.1048
C40B C 1.10140(13) 0.0244(3) 1.1091(2)
H14B H 1.0842 0.0707 1.1225
C41B C 0.87353(13) 0.0364(3) 1.0697(2)
H15B H 0.8763 0.0853 1.0460
C44B C 0.83408(13) 0.0243(3) 1.1061(2)
H18B H 0.8112 0.0658 1.1081
C47B C 1.11004(14) -0.0990(3) 1.0455(2)
H21B H 1.0990 -0.1350 1.0145
C48B C 1.14537(14) 0.0082(3) 1.1352(2)
H22B H 1.1577 0.0453 1.1645
C51B C 1.17034(13) -0.0618(3) 1.1180(2)
C54B C 1.15229(13) -0.1153(3) 1.0732(2)
H26B H 1.1690 -0.1631 1.0616
C55B C 1.21653(13) -0.0814(3) 1.1488(2)
C58B C 0.86349(15) -0.1093(3) 1.1373(2)
H29B H 0.8601 -0.1590 1.1599
C59B C 0.90294(14) -0.0973(3) 1.1025(2)
H30B H 0.9259 -0.1387 1.1019
O8B O 0.74029(10) 0.51155(18) 0.31916(15)
O9B O 0.25683(11) 0.5343(2) 0.33556(16)
C23B C 0.33147(12) 0.4803(3) 0.3665(2)
C24B C 0.28598(13) 0.4740(3) 0.3306(2)
O16B O 0.74385(10) 0.37685(19) 0.34592(16)
C30B C 0.41558(12) 0.4906(3) 0.43150(18)
C31B C 0.46063(12) 0.4928(3) 0.46743(19)
C37B C 0.67683(12) 0.4562(2) 0.37454(19)
C39B C 0.64649(13) 0.5183(3) 0.35584(19)
H13B H 0.6547 0.5543 0.3234
C42B C 0.38268(13) 0.5520(3) 0.43716(19)
H16B H 0.3886 0.5979 0.4630
C46B C 0.66356(12) 0.4019(2) 0.4231(2)
H20B H 0.6833 0.3587 0.4358
C50B C 0.72345(13) 0.4458(3) 0.3446(2)
C52B C 0.34074(13) 0.5479(3) 0.40549(19)
H24B H 0.3188 0.5905 0.4104
C53B C 0.40643(13) 0.4215(3) 0.3921(2)
H25B H 0.4281 0.3783 0.3881
C62B C 0.36485(14) 0.4183(3) 0.3593(2)
H32B H 0.3593 0.3738 0.3320
C64B C 0.50356(13) 0.4841(2) 0.4366(2)
H34B H 0.5039 0.4736 0.3939
C65B C 0.54546(12) 0.4908(3) 0.46831(18)
C66B C 0.58985(12) 0.4760(3) 0.43417(18)
C67B C 0.62006(14) 0.4136(3) 0.4524(2)
H35B H 0.6116 0.3780 0.4850
C68B C 0.60292(13) 0.5276(3) 0.3856(2)
H36B H 0.5826 0.5695 0.3722
O18B O 0.27894(11) 0.4136(2) 0.29732(18)
Cd1B Cd 0.704627(8) -0.028447(15) 1.260103(15)
Cd3B Cd 0.753264(9) -0.239104(16) 1.262630(14)
O10B O 0.71484(11) -0.3228(2) 1.32903(16)
O17B O 0.74059(15) -0.2962(3) 1.16736(19)
Cd2C Cd 0.208624(8) 0.513909(15) 0.743128(14)
Cd1_2 Cd 0.704627(8) 1.028447(15) 0.739897(15)
Cd1A Cd 1.295373(8) -0.028447(15) 1.239897(15)
Cd1C Cd 0.295373(8) 0.028447(15) 0.760103(15)
Cd1C_2 Cd 0.295373(8) 1.028447(15) 0.760103(15)
Cd1C_3 Cd 1.295373(8) 0.028447(15) 0.760103(15)
Cd2_2 Cd 0.791376(8) -0.486091(15) 0.756872(14)
Cd2A Cd 0.208624(8) 0.486091(15) 0.256872(14)
Cd2B Cd 0.791376(8) 0.486091(15) 0.243128(14)
Cd2C_2 Cd 1.208624(8) -0.486091(15) 0.743128(14)
Cd2C_3 Cd 1.208624(8) 0.513909(15) 0.743128(14)
Cd3A Cd 1.246736(9) -0.239104(16) 1.237370(14)
Cd3C Cd 0.246736(9) 0.239104(16) 0.762630(14)
Cd3C_2 Cd 1.246736(9) 0.239104(16) 0.762630(14)
O1_2 O 0.64314(11) -0.04995(19) 0.78970(17)
O1B O 0.64314(11) 0.04995(19) 1.21030(17)
O3C_2 O 0.14628(10) 0.43140(19) 0.71404(18)
O4_2 O 0.67610(10) -0.09830(19) 0.70369(17)
O4B O 0.67610(10) 0.09830(19) 1.29631(17)
O5B O 0.80564(10) -0.35104(18) 1.26845(15)
O5C_2 O 0.19436(10) 0.35104(18) 0.76845(15)
O7B O 0.68316(9) -0.16375(17) 1.24240(18)
O8C O 0.25971(10) 0.48845(18) 0.81916(15)
O9C O 0.74317(11) 0.4657(2) 0.83556(16)
O11A O 0.76174(10) -0.0190(2) 1.32900(16)
O11C O 0.76174(10) 0.0190(2) 0.67100(16)
O12A O 0.77027(11) -0.1552(2) 1.34910(16)
O12C O 0.77027(11) 0.1552(2) 0.65090(16)
O13_2 O 0.83375(12) 0.6244(2) 0.8006(2)
O13C_2 O 0.16625(12) 0.6244(2) 0.6994(2)
O14B O 0.63662(11) -0.1038(2) 1.31263(18)
O15_2 O 0.85410(14) 0.5936(3) 0.7056(2)
O15C_2 O 0.14590(14) 0.5936(3) 0.7944(2)
O18C O 0.72106(11) 0.5864(2) 0.79732(18)
loop_
_geom_bond_atom_site_label_1
_geom_bond_atom_site_label_2
_geom_bond_site_symmetry_1
_geom_bond_site_symmetry_2
Cd1 O2 1_555 1_555
Cd2 O3 1_555 1_555
Cd3 O5 1_555 1_555
C1 C9 1_555 1_555
C2 C3 1_555 1_555
C3 C4 1_555 1_555
C4 H1 1_555 1_555
C5 C4 1_555 1_555
C6 C5 1_555 1_555
O1 C8 1_555 1_555
O2 C12 1_555 1_555
O3 C9 1_555 1_555
C7 C8 1_555 1_555
O4 C8 1_555 1_555
C9 O5 1_555 1_555
C10 C2 1_555 1_555
H2 C10 1_555 1_555
O5 Cd2 1_555 1_555
C11 C7 1_555 1_555
H3 C11 1_555 1_555
O6 Cd3 1_555 1_555
C12 O6 1_555 1_555
C13 C7 1_555 1_555
H4 C13 1_555 1_555
C14 C1 1_555 1_555
H5 C14 1_555 1_555
C15 C2 1_555 1_555
H6 C15 1_555 1_555
C16 C12 1_555 1_555
C17 C1 1_555 1_555
H7 C17 1_555 1_555
O7 Cd1 1_555 1_555
O8 Cd2 1_555 1_555
O9 C24 1_555 1_555
O10 Cd3 1_555 1_555
O11 C55 1_555 1_555
C18 C11 1_555 1_555
H8 C18 1_555 1_555
C19 C20 1_555 1_555
C20 H9 1_555 1_555
C21 C20 1_555 1_555
C22 C18 1_555 1_555
C23 C24 1_555 1_555
O12 C55 1_555 1_555
C24 O18 1_555 1_555
O13 C25 1_555 1_555
O14 Cd1 1_555 1_555
O15 C25 1_555 1_555
C25 C36 1_555 1_555
C26 C13 1_555 1_555
H10 C26 1_555 1_555
C27 C32 1_555 1_555
O16 C50 1_555 1_555
C28 C19 1_555 1_555
C29 C33 1_555 1_555
C30 C31 1_555 1_555
C31 C64 1_555 1_555
C32 C34 1_555 1_555
C33 C34 1_555 1_555
C34 H11 1_555 1_555
C35 H12 1_555 1_555
C36 C56 1_555 1_555
C37 C39 1_555 1_555
C38 C35 1_555 1_555
C39 H13 1_555 1_555
C40 C29 1_555 1_555
H14 C40 1_555 1_555
C41 C27 1_555 1_555
H15 C41 1_555 1_555
C42 C30 1_555 1_555
H16 C42 1_555 1_555
C43 C28 1_555 1_555
H17 C43 1_555 1_555
C44 C16 1_555 1_555
H18 C44 1_555 1_555
C45 C6 1_555 1_555
H19 C45 1_555 1_555
C46 C37 1_555 1_555
H20 C46 1_555 1_555
C47 C29 1_555 1_555
H21 C47 1_555 1_555
C48 C40 1_555 1_555
H22 C48 1_555 1_555
C49 C28 1_555 1_555
H23 C49 1_555 1_555
C50 O8 1_555 1_555
C51 C48 1_555 1_555
C52 C23 1_555 1_555
H24 C52 1_555 1_555
C53 C30 1_555 1_555
H25 C53 1_555 1_555
C54 C47 1_555 1_555
H26 C54 1_555 1_555
C55 C51 1_555 1_555
O17 Cd3 1_555 1_555
C56 C45 1_555 1_555
H27 C56 1_555 1_555
C57 C36 1_555 1_555
H28 C57 1_555 1_555
C58 C16 1_555 1_555
H29 C58 1_555 1_555
C59 C27 1_555 1_555
H30 C59 1_555 1_555
C60 C38 1_555 1_555
H31 C60 1_555 1_555
C61 O7 1_555 1_555
C62 C23 1_555 1_555
H32 C62 1_555 1_555
C63 C6 1_555 1_555
H33 C63 1_555 1_555
C64 H34 1_555 1_555
C65 C64 1_555 1_555
C66 C65 1_555 1_555
C67 C46 1_555 1_555
H35 C67 1_555 1_555
C68 C39 1_555 1_555
H36 C68 1_555 1_555
O18 Cd2C 1_555 1_555
C1C C9C 1_555 1_555
C2C C3C 1_555 1_555
C3C C3 1_555 1_555
C4C C3C 1_555 1_555
H1C C4C 1_555 1_555
C5C C5 1_555 1_555
C6C C5C 1_555 1_555
O3C C9C 1_555 1_555
C9C O5C 1_555 1_555
C10C C2C 1_555 1_555
H2C C10C 1_555 1_555
O5C Cd2C_3 1_555 1_555
C14C C1C 1_555 1_555
H5C C14C 1_555 1_555
C15C C2C 1_555 1_555
H6C C15C 1_555 1_555
C17C C1C 1_555 1_555
H7C C17C 1_555 1_555
O13C C25C 1_555 1_555
O15C C25C 1_555 1_555
C25C C36C 1_555 1_555
C36C C56C 1_555 1_555
C45C C6C 1_555 1_555
H19C C45C 1_555 1_555
C56C C45C 1_555 1_555
H27C C56C 1_555 1_555
C57C C36C 1_555 1_555
H28C C57C 1_555 1_555
C63C C6C 1_555 1_555
H33C C63C 1_555 1_555
O1C C8C 1_555 1_555
C7C C8C 1_555 1_555
O4C C8C 1_555 1_555
C11C C7C 1_555 1_555
H3C C11C 1_555 1_555
C13C C7C 1_555 1_555
H4C C13C 1_555 1_555
O7C C61C 1_555 1_555
C18C C11C 1_555 1_555
H8C C18C 1_555 1_555
C19C C19 1_555 1_555
C20C C19C 1_555 1_555
H9C C20C 1_555 1_555
C21C C21 1_555 1_555
C22C C18C 1_555 1_555
O14C C61C 1_555 1_555
C26C C13C 1_555 1_555
H10C C26C 1_555 1_555
C28C C19C 1_555 1_555
C35C H12C 1_555 1_555
C38C C35C 1_555 1_555
C43C C28C 1_555 1_555
H17C C43C 1_555 1_555
C49C C28C 1_555 1_555
H23C C49C 1_555 1_555
C60C C38C 1_555 1_555
H31C C60C 1_555 1_555
C61C C38C 1_555 1_555
O2B C12B 1_555 1_555
O6B C12B 1_555 1_555
C12B C16B 1_555 1_555
C16B C44B 1_555 1_555
O11B C55B 1_555 1_555
O12B C55B 1_555 1_555
C27B C32B 1_555 1_555
C29B C33B 1_555 1_555
C32B C32 1_555 1_555
C33B C33 1_555 1_555
C34B C32B 1_555 1_555
H11B C34B 1_555 1_555
C40B C29B 1_555 1_555
H14B C40B 1_555 1_555
C41B C27B 1_555 1_555
H15B C41B 1_555 1_555
C44B C41B 1_555 1_555
H18B C44B 1_555 1_555
C47B C29B 1_555 1_555
H21B C47B 1_555 1_555
C48B C40B 1_555 1_555
H22B C48B 1_555 1_555
C51B C48B 1_555 1_555
C54B C47B 1_555 1_555
H26B C54B 1_555 1_555
C55B C51B 1_555 1_555
C58B C16B 1_555 1_555
H29B C58B 1_555 1_555
C59B C27B 1_555 1_555
H30B C59B 1_555 1_555
O8B C50B 1_555 1_555
O9B C24B 1_555 1_555
C23B C24B 1_555 1_555
C24B O18B 1_555 1_555
O16B C50B 1_555 1_555
C30B C31B 1_555 1_555
C31B C31 1_555 1_555
C37B C39B 1_555 1_555
C39B H13B 1_555 1_555
C42B C30B 1_555 1_555
H16B C42B 1_555 1_555
C46B C37B 1_555 1_555
H20B C46B 1_555 1_555
C50B C37B 1_555 1_555
C52B C23B 1_555 1_555
H24B C52B 1_555 1_555
C53B C30B 1_555 1_555
H25B C53B 1_555 1_555
C62B C23B 1_555 1_555
H32B C62B 1_555 1_555
C64B C31B 1_555 1_555
H34B C64B 1_555 1_555
C65B C65 1_555 1_555
C66B C65B 1_555 1_555
C67B C46B 1_555 1_555
H35B C67B 1_555 1_555
C68B C39B 1_555 1_555
H36B C68B 1_555 1_555
O18B Cd2A 1_555 1_555
Cd1B O2B 1_555 1_555
Cd3B O6B 1_555 1_555
O10B Cd3B 1_555 1_555
O17B Cd3B 1_555 1_555
Cd2C O9 1_555 1_555
Cd1_2 O1 1_555 1_555
Cd1A O11B 1_555 1_555
Cd1C O7C 1_555 1_555
Cd1C_2 O1C 1_555 1_555
Cd1C_3 O11 1_555 1_555
Cd2_2 O13 1_555 1_555
Cd2A O9B 1_555 1_555
Cd2B O8B 1_555 1_555
Cd2C_2 O13C 1_555 1_555
Cd2C_3 O3C 1_555 1_555
Cd3A O12B 1_555 1_555
Cd3C O7C 1_555 1_555
Cd3C_2 O12 1_555 1_555
O1_2 Cd1 1_555 1_555
O1B Cd1B 1_555 1_555
O3C_2 Cd2C 1_555 1_555
O4_2 Cd1 1_555 1_555
O4B Cd1B 1_555 1_555
O5B Cd3B 1_555 1_555
O5C_2 Cd2C 1_555 1_555
O7B Cd1B 1_555 1_555
O8C Cd2C 1_555 1_555
O9C Cd2 1_555 1_555
O11A Cd1B 1_555 1_555
O11C Cd1 1_555 1_555
O12A Cd3B 1_555 1_555
O12C Cd3 1_555 1_555
O13_2 Cd2 1_555 1_555
O13C_2 Cd2C 1_555 1_555
O14B Cd1B 1_555 1_555
O15_2 Cd2 1_555 1_555
O15C_2 Cd2C 1_555 1_555
O18C Cd2 1_555 1_555
Cd3 O7 1_555 1_555
O4 Cd1_2 1_555 1_555
C10 C17 1_555 1_555
C14 C15 1_555 1_555
C21 C22 1_555 1_555
C22 C26 1_555 1_555
O14 C61 1_555 1_555
O15 Cd2_2 1_555 1_555
C35 C43 1_555 1_555
C37 C50 1_555 1_555
C38 C61 1_555 1_555
C41 C44 1_555 1_555
C42 C52 1_555 1_555
C49 C60 1_555 1_555
C51 C54 1_555 1_555
C53 C62 1_555 1_555
C57 C63 1_555 1_555
C58 C59 1_555 1_555
C66 C67 1_555 1_555
C66 C68 1_555 1_555
C4C C5C 1_555 1_555
C10C C17C 1_555 1_555
O5C Cd3C_2 1_555 1_555
C14C C15C 1_555 1_555
O15C Cd2C_2 1_555 1_555
C57C C63C 1_555 1_555
O4C Cd1C_2 1_555 1_555
C20C C21C 1_555 1_555
C21C C22C 1_555 1_555
C22C C26C 1_555 1_555
O14C Cd1C 1_555 1_555
C35C C43C 1_555 1_555
C49C C60C 1_555 1_555
C33B C34B 1_555 1_555
C51B C54B 1_555 1_555
C58B C59B 1_555 1_555
C42B C52B 1_555 1_555
C53B C62B 1_555 1_555
C64B C65B 1_555 1_555
C66B C67B 1_555 1_555
C66B C68B 1_555 1_555
Cd3B O7B 1_555 1_555
Cd3C O5C_2 1_555 1_555

#END
