
#######################################################################
#
#                 Cambridge Crystallographic Data Centre
#                                CCDC 
#
#######################################################################
#
# If this CIF has been generated from an entry in the Cambridge 
# Structural Database, then it will include bibliographic, chemical, 
# crystal, experimental, refinement or atomic coordinate data resulting 
# from the CCDC's data processing and validation procedures.
#
#######################################################################

data_GOVSER
_symmetry_cell_setting           monoclinic
_symmetry_space_group_name_H-M   'C 2/c'
_symmetry_Int_Tables_number      15
_space_group_name_Hall           '-C 2yn'
loop_
_symmetry_equiv_pos_site_id
_symmetry_equiv_pos_as_xyz
1 x,y,z
2 -x,y,1/2-z
3 1/2+x,1/2+y,z
4 1/2-x,1/2+y,1/2-z
5 -x,-y,-z
6 x,-y,1/2+z
7 1/2-x,1/2-y,-z
8 1/2+x,1/2-y,1/2+z
_cell_length_a                   36.929(5)
_cell_length_b                   31.080(4)
_cell_length_c                   11.8533(17)
_cell_angle_alpha                90
_cell_angle_beta                 99.228(2)
_cell_angle_gamma                90
_cell_volume                     13428.6
loop_
_atom_site_label
_atom_site_type_symbol
_atom_site_fract_x
_atom_site_fract_y
_atom_site_fract_z
Zn1 Zn 0.23058(2) 0.25153(3) 0.86500(13)
Zn2 Zn 0.27013(2) -0.25148(3) 1.13453(13)
O1 O -0.23311(13) -0.20172(16) -0.1316(7)
C1 C -0.2055(2) -0.2016(2) -0.1654(8)
O2 O -0.19571(12) -0.22384(15) -0.2365(5)
C2 C -0.1756(2) -0.1716(3) -0.1013(9)
C3 C -0.1452(2) -0.1623(3) -0.1560(9)
H1 H -0.1444 -0.1735 -0.2301
C4 C -0.1166(3) -0.1371(4) -0.1031(9)
H2 H -0.0959 -0.1313 -0.1390
C5 C -0.1192(2) -0.1199(2) 0.0081(7)
C6 C -0.1496(2) -0.1286(3) 0.0544(8)
H3 H -0.1516 -0.1155 0.1255
C7 C -0.1786(2) -0.1557(3) 0.0054(8)
H4 H -0.1988 -0.1624 0.0430
C8 C -0.0884(2) -0.0925(2) 0.0681(8)
C9 C -0.06829(18) -0.06482(19) 0.0082(7)
H5 H -0.0737 -0.0631 -0.0728
C10 C -0.04161(18) -0.0410(2) 0.0654(7)
H6 H -0.0293 -0.0204 0.0258
C11 C -0.03110(19) -0.0461(2) 0.1881(7)
C12 C -0.0482(2) -0.0743(2) 0.2423(8)
H7 H -0.0411 -0.0784 0.3222
C13 C -0.0776(2) -0.0988(3) 0.1809(8)
H8 H -0.0897 -0.1198 0.2200
C14 C 0.0000 -0.0190(3) 0.2500
C15 C 0.0000 0.0238(3) 0.2500
C16 C 0.03309(18) 0.0496(2) 0.3069(7)
C17 C 0.0245(2) 0.0845(2) 0.3753(7)
H9 H -0.0001 0.0908 0.3831
C18 C 0.05364(19) 0.1091(2) 0.4305(7)
H10 H 0.0486 0.1326 0.4766
C19 C 0.0897(2) 0.1003(2) 0.4203(7)
C20 C 0.09594(18) 0.0650(2) 0.3556(7)
H11 H 0.1204 0.0572 0.3487
C21 C 0.06722(18) 0.0409(2) 0.3010(6)
H12 H 0.0725 0.0169 0.2569
C22 C 0.1195(2) 0.1277(2) 0.4805(7)
C23 C 0.1551(2) 0.1253(3) 0.4563(8)
H13 H 0.1602 0.1045 0.4023
C24 C 0.1838(2) 0.1516(3) 0.5063(11)
H14 H 0.2070 0.1512 0.4814
C25 C 0.1768(3) 0.1794(3) 0.5973(10)
C26 C 0.1407(2) 0.1784(2) 0.6306(8)
H15 H 0.1366 0.1952 0.6943
C27 C 0.1121(2) 0.1544(2) 0.5747(7)
H16 H 0.0885 0.1553 0.5966
C28 C 0.2064(2) 0.2057(2) 0.6642(8)
O3 O 0.19647(14) 0.22904(16) 0.7316(5)
O4 O 0.23582(13) 0.20393(16) 0.6346(6)
O5 O 0.26104(13) 0.19975(16) 0.8937(6)
O6 O 0.30240(14) 0.22909(19) 1.0454(6)
C29 C 0.2959(2) 0.2028(3) 0.9535(8)
C30 C 0.32429(18) 0.1751(2) 0.9251(8)
C31 C 0.3561(2) 0.1740(3) 0.9913(8)
H17 H 0.3605 0.1913 1.0580
C32 C 0.3844(2) 0.1466(3) 0.9629(8)
H18 H 0.4072 0.1449 1.0126
C33 C 0.3788(2) 0.1232(3) 0.8662(8)
C34 C 0.3461(2) 0.1260(3) 0.7963(9)
H19 H 0.3423 0.1116 0.7247
C35 C 0.3184(2) 0.1501(2) 0.8302(7)
H20 H 0.2946 0.1492 0.7859
C36 C 0.4106(2) 0.0985(3) 0.8372(9)
C37 C 0.4478(2) 0.1085(2) 0.8780(10)
H21 H 0.4534 0.1326 0.9271
C38 C 0.4759(2) 0.0841(2) 0.8480(8)
H22 H 0.5005 0.0929 0.8738
C39 C 0.4699(2) 0.0464(2) 0.7804(8)
C40 C 0.4315(2) 0.0373(2) 0.7310(9)
H23 H 0.4261 0.0144 0.6779
C41 C 0.4028(2) 0.0618(3) 0.7611(9)
H24 H 0.3782 0.0544 0.7317
C42 C 0.5000 0.0228(3) 0.7500
C43 C 0.5000 -0.0223(3) 0.7500
C44 C 0.4719(2) -0.0476(2) 0.7922(8)
C45 C 0.4611(2) -0.0430(2) 0.8946(9)
H25 H 0.4737 -0.0237 0.9493
C46 C 0.4302(2) -0.0676(3) 0.9215(9)
H26 H 0.4216 -0.0621 0.9915
C47 C 0.4133(3) -0.0977(3) 0.8513(9)
C48 C 0.4242(3) -0.1010(3) 0.7426(10)
H27 H 0.4110 -0.1198 0.6876
C49 C 0.4516(3) -0.0791(3) 0.7148(9)
H28 H 0.4586 -0.0838 0.6421
C50 C 0.3813(2) -0.1211(3) 0.8828(9)
C51 C 0.3510(3) -0.1323(3) 0.7958(9)
H29 H 0.3507 -0.1241 0.7185
C52 C 0.3224(2) -0.1550(3) 0.8273(8)
H30 H 0.3004 -0.1584 0.7743
C53 C 0.3251(2) -0.1732(2) 0.9367(7)
C54 C 0.3544(2) -0.1653(3) 1.0142(9)
H31 H 0.3570 -0.1789 1.0869
C55 C 0.3820(2) -0.1368(3) 0.9888(8)
H32 H 0.4013 -0.1286 1.0478
C56 C 0.2953(2) -0.2014(3) 0.9584(8)
O7 O 0.30378(14) -0.22871(19) 1.0493(6)
O8 O 0.26216(13) -0.19851(16) 0.8972(6)
O1A O 0.23311(13) -0.20172(16) 0.6316(7)
C1A C 0.2055(2) -0.2016(2) 0.6654(8)
O2A O 0.19571(12) -0.22384(15) 0.7365(5)
C2A C 0.1756(2) -0.1716(3) 0.6013(9)
C3A C 0.1452(2) -0.1623(3) 0.6560(9)
H1A H 0.1444 -0.1735 0.7301
C4A C 0.1166(3) -0.1371(4) 0.6031(9)
H2A H 0.0959 -0.1313 0.6390
C5A C 0.1192(2) -0.1199(2) 0.4919(7)
C6A C 0.1496(2) -0.1286(3) 0.4456(8)
H3A H 0.1516 -0.1155 0.3745
C7A C 0.1786(2) -0.1557(3) 0.4946(8)
H4A H 0.1988 -0.1624 0.4570
C8A C 0.0884(2) -0.0925(2) 0.4319(8)
C9A C 0.06829(18) -0.06482(19) 0.4918(7)
H5A H 0.0737 -0.0631 0.5728
C10A C 0.04161(18) -0.0410(2) 0.4346(7)
H6A H 0.0293 -0.0204 0.4742
C11A C 0.03110(19) -0.0461(2) 0.3119(7)
C12A C 0.0482(2) -0.0743(2) 0.2577(8)
H7A H 0.0411 -0.0784 0.1778
C13A C 0.0776(2) -0.0988(3) 0.3191(8)
H8A H 0.0897 -0.1198 0.2800
C16A C -0.03309(18) 0.0496(2) 0.1931(7)
C17A C -0.0245(2) 0.0845(2) 0.1247(7)
H9A H 0.0001 0.0908 0.1169
C18A C -0.05364(19) 0.1091(2) 0.0695(7)
H10A H -0.0486 0.1326 0.0234
C19A C -0.0897(2) 0.1003(2) 0.0797(7)
C20A C -0.09594(18) 0.0650(2) 0.1444(7)
H11A H -0.1204 0.0572 0.1513
C21A C -0.06722(18) 0.0409(2) 0.1990(6)
H12A H -0.0725 0.0169 0.2431
C22A C -0.1195(2) 0.1277(2) 0.0195(7)
C23A C -0.1551(2) 0.1253(3) 0.0437(8)
H13A H -0.1602 0.1045 0.0977
C24A C -0.1838(2) 0.1516(3) -0.0063(11)
H14A H -0.2070 0.1512 0.0186
C25A C -0.1768(3) 0.1794(3) -0.0973(10)
C26A C -0.1407(2) 0.1784(2) -0.1306(8)
H15A H -0.1366 0.1952 -0.1943
C27A C -0.1121(2) 0.1544(2) -0.0747(7)
H16A H -0.0885 0.1553 -0.0966
C28A C -0.2064(2) 0.2057(2) -0.1642(8)
O3A O -0.19647(14) 0.22904(16) -0.2316(5)
O4A O -0.23582(13) 0.20393(16) -0.1346(6)
O5A O 0.73896(13) 0.19975(16) 0.6063(6)
O6A O 0.69760(14) 0.22909(19) 0.4546(6)
C29A C 0.7041(2) 0.2028(3) 0.5465(8)
C30A C 0.67571(18) 0.1751(2) 0.5749(8)
C31A C 0.6439(2) 0.1740(3) 0.5087(8)
H17A H 0.6395 0.1913 0.4420
C32A C 0.6156(2) 0.1466(3) 0.5371(8)
H18A H 0.5928 0.1449 0.4874
C33A C 0.6212(2) 0.1232(3) 0.6338(8)
C34A C 0.6539(2) 0.1260(3) 0.7037(9)
H19A H 0.6577 0.1116 0.7753
C35A C 0.6816(2) 0.1501(2) 0.6698(7)
H20A H 0.7054 0.1492 0.7141
C36A C 0.5894(2) 0.0985(3) 0.6628(9)
C37A C 0.5522(2) 0.1085(2) 0.6220(10)
H21A H 0.5466 0.1326 0.5729
C38A C 0.5241(2) 0.0841(2) 0.6520(8)
H22A H 0.4995 0.0929 0.6262
C39A C 0.5301(2) 0.0464(2) 0.7196(8)
C40A C 0.5685(2) 0.0373(2) 0.7690(9)
H23A H 0.5739 0.0144 0.8221
C41A C 0.5972(2) 0.0618(3) 0.7389(9)
H24A H 0.6218 0.0544 0.7683
C44A C 0.5281(2) -0.0476(2) 0.7078(8)
C45A C 0.5389(2) -0.0430(2) 0.6054(9)
H25A H 0.5263 -0.0237 0.5507
C46A C 0.5698(2) -0.0676(3) 0.5785(9)
H26A H 0.5784 -0.0621 0.5085
C47A C 0.5867(3) -0.0977(3) 0.6487(9)
C48A C 0.5758(3) -0.1010(3) 0.7574(10)
H27A H 0.5890 -0.1198 0.8124
C49A C 0.5484(3) -0.0791(3) 0.7852(9)
H28A H 0.5414 -0.0838 0.8579
C50A C 0.6187(2) -0.1211(3) 0.6172(9)
C51A C 0.6490(3) -0.1323(3) 0.7042(9)
H29A H 0.6493 -0.1241 0.7815
C52A C 0.6776(2) -0.1550(3) 0.6727(8)
H30A H 0.6996 -0.1584 0.7257
C53A C 0.6749(2) -0.1732(2) 0.5633(7)
C54A C 0.6456(2) -0.1653(3) 0.4858(9)
H31A H 0.6430 -0.1789 0.4131
C55A C 0.6180(2) -0.1368(3) 0.5112(8)
H32A H 0.5987 -0.1286 0.4522
C56A C 0.7047(2) -0.2014(3) 0.5416(8)
O7A O 0.69622(14) -0.22871(19) 0.4507(6)
O8A O 0.73784(13) -0.19851(16) 0.6028(6)
Zn1A Zn -0.23058(2) 0.25153(3) -0.36500(13)
Zn2G Zn -0.22987(2) -0.24852(3) -0.36547(13)
Zn1A_2 Zn 0.76942(2) 0.25153(3) 0.63500(13)
Zn1B Zn -0.26942(2) -0.24847(3) -0.13500(13)
Zn1C Zn 0.26942(2) -0.24847(3) 0.63500(13)
Zn1F Zn 0.26942(2) 0.24847(3) 1.13500(13)
Zn1G Zn 0.73058(2) 0.24847(3) 0.36500(13)
Zn2A Zn 0.72987(2) -0.25148(3) 0.36547(13)
Zn2D Zn -0.27013(2) 0.25148(3) -0.13453(13)
Zn2E Zn 0.27013(2) 0.25148(3) 0.63453(13)
Zn2F Zn 0.22987(2) -0.24852(3) 0.86547(13)
Zn2G_2 Zn 0.77013(2) -0.24852(3) 0.63453(13)
O1B O 0.26689(13) 0.29828(16) 0.8684(7)
O1C O -0.26689(13) 0.29828(16) -0.3684(7)
O2G O 0.30429(12) -0.27616(15) 1.2635(5)
O4B O -0.26418(13) -0.29607(16) -0.3654(6)
O4E O 0.23582(13) -0.20393(16) 1.1346(6)
O5A_2 O -0.26104(13) 0.19975(16) -0.3937(6)
O6F O 0.19760(14) 0.27091(19) 0.9546(6)
O6G O -0.19760(14) 0.27091(19) -0.4546(6)
O7G O -0.19622(14) -0.27129(19) -0.4507(6)
O8A_2 O -0.26216(13) -0.19851(16) -0.3972(6)
O8F O 0.23784(13) -0.30149(16) 1.1028(6)
loop_
_geom_bond_atom_site_label_1
_geom_bond_atom_site_label_2
_geom_bond_site_symmetry_1
_geom_bond_site_symmetry_2
Zn1 O3 1_555 1_555
Zn2 O7 1_555 1_555
O1 C1 1_555 1_555
C1 O2 1_555 1_555
O2 Zn2G 1_555 1_555
C2 C1 1_555 1_555
C3 C2 1_555 1_555
H1 C3 1_555 1_555
C4 C3 1_555 1_555
H2 C4 1_555 1_555
C5 C4 1_555 1_555
C6 C5 1_555 1_555
H3 C6 1_555 1_555
C7 C2 1_555 1_555
H4 C7 1_555 1_555
C8 C5 1_555 1_555
C9 C8 1_555 1_555
H5 C9 1_555 1_555
C10 C9 1_555 1_555
H6 C10 1_555 1_555
C11 C10 1_555 1_555
C12 C11 1_555 1_555
H7 C12 1_555 1_555
C13 C8 1_555 1_555
H8 C13 1_555 1_555
C14 C11 1_555 1_555
C15 C14 1_555 1_555
C16 C15 1_555 1_555
C17 C16 1_555 1_555
H9 C17 1_555 1_555
C18 C17 1_555 1_555
H10 C18 1_555 1_555
C19 C18 1_555 1_555
C20 C19 1_555 1_555
H11 C20 1_555 1_555
C21 C16 1_555 1_555
H12 C21 1_555 1_555
C22 C19 1_555 1_555
C23 C22 1_555 1_555
H13 C23 1_555 1_555
C24 C23 1_555 1_555
H14 C24 1_555 1_555
C25 C24 1_555 1_555
C26 C25 1_555 1_555
H15 C26 1_555 1_555
C27 C22 1_555 1_555
H16 C27 1_555 1_555
C28 C25 1_555 1_555
O3 C28 1_555 1_555
O4 C28 1_555 1_555
O5 Zn1 1_555 1_555
O6 C29 1_555 1_555
C29 O5 1_555 1_555
C30 C29 1_555 1_555
C31 C30 1_555 1_555
H17 C31 1_555 1_555
C32 C31 1_555 1_555
H18 C32 1_555 1_555
C33 C32 1_555 1_555
C34 C33 1_555 1_555
H19 C34 1_555 1_555
C35 C30 1_555 1_555
H20 C35 1_555 1_555
C36 C33 1_555 1_555
C37 C36 1_555 1_555
H21 C37 1_555 1_555
C38 C37 1_555 1_555
H22 C38 1_555 1_555
C39 C38 1_555 1_555
C40 C39 1_555 1_555
H23 C40 1_555 1_555
C41 C36 1_555 1_555
H24 C41 1_555 1_555
C42 C39 1_555 1_555
C43 C42 1_555 1_555
C44 C43 1_555 1_555
C45 C44 1_555 1_555
H25 C45 1_555 1_555
C46 C45 1_555 1_555
H26 C46 1_555 1_555
C47 C46 1_555 1_555
C48 C47 1_555 1_555
H27 C48 1_555 1_555
C49 C44 1_555 1_555
H28 C49 1_555 1_555
C50 C47 1_555 1_555
C51 C50 1_555 1_555
H29 C51 1_555 1_555
C52 C51 1_555 1_555
H30 C52 1_555 1_555
C53 C52 1_555 1_555
C54 C53 1_555 1_555
H31 C54 1_555 1_555
C55 C50 1_555 1_555
H32 C55 1_555 1_555
C56 C53 1_555 1_555
O7 C56 1_555 1_555
O8 C56 1_555 1_555
O1A C1A 1_555 1_555
C1A O2A 1_555 1_555
O2A Zn2F 1_555 1_555
C2A C1A 1_555 1_555
C3A C2A 1_555 1_555
H1A C3A 1_555 1_555
C4A C3A 1_555 1_555
H2A C4A 1_555 1_555
C5A C4A 1_555 1_555
C6A C5A 1_555 1_555
H3A C6A 1_555 1_555
C7A C2A 1_555 1_555
H4A C7A 1_555 1_555
C8A C5A 1_555 1_555
C9A C8A 1_555 1_555
H5A C9A 1_555 1_555
C10A C9A 1_555 1_555
H6A C10A 1_555 1_555
C11A C14 1_555 1_555
C12A C11A 1_555 1_555
H7A C12A 1_555 1_555
C13A C8A 1_555 1_555
H8A C13A 1_555 1_555
C16A C15 1_555 1_555
C17A C16A 1_555 1_555
H9A C17A 1_555 1_555
C18A C17A 1_555 1_555
H10A C18A 1_555 1_555
C19A C18A 1_555 1_555
C20A C19A 1_555 1_555
H11A C20A 1_555 1_555
C21A C16A 1_555 1_555
H12A C21A 1_555 1_555
C22A C19A 1_555 1_555
C23A C22A 1_555 1_555
H13A C23A 1_555 1_555
C24A C23A 1_555 1_555
H14A C24A 1_555 1_555
C25A C24A 1_555 1_555
C26A C25A 1_555 1_555
H15A C26A 1_555 1_555
C27A C22A 1_555 1_555
H16A C27A 1_555 1_555
C28A C25A 1_555 1_555
O3A C28A 1_555 1_555
O4A C28A 1_555 1_555
O5A C29A 1_555 1_555
O6A C29A 1_555 1_555
C29A C30A 1_555 1_555
C30A C31A 1_555 1_555
C31A H17A 1_555 1_555
C32A C31A 1_555 1_555
H18A C32A 1_555 1_555
C33A C32A 1_555 1_555
C34A C33A 1_555 1_555
H19A C34A 1_555 1_555
C35A C30A 1_555 1_555
H20A C35A 1_555 1_555
C36A C33A 1_555 1_555
C37A C36A 1_555 1_555
H21A C37A 1_555 1_555
C38A C37A 1_555 1_555
H22A C38A 1_555 1_555
C39A C42 1_555 1_555
C40A C39A 1_555 1_555
H23A C40A 1_555 1_555
C41A C36A 1_555 1_555
H24A C41A 1_555 1_555
C44A C43 1_555 1_555
C45A C44A 1_555 1_555
H25A C45A 1_555 1_555
C46A C45A 1_555 1_555
H26A C46A 1_555 1_555
C47A C46A 1_555 1_555
C48A C47A 1_555 1_555
H27A C48A 1_555 1_555
C49A C44A 1_555 1_555
H28A C49A 1_555 1_555
C50A C47A 1_555 1_555
C51A C50A 1_555 1_555
H29A C51A 1_555 1_555
C52A C51A 1_555 1_555
H30A C52A 1_555 1_555
C53A C52A 1_555 1_555
C54A C53A 1_555 1_555
H31A C54A 1_555 1_555
C55A C50A 1_555 1_555
H32A C55A 1_555 1_555
C56A C53A 1_555 1_555
O7A C56A 1_555 1_555
O8A C56A 1_555 1_555
Zn1A O3A 1_555 1_555
Zn2G O4B 1_555 1_555
Zn1A_2 O5A 1_555 1_555
Zn1B O1 1_555 1_555
Zn1C O1A 1_555 1_555
Zn1F O6 1_555 1_555
Zn1G O6A 1_555 1_555
Zn2A O7A 1_555 1_555
Zn2D O4A 1_555 1_555
Zn2E O4 1_555 1_555
Zn2F O8 1_555 1_555
Zn2G_2 O8A 1_555 1_555
O1B Zn1 1_555 1_555
O1C Zn1A 1_555 1_555
O2G Zn2 1_555 1_555
O4E Zn2 1_555 1_555
O5A_2 Zn1A 1_555 1_555
O6F Zn1 1_555 1_555
O6G Zn1A 1_555 1_555
O7G Zn2G 1_555 1_555
O8A_2 Zn2G 1_555 1_555
O8F Zn2 1_555 1_555
C6 C7 1_555 1_555
C12 C13 1_555 1_555
C20 C21 1_555 1_555
C26 C27 1_555 1_555
C34 C35 1_555 1_555
C40 C41 1_555 1_555
C48 C49 1_555 1_555
C54 C55 1_555 1_555
C6A C7A 1_555 1_555
C10A C11A 1_555 1_555
C12A C13A 1_555 1_555
C20A C21A 1_555 1_555
C26A C27A 1_555 1_555
C34A C35A 1_555 1_555
C38A C39A 1_555 1_555
C40A C41A 1_555 1_555
C48A C49A 1_555 1_555
C54A C55A 1_555 1_555

#END
