
#######################################################################
#
#                 Cambridge Crystallographic Data Centre
#                                CCDC 
#
#######################################################################
#
# If this CIF has been generated from an entry in the Cambridge 
# Structural Database, then it will include bibliographic, chemical, 
# crystal, experimental, refinement or atomic coordinate data resulting 
# from the CCDC's data processing and validation procedures.
#
#######################################################################

data_GOXMEN
_symmetry_cell_setting           monoclinic
_symmetry_space_group_name_H-M   'C c'
_symmetry_Int_Tables_number      9
_space_group_name_Hall           'C -2yc'
loop_
_symmetry_equiv_pos_site_id
_symmetry_equiv_pos_as_xyz
1 x,y,z
2 x,-y,1/2+z
3 1/2+x,1/2+y,z
4 1/2+x,1/2-y,1/2+z
_cell_length_a                   16.373(5)
_cell_length_b                   29.948(5)
_cell_length_c                   10.402(5)
_cell_angle_alpha                90
_cell_angle_beta                 95.595(5)
_cell_angle_gamma                90
_cell_volume                     5076.2
loop_
_atom_site_label
_atom_site_type_symbol
_atom_site_fract_x
_atom_site_fract_y
_atom_site_fract_z
Co1 Co 0.71986(19) -0.34939(4) -0.0464(3)
Co2 Co 0.72034(18) -0.02660(4) -0.5459(3)
O1 O 0.7573(8) -0.2861(3) -0.1370(11)
O2 O 0.6865(7) -0.2861(4) 0.0358(10)
O3 O 0.6117(8) -0.0125(4) -0.4406(12)
O4 O 0.6403(9) 0.0245(4) -0.6091(15)
O5 O 0.3300(7) -0.5137(4) 0.3535(10)
O6 O 0.3027(6) -0.4756(3) 0.5277(10)
N1 N 0.6493(8) -0.3957(4) 0.0530(14)
N2 N 0.5661(8) -0.4198(4) 0.1920(12)
N3 N 0.5435(8) -0.3729(5) 0.6305(13)
N4 N 0.6161(9) -0.3483(5) 0.7997(13)
N5 N 0.3158(10) 0.1516(5) -0.8958(16)
N6 N 0.4066(9) 0.1272(6) -0.7260(14)
N7 N 0.6681(10) -0.1203(4) 0.1625(14)
N8 N 0.6718(9) -0.0747(4) 0.3234(13)
N9 N 0.7727(8) -0.1236(4) -0.2549(13)
N10 N 0.7704(8) -0.0714(4) -0.4146(12)
N11 N 0.3671(10) 0.0771(5) -0.2856(14)
N12 N 0.2917(9) 0.1087(5) -0.1445(13)
C1 C 0.7136(11) -0.2654(3) -0.042(2)
C2 C 0.7193(15) -0.2152(3) -0.040(2)
C3 C 0.6906(11) -0.1928(6) 0.0484(18)
H1 H 0.6669 -0.2081 0.1131
C4 C 0.6928(11) -0.1437(5) 0.0536(14)
C5 C 0.7024(12) -0.0859(6) 0.2167(18)
H2 H 0.7449 -0.0704 0.1834
C6 C 0.6088(9) -0.1059(5) 0.3330(18)
C7 C 0.5565(8) -0.1031(5) 0.4214(15)
H3 H 0.5597 -0.0818 0.4868
C8 C 0.4934(12) -0.1372(7) 0.404(2)
H4 H 0.4541 -0.1389 0.4632
C9 C 0.4904(11) -0.1672(6) 0.302(2)
H5 H 0.4487 -0.1884 0.2916
C10 C 0.5504(10) -0.1653(5) 0.2152(17)
H6 H 0.5518 -0.1840 0.1441
C11 C 0.6034(10) -0.1345(6) 0.2460(17)
C12 C 0.7213(14) -0.1225(3) -0.054(2)
H7 H 0.7219 -0.0915 -0.0595
C13 C 0.7483(11) -0.1479(6) -0.1534(19)
C14 C 0.7364(10) -0.0842(5) -0.3114(15)
H8 H 0.6932 -0.0692 -0.2788
C15 C 0.8292(11) -0.1020(5) -0.4365(16)
H9 H 0.8605 -0.1029 -0.5064
C16 C 0.8332(11) -0.1343(7) -0.3239(17)
H10 H 0.8709 -0.1573 -0.3069
C17 C 0.7465(11) -0.1922(5) -0.1550(13)
H11 H 0.7617 -0.2083 -0.2254
C18 C 0.5926(10) 0.0154(5) -0.5248(18)
C19 C 0.5199(12) 0.0475(6) -0.5165(17)
C20 C 0.4759(8) 0.0477(4) -0.4022(13)
H12 H 0.4930 0.0296 -0.3320
C21 C 0.4124(9) 0.0733(5) -0.3989(13)
C22 C 0.3258(10) 0.1150(5) -0.2540(13)
H13 H 0.3222 0.1412 -0.3023
C23 C 0.3281(11) 0.0670(5) -0.0983(15)
H14 H 0.3227 0.0551 -0.0170
C24 C 0.3726(10) 0.0468(6) -0.1917(18)
H15 H 0.3990 0.0193 -0.1886
C25 C 0.3835(12) 0.1029(7) -0.5121(17)
H16 H 0.3377 0.1212 -0.5115
C26 C 0.4293(10) 0.1011(5) -0.6161(16)
C27 C 0.4959(12) 0.0723(6) -0.6208(17)
H17 H 0.5232 0.0703 -0.6949
C28 C 0.3232(12) 0.1246(7) -0.7987(18)
H18 H 0.2817 0.1058 -0.7765
C29 C 0.3850(12) 0.1811(8) -0.873(2)
C30 C 0.4080(11) 0.2198(6) -0.9398(19)
H19 H 0.3720 0.2341 -1.0013
C31 C 0.4879(15) 0.2352(10) -0.907(4)
H20 H 0.5102 0.2580 -0.9534
C32 C 0.5351(17) 0.2136(6) -0.797(2)
H21 H 0.5657 0.2309 -0.7356
C33 C 0.5342(9) 0.1637(5) -0.7835(18)
H22 H 0.5760 0.1426 -0.7787
C34 C 0.4461(9) 0.1596(9) -0.780(3)
C35 C 0.3444(10) -0.4811(5) 0.4331(15)
C36 C 0.4190(9) -0.4541(5) 0.4197(15)
C37 C 0.4460(9) -0.4264(6) 0.5269(15)
H23 H 0.4185 -0.4259 0.6010
C38 C 0.5155(11) -0.4000(7) 0.5166(18)
C39 C 0.6111(8) -0.3755(5) 0.6993(14)
H24 H 0.6532 -0.3947 0.6813
C40 C 0.5347(14) -0.3335(8) 0.813(2)
C41 C 0.5056(9) -0.3096(7) 0.9025(16)
H25 H 0.5398 -0.2982 0.9714
C42 C 0.4207(11) -0.3016(6) 0.892(2)
H26 H 0.3938 -0.2900 0.9588
C43 C 0.3788(13) -0.3127(8) 0.7683(16)
H27 H 0.3224 -0.3174 0.7617
C44 C 0.4230(12) -0.3171(7) 0.6503(19)
H28 H 0.4105 -0.3048 0.5686
C45 C 0.4889(13) -0.3448(9) 0.696(3)
C46 C 0.5530(9) -0.3979(5) 0.4076(15)
H29 H 0.6004 -0.3810 0.4054
C47 C 0.5236(13) -0.4193(6) 0.3060(19)
C48 C 0.6224(11) -0.3877(5) 0.1628(18)
H30 H 0.6385 -0.3635 0.2155
C49 C 0.6231(13) -0.4366(6) 0.0082(18)
H31 H 0.6406 -0.4522 -0.0613
C50 C 0.5655(14) -0.4498(6) 0.0874(16)
H32 H 0.5314 -0.4745 0.0742
C51 C 0.4535(11) -0.4510(7) 0.3134(18)
H33 H 0.4349 -0.4682 0.2422
Co1_2 Co 0.71986(19) -0.34939(4) 0.9536(3)
Co1B Co 0.21986(19) 0.15061(4) -1.0464(3)
Co1B_2 Co 0.21986(19) 0.15061(4) -0.0464(3)
Co2_2 Co 0.72034(18) -0.02660(4) 0.4541(3)
Co2B Co 0.22034(18) -0.52660(4) 0.4541(3)
O5B O 0.8300(7) -0.0137(4) -0.6465(10)
O6B O 0.8027(6) 0.0244(3) -0.4723(10)
N4_2 N 0.6161(9) -0.3483(5) -0.2003(13)
N5B N 0.8158(10) -0.3484(5) 0.1042(16)
N8_2 N 0.6718(9) -0.0747(4) -0.6766(13)
N12B N 0.7917(9) -0.3913(5) -0.1445(13)
O7 O 0.627(2) -0.2770(10) 0.286(3)
O8 O 0.8066(17) -0.2838(7) -0.3858(18)
O9 O 0.2514(14) -0.0079(7) -0.3421(17)
O10 O 0.7293(7) -0.4611(4) 0.3316(18)
O11 O 0.7184(18) -0.3270(13) 0.434(4)
loop_
_geom_bond_atom_site_label_1
_geom_bond_atom_site_label_2
_geom_bond_site_symmetry_1
_geom_bond_site_symmetry_2
Co1 O1 1_555 1_555
Co2 O3 1_555 1_555
O1 C1 1_555 1_555
O2 Co1 1_555 1_555
O3 C18 1_555 1_555
O4 Co2 1_555 1_555
O5 C35 1_555 1_555
O6 C35 1_555 1_555
N1 Co1 1_555 1_555
N2 C47 1_555 1_555
N3 C38 1_555 1_555
N4 C39 1_555 1_555
N5 C28 1_555 1_555
N6 C26 1_555 1_555
N7 C4 1_555 1_555
N8 C5 1_555 1_555
N9 C13 1_555 1_555
N10 Co2 1_555 1_555
N11 C21 1_555 1_555
N12 C22 1_555 1_555
C1 O2 1_555 1_555
C2 C1 1_555 1_555
C3 C2 1_555 1_555
H1 C3 1_555 1_555
C4 C3 1_555 1_555
C5 N7 1_555 1_555
H2 C5 1_555 1_555
C6 N8 1_555 1_555
C7 C6 1_555 1_555
H3 C7 1_555 1_555
C8 C7 1_555 1_555
H4 C8 1_555 1_555
C9 C8 1_555 1_555
H5 C9 1_555 1_555
C10 C9 1_555 1_555
H6 C10 1_555 1_555
C11 N7 1_555 1_555
C12 C4 1_555 1_555
H7 C12 1_555 1_555
C13 C12 1_555 1_555
C14 N9 1_555 1_555
H8 C14 1_555 1_555
C15 N10 1_555 1_555
H9 C15 1_555 1_555
C16 N9 1_555 1_555
H10 C16 1_555 1_555
C17 C2 1_555 1_555
H11 C17 1_555 1_555
C18 O4 1_555 1_555
C19 C18 1_555 1_555
C20 C19 1_555 1_555
H12 C20 1_555 1_555
C21 C20 1_555 1_555
C22 N11 1_555 1_555
H13 C22 1_555 1_555
C23 N12 1_555 1_555
H14 C23 1_555 1_555
C24 N11 1_555 1_555
H15 C24 1_555 1_555
C25 C21 1_555 1_555
H16 C25 1_555 1_555
C26 C25 1_555 1_555
C27 C19 1_555 1_555
H17 C27 1_555 1_555
C28 N6 1_555 1_555
H18 C28 1_555 1_555
C29 N5 1_555 1_555
C30 C29 1_555 1_555
H19 C30 1_555 1_555
C31 C30 1_555 1_555
H20 C31 1_555 1_555
C32 C31 1_555 1_555
H21 C32 1_555 1_555
C33 C32 1_555 1_555
H22 C33 1_555 1_555
C34 N6 1_555 1_555
C35 C36 1_555 1_555
C36 C37 1_555 1_555
C37 H23 1_555 1_555
C38 C37 1_555 1_555
C39 N3 1_555 1_555
H24 C39 1_555 1_555
C40 N4 1_555 1_555
C41 C40 1_555 1_555
H25 C41 1_555 1_555
C42 C41 1_555 1_555
H26 C42 1_555 1_555
C43 C42 1_555 1_555
H27 C43 1_555 1_555
C44 C43 1_555 1_555
H28 C44 1_555 1_555
C45 N3 1_555 1_555
C46 C38 1_555 1_555
H29 C46 1_555 1_555
C47 C46 1_555 1_555
C48 N1 1_555 1_555
H30 C48 1_555 1_555
C49 N1 1_555 1_555
H31 C49 1_555 1_555
C50 N2 1_555 1_555
H32 C50 1_555 1_555
C51 C36 1_555 1_555
H33 C51 1_555 1_555
Co1_2 N4 1_555 1_555
Co1B N5 1_555 1_555
Co1B_2 N12 1_555 1_555
Co2_2 N8 1_555 1_555
Co2B O5 1_555 1_555
O5B Co2 1_555 1_555
O6B Co2 1_555 1_555
N4_2 Co1 1_555 1_555
N5B Co1 1_555 1_555
N8_2 Co2 1_555 1_555
N12B Co1 1_555 1_555
O6 Co2B 1_555 1_555
N2 C48 1_555 1_555
N10 C14 1_555 1_555
C6 C11 1_555 1_555
C10 C11 1_555 1_555
C13 C17 1_555 1_555
C15 C16 1_555 1_555
C23 C24 1_555 1_555
C26 C27 1_555 1_555
C29 C34 1_555 1_555
C33 C34 1_555 1_555
C40 C45 1_555 1_555
C44 C45 1_555 1_555
C47 C51 1_555 1_555
C49 C50 1_555 1_555

#END
