
#######################################################################
#
#                 Cambridge Crystallographic Data Centre
#                                CCDC 
#
#######################################################################
#
# If this CIF has been generated from an entry in the Cambridge 
# Structural Database, then it will include bibliographic, chemical, 
# crystal, experimental, refinement or atomic coordinate data resulting 
# from the CCDC's data processing and validation procedures.
#
#######################################################################

data_GOYXAV
_symmetry_cell_setting           monoclinic
_symmetry_space_group_name_H-M   'C 2/c'
_symmetry_Int_Tables_number      15
_space_group_name_Hall           '-C 2yn'
loop_
_symmetry_equiv_pos_site_id
_symmetry_equiv_pos_as_xyz
1 x,y,z
2 -x,y,1/2-z
3 1/2+x,1/2+y,z
4 1/2-x,1/2+y,1/2-z
5 -x,-y,-z
6 x,-y,1/2+z
7 1/2-x,1/2-y,-z
8 1/2+x,1/2-y,1/2+z
_cell_length_a                   22.052(7)
_cell_length_b                   9.528(3)
_cell_length_c                   16.899(6)
_cell_angle_alpha                90
_cell_angle_beta                 96.897(4)
_cell_angle_gamma                90
_cell_volume                     3524.98
loop_
_atom_site_label
_atom_site_type_symbol
_atom_site_fract_x
_atom_site_fract_y
_atom_site_fract_z
Sm1 Sm 0.99543(2) 0.19903(5) 1.06579(2)
Ag1 Ag 0.84197(4) 0.38097(14) 0.91638(6)
C1 C 0.7278(6) -0.1517(18) 0.9066(8)
H1 H 0.7102 -0.2191 0.8712
C2 C 1.0641(4) 0.2095(9) 0.8157(5)
O1 O 1.0597(3) 0.2286(8) 1.1930(4)
O2 O 1.0109(3) 0.2366(8) 0.9264(4)
O3 O 0.9363(3) 0.4036(7) 1.0184(4)
O4 O 0.8958(3) 0.1238(7) 1.0056(4)
O5 O 1.0216(3) 0.0219(7) 0.8787(4)
C3 C 1.0676(5) 0.3519(11) 0.8008(6)
H2 H 1.0497 0.4165 0.8321
C4 C 0.8140(4) -0.0238(11) 0.9645(6)
C5 C 1.0352(4) 0.2421(10) 1.2549(5)
C6 C 1.0946(5) 0.1194(12) 0.7697(6)
H3 H 1.0952 0.0233 0.7794
C7 C 1.1242(5) 0.1751(13) 0.7090(6)
H4 H 1.1441 0.1138 0.6779
C8 C 1.0978(5) 0.3964(13) 0.7393(7)
H5 H 1.0988 0.4923 0.7294
N1 N 1.1259(4) 0.3120(11) 0.6929(5)
C9 C 1.0290(4) 0.1518(11) 0.8783(5)
C10 C 0.7889(6) -0.1260(14) 0.9119(7)
H6 H 0.8134 -0.1761 0.8808
C11 C 0.6923(6) -0.0780(17) 0.9535(7)
H7 H 0.6508 -0.0983 0.9500
N2 N 0.7148(4) 0.0201(12) 1.0033(6)
C12 C 0.7747(4) 0.0486(13) 1.0077(6)
H8 H 0.7905 0.1203 1.0414
C13 C 0.8801(4) 0.0085(11) 0.9747(5)
O6 O 0.9143(3) -0.0806(8) 0.9525(4)
O7 O 1.0613(3) 0.2566(8) 1.3243(4)
C14 C 0.9651(4) 0.4985(10) 0.9877(5)
O8 O 0.9431(3) 0.5897(7) 0.9403(4)
O1A O 0.9403(3) 0.2286(8) 1.3070(4)
C5A C 0.9648(4) 0.2421(10) 1.2451(5)
O7A O 0.9387(3) 0.2566(8) 1.1757(4)
O3D O 1.0637(3) 0.5964(7) 0.9816(4)
C14D C 1.0349(4) 0.5015(10) 1.0123(5)
O8D O 1.0569(3) 0.4103(7) 1.0597(4)
Sm1A Sm 1.00457(2) 0.19903(5) 0.43421(2)
Ag1A Ag 1.15803(4) 0.38097(14) 0.58362(6)
C1A C 1.2722(6) -0.1517(18) 0.5934(8)
H1A H 1.2898 -0.2191 0.6288
C2A C 0.9359(4) 0.2095(9) 0.6843(5)
O2A O 0.9891(3) 0.2366(8) 0.5736(4)
O4A O 1.1042(3) 0.1238(7) 0.4944(4)
O5A O 0.9784(3) 0.0219(7) 0.6213(4)
C3A C 0.9324(5) 0.3519(11) 0.6992(6)
H2A H 0.9503 0.4165 0.6679
C4A C 1.1860(4) -0.0238(11) 0.5355(6)
C6A C 0.9054(5) 0.1194(12) 0.7303(6)
H3A H 0.9048 0.0233 0.7206
C7A C 0.8758(5) 0.1751(13) 0.7910(6)
H4A H 0.8559 0.1138 0.8221
C8A C 0.9022(5) 0.3964(13) 0.7607(7)
H5A H 0.9012 0.4923 0.7706
N1A N 0.8741(4) 0.3120(11) 0.8071(5)
C9A C 0.9710(4) 0.1518(11) 0.6217(5)
C10A C 1.2111(6) -0.1260(14) 0.5881(7)
H6A H 1.1866 -0.1761 0.6192
C11A C 1.3077(6) -0.0780(17) 0.5465(7)
H7A H 1.3492 -0.0983 0.5500
N2A N 1.2852(4) 0.0201(12) 0.4967(6)
C12A C 1.2253(4) 0.0486(13) 0.4923(6)
H8A H 1.2095 0.1203 0.4586
C13A C 1.1199(4) 0.0085(11) 0.5253(5)
O6A O 1.0857(3) -0.0806(8) 0.5475(4)
Sm1A_2 Sm 1.00457(2) 0.19903(5) 1.43421(2)
Sm1D Sm 1.00457(2) -0.19903(5) 0.93421(2)
Sm1D_2 Sm 1.00457(2) 0.80097(5) 0.93421(2)
Sm1E Sm 0.99543(2) -0.19903(5) 0.56579(2)
Ag1D Ag 1.15803(4) 0.61903(14) 1.08362(6)
Ag1F Ag 0.65803(4) 0.11903(14) 1.08362(6)
Ag1G Ag 1.34197(4) 0.11903(14) 0.41638(6)
O1A_2 O 0.9403(3) 0.2286(8) 0.3070(4)
O3A O 1.0637(3) 0.4036(7) 0.4816(4)
O5D O 0.9784(3) -0.0219(7) 1.1213(4)
O5E O 1.0216(3) -0.0219(7) 0.3787(4)
N2F N 0.7852(4) 0.4799(12) 0.9967(6)
N2G N 1.2148(4) 0.4799(12) 0.5033(6)
O6D O 1.0857(3) 0.0806(8) 1.0475(4)
O6E O 0.9143(3) 0.0806(8) 0.4525(4)
O7_2 O 1.0613(3) 0.2566(8) 0.3243(4)
O8E O 0.9431(3) 0.4103(7) 0.4403(4)
O9 O 0.6950(7) 0.250(2) 0.8107(13)
H9 H 0.6565 0.2494 0.8147
H10 H 0.7111 0.3300 0.8049
O10 O 0.7541(10) 0.552(3) 0.7916(16)
H11 H 0.7598 0.6388 0.8023
H12 H 0.7712 0.5452 0.7493
loop_
_geom_bond_atom_site_label_1
_geom_bond_atom_site_label_2
_geom_bond_site_symmetry_1
_geom_bond_site_symmetry_2
Sm1 O1 1_555 1_555
Ag1 O3 1_555 1_555
C1 H1 1_555 1_555
C2 C3 1_555 1_555
O1 C5 1_555 1_555
O2 Sm1 1_555 1_555
O3 Sm1 1_555 1_555
O4 Sm1 1_555 1_555
O5 C9 1_555 1_555
C3 H2 1_555 1_555
C4 C10 1_555 1_555
C5 O7 1_555 1_555
C6 C2 1_555 1_555
H3 C6 1_555 1_555
C7 C6 1_555 1_555
H4 C7 1_555 1_555
C8 C3 1_555 1_555
H5 C8 1_555 1_555
N1 C7 1_555 1_555
C9 C2 1_555 1_555
C10 C1 1_555 1_555
H6 C10 1_555 1_555
C11 C1 1_555 1_555
H7 C11 1_555 1_555
N2 C11 1_555 1_555
C12 C4 1_555 1_555
H8 C12 1_555 1_555
C13 O4 1_555 1_555
O6 C13 1_555 1_555
O7 Sm1A_2 1_555 1_555
C14 O3 1_555 1_555
O8 C14 1_555 1_555
O9 H9 1_555 1_555
H10 O9 1_555 1_555
O10 H11 1_555 1_555
H12 O10 1_555 1_555
O1A C5A 1_555 1_555
C5A C5 1_555 1_555
O7A Sm1 1_555 1_555
O3D C14D 1_555 1_555
C14D C14 1_555 1_555
O8D Sm1 1_555 1_555
Sm1A O2A 1_555 1_555
Ag1A N1 1_555 1_555
C1A H1A 1_555 1_555
C2A C3A 1_555 1_555
O2A C9A 1_555 1_555
O4A Sm1A 1_555 1_555
O5A C9A 1_555 1_555
C3A H2A 1_555 1_555
C4A C10A 1_555 1_555
C6A C2A 1_555 1_555
H3A C6A 1_555 1_555
C7A C6A 1_555 1_555
H4A C7A 1_555 1_555
C8A C3A 1_555 1_555
H5A C8A 1_555 1_555
N1A Ag1 1_555 1_555
C9A C2A 1_555 1_555
C10A C1A 1_555 1_555
H6A C10A 1_555 1_555
C11A C1A 1_555 1_555
H7A C11A 1_555 1_555
N2A C11A 1_555 1_555
C12A C4A 1_555 1_555
H8A C12A 1_555 1_555
C13A O4A 1_555 1_555
O6A C13A 1_555 1_555
Sm1A_2 O1A 1_555 1_555
Sm1D O5 1_555 1_555
Sm1D_2 O8 1_555 1_555
Sm1E O5A 1_555 1_555
Ag1D O3D 1_555 1_555
Ag1F N2 1_555 1_555
Ag1G N2A 1_555 1_555
O1A_2 Sm1A 1_555 1_555
O3A Sm1A 1_555 1_555
O5D Sm1 1_555 1_555
O5E Sm1A 1_555 1_555
N2F Ag1 1_555 1_555
N2G Ag1A 1_555 1_555
O6D Sm1 1_555 1_555
O6E Sm1A 1_555 1_555
O7_2 Sm1A 1_555 1_555
O8E Sm1A 1_555 1_555
O2 C9 1_555 1_555
C4 C13 1_555 1_555
C8 N1 1_555 1_555
N2 C12 1_555 1_555
O6 Sm1D 1_555 1_555
C5A O7A 1_555 1_555
O3D Sm1D_2 1_555 1_555
C14D O8D 1_555 1_555
Ag1A O3A 1_555 1_555
C4A C13A 1_555 1_555
C7A N1A 1_555 1_555
C8A N1A 1_555 1_555
N2A C12A 1_555 1_555
O6A Sm1E 1_555 1_555

#END
