
#######################################################################
#
#                 Cambridge Crystallographic Data Centre
#                                CCDC 
#
#######################################################################
#
# If this CIF has been generated from an entry in the Cambridge 
# Structural Database, then it will include bibliographic, chemical, 
# crystal, experimental, refinement or atomic coordinate data resulting 
# from the CCDC's data processing and validation procedures.
#
#######################################################################

data_GOYXUP
_symmetry_cell_setting           monoclinic
_symmetry_space_group_name_H-M   'C 2/c'
_symmetry_Int_Tables_number      15
_space_group_name_Hall           '-C 2yn'
loop_
_symmetry_equiv_pos_site_id
_symmetry_equiv_pos_as_xyz
1 x,y,z
2 -x,y,1/2-z
3 1/2+x,1/2+y,z
4 1/2-x,1/2+y,1/2-z
5 -x,-y,-z
6 x,-y,1/2+z
7 1/2-x,1/2-y,-z
8 1/2+x,1/2-y,1/2+z
_cell_length_a                   22.200(8)
_cell_length_b                   9.490(3)
_cell_length_c                   16.783(6)
_cell_angle_alpha                90
_cell_angle_beta                 96.537(4)
_cell_angle_gamma                90
_cell_volume                     3512.82
loop_
_atom_site_label
_atom_site_type_symbol
_atom_site_fract_x
_atom_site_fract_y
_atom_site_fract_z
Dy1 Dy -0.004675(15) 0.70083(3) 1.065929(19)
C1 C 0.0946(4) 0.6170(9) 0.7695(5)
H1 H 0.0940 0.5203 0.7785
O1 O 0.0575(2) 0.9076(5) 1.0575(3)
O2 O 0.1013(3) 0.3766(6) 0.9917(3)
C2 C 0.0644(3) 0.7074(8) 0.8152(4)
O3 O 0.0595(2) 0.7306(6) 1.1914(3)
O4 O 0.0070(3) 0.7343(6) 0.9274(3)
C3 C 0.1180(3) 0.4929(8) 1.0234(4)
O5 O 0.0834(3) 0.5863(6) 1.0449(3)
C4 C 0.0274(4) 0.6476(8) 0.8783(4)
C5 C 0.1842(4) 0.5246(9) 1.0363(4)
C6 C 0.0349(3) 1.0008(8) 1.0105(4)
C7 C 0.0669(4) 0.8497(9) 0.8001(5)
H2 H 0.0480 0.9137 0.8311
O6 O 0.0615(3) 0.7567(7) 1.3244(3)
C8 C 0.2242(4) 0.4493(10) 0.9944(5)
H3 H 0.2086 0.3777 0.9603
C9 C 0.2084(4) 0.6308(11) 1.0871(6)
H4 H 0.1833 0.6860 1.1150
O7 O 0.0188(3) 0.5181(6) 0.8774(3)
N1 N 0.1262(3) 0.8075(9) 0.6918(4)
C10 C 0.0982(4) 0.8965(10) 0.7378(5)
H5 H 0.0998 0.9927 0.7278
C11 C 0.1256(4) 0.6715(10) 0.7101(5)
H6 H 0.1474 0.6097 0.6813
N2 N 0.2839(3) 0.4742(10) 1.0006(5)
C12 C 0.3060(4) 0.5754(14) 1.0509(6)
H7 H 0.3474 0.5939 1.0561
C13 C 0.2697(5) 0.6534(14) 1.0955(7)
H8 H 0.2867 0.7212 1.1312
C14 C 0.0352(4) 0.7427(8) 1.2543(4)
O8 O 0.0629(2) 1.0968(5) 0.9793(3)
Ag1 Ag 0.15769(4) 1.12534(11) 1.07953(5)
O1D O -0.0575(2) 1.0924(5) 0.9425(3)
C6D C -0.0349(3) 0.9992(8) 0.9895(4)
O8D O -0.0629(2) 0.9032(5) 1.0207(3)
O3A O -0.0595(2) 0.7306(6) 1.3086(3)
O6A O -0.0615(3) 0.7567(7) 1.1756(3)
C14A C -0.0352(4) 0.7427(8) 1.2457(4)
Dy1A Dy 0.004675(15) 0.70083(3) 1.434071(19)
C1A C -0.0946(4) 0.6170(9) 1.7305(5)
H1A H -0.0940 0.5203 1.7215
O2A O -0.1013(3) 0.3766(6) 1.5083(3)
C2A C -0.0644(3) 0.7074(8) 1.6848(4)
O4A O -0.0070(3) 0.7343(6) 1.5726(3)
C3A C -0.1180(3) 0.4929(8) 1.4766(4)
O5A O -0.0834(3) 0.5863(6) 1.4551(3)
C4A C -0.0274(4) 0.6476(8) 1.6217(4)
C5A C -0.1842(4) 0.5246(9) 1.4637(4)
C7A C -0.0669(4) 0.8497(9) 1.6999(5)
H2A H -0.0480 0.9137 1.6689
C8A C -0.2242(4) 0.4493(10) 1.5056(5)
H3A H -0.2086 0.3777 1.5397
C9A C -0.2084(4) 0.6308(11) 1.4129(6)
H4A H -0.1833 0.6860 1.3850
O7A O -0.0188(3) 0.5181(6) 1.6226(3)
N1A N -0.1262(3) 0.8075(9) 1.8082(4)
C10A C -0.0982(4) 0.8965(10) 1.7622(5)
H5A H -0.0998 0.9927 1.7722
C11A C -0.1256(4) 0.6715(10) 1.7899(5)
H6A H -0.1474 0.6097 1.8187
N2A N -0.2839(3) 0.4742(10) 1.4994(5)
C12A C -0.3060(4) 0.5754(14) 1.4491(6)
H7A H -0.3474 0.5939 1.4439
C13A C -0.2697(5) 0.6534(14) 1.4045(7)
H8A H -0.2867 0.7212 1.3688
Ag1E Ag 0.15769(4) 0.87466(11) 0.57953(5)
Dy1D Dy 0.004675(15) 0.29917(3) 0.934071(19)
Dy1D_2 Dy 0.004675(15) 1.29917(3) 0.934071(19)
Dy1E Dy -0.004675(15) 0.29917(3) 1.565929(19)
O1A O -0.0575(2) 0.9076(5) 1.4425(3)
O2D O -0.1013(3) 0.6234(6) 1.0083(3)
O2E O 0.1013(3) 0.6234(6) 1.4917(3)
O7D O -0.0188(3) 0.4819(6) 1.1226(3)
O7E O 0.0188(3) 0.4819(6) 1.3774(3)
N1E N 0.1262(3) 1.1925(9) 1.1918(4)
N2C N 0.2161(3) 0.9742(10) 0.4994(5)
N2F N 0.2161(3) 1.0258(10) 0.9994(5)
O8E O 0.0629(2) 0.9032(5) 0.4793(3)
O8E_2 O 0.0629(2) 0.9032(5) 1.4793(3)
Ag1D Ag -0.15769(4) 0.87466(11) 0.92047(5)
Ag1D_2 Ag -0.15769(4) 0.87466(11) 1.92047(5)
Ag1F Ag 0.34231(4) 0.37466(11) 0.92047(5)
Ag1G Ag -0.34231(4) 0.37466(11) 1.57953(5)
O9 O 0.8033(5) 0.7367(16) 0.1882(9)
H9 H 0.8315 0.6837 0.1751
H10 H 0.8259 0.8099 0.1903
O10 O 0.7555(6) 0.9473(18) 0.2908(11)
H11 H 0.7482 1.0302 0.2750
H12 H 0.7568 0.8862 0.2540
loop_
_geom_bond_atom_site_label_1
_geom_bond_atom_site_label_2
_geom_bond_site_symmetry_1
_geom_bond_site_symmetry_2
Dy1 O1 1_555 1_555
C1 H1 1_555 1_555
O1 C6 1_555 1_555
O2 C3 1_555 1_555
C2 C1 1_555 1_555
O3 Dy1 1_555 1_555
O4 Dy1 1_555 1_555
C3 O5 1_555 1_555
O5 Dy1 1_555 1_555
C4 C2 1_555 1_555
C5 C3 1_555 1_555
C6 O8 1_555 1_555
C7 C2 1_555 1_555
H2 C7 1_555 1_555
O6 C14 1_555 1_555
C8 C5 1_555 1_555
H3 C8 1_555 1_555
C9 C5 1_555 1_555
H4 C9 1_555 1_555
O7 C4 1_555 1_555
N1 C10 1_555 1_555
C10 C7 1_555 1_555
H5 C10 1_555 1_555
C11 C1 1_555 1_555
H6 C11 1_555 1_555
N2 C8 1_555 1_555
C12 N2 1_555 1_555
H7 C12 1_555 1_555
C13 C9 1_555 1_555
H8 C13 1_555 1_555
C14 O3 1_555 1_555
O8 Ag1 1_555 1_555
Ag1 N1E 1_555 1_555
O9 H9 1_555 1_555
H10 O9 1_555 1_555
O10 H11 1_555 1_555
H12 O10 1_555 1_555
O1D C6D 1_555 1_555
C6D C6 1_555 1_555
O8D Dy1 1_555 1_555
O3A C14A 1_555 1_555
O6A Dy1 1_555 1_555
C14A C14 1_555 1_555
Dy1A O6 1_555 1_555
C1A H1A 1_555 1_555
O2A C3A 1_555 1_555
C2A C1A 1_555 1_555
O4A Dy1A 1_555 1_555
C3A O5A 1_555 1_555
O5A Dy1A 1_555 1_555
C4A C2A 1_555 1_555
C5A C3A 1_555 1_555
C7A C2A 1_555 1_555
H2A C7A 1_555 1_555
C8A C5A 1_555 1_555
H3A C8A 1_555 1_555
C9A C5A 1_555 1_555
H4A C9A 1_555 1_555
O7A C4A 1_555 1_555
N1A C10A 1_555 1_555
C10A C7A 1_555 1_555
H5A C10A 1_555 1_555
C11A C1A 1_555 1_555
H6A C11A 1_555 1_555
N2A C8A 1_555 1_555
C12A N2A 1_555 1_555
H7A C12A 1_555 1_555
C13A C9A 1_555 1_555
H8A C13A 1_555 1_555
Ag1E N1 1_555 1_555
Dy1D O2 1_555 1_555
Dy1D_2 O8 1_555 1_555
Dy1E O2A 1_555 1_555
O1A Dy1A 1_555 1_555
O2D Dy1 1_555 1_555
O2E Dy1A 1_555 1_555
O7D Dy1 1_555 1_555
O7E Dy1A 1_555 1_555
N2C Ag1E 1_555 1_555
N2F Ag1 1_555 1_555
O8E Ag1E 1_555 1_555
O8E_2 Dy1A 1_555 1_555
Ag1D O8D 1_555 1_555
Ag1D_2 N1A 1_555 1_555
Ag1F N2 1_555 1_555
Ag1G N2A 1_555 1_555
O4 C4 1_555 1_555
O7 Dy1D 1_555 1_555
N1 C11 1_555 1_555
C12 C13 1_555 1_555
O1D Dy1D_2 1_555 1_555
C6D O8D 1_555 1_555
O3A Dy1A 1_555 1_555
O6A C14A 1_555 1_555
O4A C4A 1_555 1_555
O7A Dy1E 1_555 1_555
N1A C11A 1_555 1_555
C12A C13A 1_555 1_555

#END
