
#######################################################################
#
#                 Cambridge Crystallographic Data Centre
#                                CCDC 
#
#######################################################################
#
# If this CIF has been generated from an entry in the Cambridge 
# Structural Database, then it will include bibliographic, chemical, 
# crystal, experimental, refinement or atomic coordinate data resulting 
# from the CCDC's data processing and validation procedures.
#
#######################################################################

data_GOYYEA
_symmetry_cell_setting           monoclinic
_symmetry_space_group_name_H-M   'C 2/c'
_symmetry_Int_Tables_number      15
_space_group_name_Hall           '-C 2yn'
loop_
_symmetry_equiv_pos_site_id
_symmetry_equiv_pos_as_xyz
1 x,y,z
2 -x,y,1/2-z
3 1/2+x,1/2+y,z
4 1/2-x,1/2+y,1/2-z
5 -x,-y,-z
6 x,-y,1/2+z
7 1/2-x,1/2-y,-z
8 1/2+x,1/2-y,1/2+z
_cell_length_a                   22.075(7)
_cell_length_b                   9.446(3)
_cell_length_c                   16.685(5)
_cell_angle_alpha                90
_cell_angle_beta                 96.828(4)
_cell_angle_gamma                90
_cell_volume                     3454.49
loop_
_atom_site_label
_atom_site_type_symbol
_atom_site_fract_x
_atom_site_fract_y
_atom_site_fract_z
Y1 Y -0.00450(3) 0.70144(7) 1.06596(4)
O1 O 0.0596(2) 0.7308(6) 1.1916(3)
O2 O 0.0576(2) 0.9068(5) 1.0578(3)
C1 C 0.0642(3) 0.7052(8) 0.8155(4)
O3 O 0.0071(2) 0.7315(6) 0.9266(3)
C2 C 0.0669(3) 0.8498(9) 0.7999(4)
H1 H 0.0480 0.9146 0.8307
C3 C 0.0344(3) 0.9991(7) 1.0107(4)
C4 C 0.0958(4) 0.6148(9) 0.7706(5)
H2 H 0.0962 0.5179 0.7805
C5 C 0.0348(3) 0.7431(8) 1.2548(4)
C6 C 0.0981(4) 0.8945(10) 0.7379(5)
H3 H 0.0990 0.9909 0.7268
O4 O 0.0616(2) 0.7569(6) 1.3258(3)
Ag1 Ag 0.15893(3) 1.12394(10) 1.08118(4)
C7 C 0.0261(3) 0.6469(9) 0.8789(4)
C8 C 0.1267(4) 0.6701(10) 0.7112(5)
H4 H 0.1486 0.6082 0.6823
N1 N 0.1272(3) 0.8056(9) 0.6928(4)
O5 O 0.0184(2) 0.5157(6) 0.8776(3)
O6 O 0.0637(2) 1.0984(5) 0.9806(3)
O7 O 0.0834(2) 0.5876(6) 1.0458(3)
C9 C 0.1173(3) 0.4933(8) 1.0240(4)
O8 O 0.1005(2) 0.3778(6) 0.9930(3)
C10 C 0.1838(3) 0.5245(9) 1.0367(4)
C11 C 0.2235(3) 0.4482(9) 0.9932(5)
H5 H 0.2076 0.3766 0.9586
N2 N 0.2832(3) 0.4745(9) 0.9995(4)
C12 C 0.2089(4) 0.6310(10) 1.0879(5)
H6 H 0.1838 0.6857 1.1166
C13 C 0.3051(4) 0.5765(13) 1.0494(6)
H7 H 0.3467 0.5959 1.0530
C14 C 0.2705(4) 0.6552(10) 1.0962(6)
H8 H 0.2883 0.7227 1.1322
O1A O -0.0596(2) 0.7308(6) 1.3084(3)
C5A C -0.0348(3) 0.7431(8) 1.2452(4)
O4A O -0.0616(2) 0.7569(6) 1.1742(3)
O2D O -0.0576(2) 1.0932(5) 0.9422(3)
C3D C -0.0344(3) 1.0009(7) 0.9893(4)
O6D O -0.0637(2) 0.9016(5) 1.0194(3)
Y1A Y 0.00450(3) 0.70144(7) 1.43404(4)
C1A C -0.0642(3) 0.7052(8) 1.6845(4)
O3A O -0.0071(2) 0.7315(6) 1.5734(3)
C2A C -0.0669(3) 0.8498(9) 1.7001(4)
H1A H -0.0480 0.9146 1.6693
C4A C -0.0958(4) 0.6148(9) 1.7294(5)
H2A H -0.0962 0.5179 1.7195
C6A C -0.0981(4) 0.8945(10) 1.7621(5)
H3A H -0.0990 0.9909 1.7732
C7A C -0.0261(3) 0.6469(9) 1.6211(4)
C8A C -0.1267(4) 0.6701(10) 1.7888(5)
H4A H -0.1486 0.6082 1.8177
N1A N -0.1272(3) 0.8056(9) 1.8072(4)
O5A O -0.0184(2) 0.5157(6) 1.6224(3)
O7A O -0.0834(2) 0.5876(6) 1.4542(3)
C9A C -0.1173(3) 0.4933(8) 1.4760(4)
O8A O -0.1005(2) 0.3778(6) 1.5070(3)
C10A C -0.1838(3) 0.5245(9) 1.4633(4)
C11A C -0.2235(3) 0.4482(9) 1.5068(5)
H5A H -0.2076 0.3766 1.5414
N2A N -0.2832(3) 0.4745(9) 1.5005(4)
C12A C -0.2089(4) 0.6310(10) 1.4121(5)
H6A H -0.1838 0.6857 1.3834
C13A C -0.3051(4) 0.5765(13) 1.4506(6)
H7A H -0.3467 0.5959 1.4470
C14A C -0.2705(4) 0.6552(10) 1.4038(6)
H8A H -0.2883 0.7227 1.3678
Ag1E Ag 0.15893(3) 0.87606(10) 0.58118(4)
Y1D Y 0.00450(3) 0.29856(7) 0.93404(4)
Y1D_2 Y 0.00450(3) 1.29856(7) 0.93404(4)
Y1E Y -0.00450(3) 0.29856(7) 1.56596(4)
O2A O -0.0576(2) 0.9068(5) 1.4422(3)
Ag1D Ag -0.15893(3) 0.87606(10) 0.91882(4)
Ag1D_2 Ag -0.15893(3) 0.87606(10) 1.91882(4)
Ag1F Ag 0.34107(3) 0.37606(10) 0.91882(4)
Ag1G Ag -0.34107(3) 0.37606(10) 1.58118(4)
N1E N 0.1272(3) 1.1944(9) 1.1928(4)
O5D O -0.0184(2) 0.4843(6) 1.1224(3)
O5E O 0.0184(2) 0.4843(6) 1.3776(3)
O6E O 0.0637(2) 0.9016(5) 0.4806(3)
O6E_2 O 0.0637(2) 0.9016(5) 1.4806(3)
O8D O -0.1005(2) 0.6222(6) 1.0070(3)
O8E O 0.1005(2) 0.6222(6) 1.4930(3)
N2C N 0.2168(3) 0.9745(9) 0.5005(4)
N2F N 0.2168(3) 1.0255(9) 1.0005(4)
O9 O 0.1954(5) 0.2533(15) 0.8124(8)
H9 H 0.1603 0.2201 0.7941
H10 H 0.1851 0.3398 0.8142
O10 O 0.2532(4) 0.5482(10) 0.7902(6)
H11 H 0.2457 0.4725 0.7636
H12 H 0.2675 0.6087 0.7597
loop_
_geom_bond_atom_site_label_1
_geom_bond_atom_site_label_2
_geom_bond_site_symmetry_1
_geom_bond_site_symmetry_2
Y1 O1 1_555 1_555
O1 C5 1_555 1_555
O2 Y1 1_555 1_555
C1 C2 1_555 1_555
O3 Y1 1_555 1_555
C2 H1 1_555 1_555
C3 O2 1_555 1_555
C4 C1 1_555 1_555
H2 C4 1_555 1_555
C5 O4 1_555 1_555
C6 C2 1_555 1_555
H3 C6 1_555 1_555
O4 Y1A 1_555 1_555
Ag1 O6 1_555 1_555
C7 C1 1_555 1_555
C8 C4 1_555 1_555
H4 C8 1_555 1_555
N1 C6 1_555 1_555
O5 C7 1_555 1_555
O6 C3 1_555 1_555
O7 Y1 1_555 1_555
C9 O7 1_555 1_555
O8 C9 1_555 1_555
C10 C9 1_555 1_555
C11 C10 1_555 1_555
H5 C11 1_555 1_555
N2 C11 1_555 1_555
C12 C10 1_555 1_555
H6 C12 1_555 1_555
C13 N2 1_555 1_555
H7 C13 1_555 1_555
C14 C12 1_555 1_555
H8 C14 1_555 1_555
O9 H9 1_555 1_555
H10 O9 1_555 1_555
O10 H11 1_555 1_555
H12 O10 1_555 1_555
O1A C5A 1_555 1_555
C5A C5 1_555 1_555
O4A Y1 1_555 1_555
O2D C3D 1_555 1_555
C3D C3 1_555 1_555
O6D Y1 1_555 1_555
Y1A O1A 1_555 1_555
C1A C2A 1_555 1_555
O3A Y1A 1_555 1_555
C2A H1A 1_555 1_555
C4A C1A 1_555 1_555
H2A C4A 1_555 1_555
C6A C2A 1_555 1_555
H3A C6A 1_555 1_555
C7A C1A 1_555 1_555
C8A C4A 1_555 1_555
H4A C8A 1_555 1_555
N1A C6A 1_555 1_555
O5A C7A 1_555 1_555
O7A Y1A 1_555 1_555
C9A O7A 1_555 1_555
O8A C9A 1_555 1_555
C10A C9A 1_555 1_555
C11A C10A 1_555 1_555
H5A C11A 1_555 1_555
N2A C11A 1_555 1_555
C12A C10A 1_555 1_555
H6A C12A 1_555 1_555
C13A N2A 1_555 1_555
H7A C13A 1_555 1_555
C14A C12A 1_555 1_555
H8A C14A 1_555 1_555
Ag1E N1 1_555 1_555
Y1D O5 1_555 1_555
Y1D_2 O6 1_555 1_555
Y1E O5A 1_555 1_555
O2A Y1A 1_555 1_555
Ag1D O6D 1_555 1_555
Ag1D_2 N1A 1_555 1_555
Ag1F N2 1_555 1_555
Ag1G N2A 1_555 1_555
N1E Ag1 1_555 1_555
O5D Y1 1_555 1_555
O5E Y1A 1_555 1_555
O6E Ag1E 1_555 1_555
O6E_2 Y1A 1_555 1_555
O8D Y1 1_555 1_555
O8E Y1A 1_555 1_555
N2C Ag1E 1_555 1_555
N2F Ag1 1_555 1_555
O3 C7 1_555 1_555
C8 N1 1_555 1_555
O8 Y1D 1_555 1_555
C13 C14 1_555 1_555
C5A O4A 1_555 1_555
O2D Y1D_2 1_555 1_555
C3D O6D 1_555 1_555
O3A C7A 1_555 1_555
C8A N1A 1_555 1_555
O8A Y1E 1_555 1_555
C13A C14A 1_555 1_555

#END
