
#######################################################################
#
#                 Cambridge Crystallographic Data Centre
#                                CCDC 
#
#######################################################################
#
# If this CIF has been generated from an entry in the Cambridge 
# Structural Database, then it will include bibliographic, chemical, 
# crystal, experimental, refinement or atomic coordinate data resulting 
# from the CCDC's data processing and validation procedures.
#
#######################################################################

data_GUJGAU
_symmetry_cell_setting           triclinic
_symmetry_space_group_name_H-M   'P -1'
_symmetry_Int_Tables_number      2
_space_group_name_Hall           '-P 1'
loop_
_symmetry_equiv_pos_site_id
_symmetry_equiv_pos_as_xyz
1 x,y,z
2 -x,-y,-z
_cell_length_a                   13.3299(11)
_cell_length_b                   13.6362(14)
_cell_length_c                   15.2900(18)
_cell_angle_alpha                108.916(2)
_cell_angle_beta                 101.898(2)
_cell_angle_gamma                111.6910(10)
_cell_volume                     2268.78
loop_
_atom_site_label
_atom_site_type_symbol
_atom_site_fract_x
_atom_site_fract_y
_atom_site_fract_z
La1 La 0.68396(2) 0.64765(2) 0.426503(19)
La2 La 0.90064(2) 0.89347(2) 0.346075(17)
P1 P 1.01260(10) 0.82398(10) 0.55749(8)
P2 P 0.58143(10) 0.77443(11) 0.26540(9)
P3 P 0.78235(10) 0.92225(10) 0.56032(9)
P4 P 0.61501(12) 0.59183(12) 0.63111(10)
P5 P 1.18312(12) 1.17685(12) 0.92912(9)
N1 N 1.0102(4) 0.6073(3) 0.4930(3)
H1 H 0.9331 0.5848 0.4667
N2 N 0.5163(4) 0.6130(4) 0.0694(3)
H2 H 0.5837 0.6614 0.0675
N3 N 0.6085(3) 0.9928(3) 0.5053(3)
H3 H 0.5900 0.9439 0.4409
N4 N 0.8203(4) 0.7396(4) 0.8074(3)
H4 H 0.8420 0.7630 0.8742
N5 N 1.0401(4) 0.9272(4) 0.8352(3)
H5 H 1.0346 0.9167 0.7722
C1 C 0.7060(5) 0.4528(4) 0.2950(4)
C2 C 0.8704(5) 0.6452(4) 0.2712(4)
C3 C 0.7588(5) 0.4266(5) 0.2192(4)
C4 C 0.8383(5) 0.5194(5) 0.2094(4)
C5 C 0.8855(6) 0.4950(6) 0.1380(5)
H6 H 0.9389 0.5563 0.1310
C6 C 0.8535(7) 0.3783(7) 0.0756(5)
H7 H 0.8847 0.3622 0.0269
C7 C 0.7753(7) 0.2876(6) 0.0870(5)
H8 H 0.7547 0.2101 0.0466
C8 C 0.7282(6) 0.3113(6) 0.1575(5)
H9 H 0.6751 0.2497 0.1642
C9 C 1.0779(5) 0.7311(4) 0.5061(4)
H10 H 1.0788 0.7291 0.4422
H11 H 1.1576 0.7652 0.5506
C10 C 1.0360(6) 0.5223(5) 0.4225(4)
H12 H 1.1182 0.5455 0.4481
H13 H 1.0171 0.5237 0.3583
C11 C 1.0344(5) 0.6010(5) 0.5901(4)
H14 H 1.0160 0.6546 0.6349
H15 H 1.1166 0.6258 0.6198
C12 C 0.4781(4) 0.6885(5) 0.1359(4)
H16 H 0.4032 0.6384 0.1344
H17 H 0.4683 0.7418 0.1098
C13 C 0.4271(4) 0.5450(5) -0.0342(3)
H18 H 0.4161 0.5994 -0.0582
H19 H 0.3535 0.4955 -0.0331
C14 C 0.5383(5) 0.5307(5) 0.1046(4)
H20 H 0.4686 0.4808 0.1105
H21 H 0.5998 0.5752 0.1700
C15 C 0.7325(4) 1.0315(4) 0.5649(4)
H22 H 0.7470 1.0768 0.6341
H23 H 0.7818 1.0851 0.5445
C16 C 0.5257(4) 0.9307(5) 0.5459(4)
H24 H 0.5487 0.9807 0.6159
H25 H 0.5292 0.8592 0.5403
C17 C 0.5974(4) 1.0993(4) 0.5099(5)
H26 H 0.6487 1.1386 0.4817
H27 H 0.6217 1.1534 0.5789
C18 C 0.7004(4) 0.6359(5) 0.7591(4)
H28 H 0.6560 0.6525 0.7994
H29 H 0.7080 0.5688 0.7620
C19 C 0.8257(4) 0.8427(5) 0.7900(4)
H30 H 0.7655 0.8599 0.8061
H31 H 0.8108 0.8234 0.7202
C20 C 0.9095(4) 0.7123(5) 0.7773(4)
H32 H 0.8944 0.6953 0.7078
H33 H 0.9062 0.6435 0.7851
C21 C 1.0295(5) 0.8170(5) 0.8417(4)
H34 H 1.0458 0.8298 0.9105
H35 H 1.0873 0.7991 0.8212
C22 C 0.9428(4) 0.9500(5) 0.8526(4)
H36 H 0.9445 1.0139 0.8369
H37 H 0.9539 0.9742 0.9224
C23 C 1.1608(5) 1.0274(5) 0.9057(4)
H38 H 1.2171 1.0146 0.8788
H39 H 1.1771 1.0236 0.9690
O1 O 0.7701(4) 0.4990(3) 0.3855(3)
O2 O 0.6032(4) 0.4366(4) 0.2673(3)
O3 O 0.7980(3) 0.6675(3) 0.3060(3)
O4 O 0.9656(4) 0.7256(4) 0.2858(3)
O5 O 1.0235(3) 0.9013(3) 0.5030(2)
O6 O 0.8910(3) 0.7360(3) 0.5371(3)
O7 O 1.0858(3) 0.9056(3) 0.6680(3)
O8 O 0.5649(3) 0.6883(3) 0.3109(3)
O9 O 0.5453(4) 0.8661(4) 0.3117(3)
O10 O 0.6981(3) 0.8262(4) 0.2558(3)
O11 O 0.7883(3) 0.8687(3) 0.4586(2)
O12 O 0.6932(3) 0.8204(3) 0.5698(3)
O13 O 0.8983(3) 0.9946(3) 0.6445(2)
O14 O 0.6904(3) 0.5969(3) 0.5709(3)
O15 O 0.5715(4) 0.6865(4) 0.6381(3)
H40 H 0.6076 0.7310 0.6173
O16 O 0.5161(3) 0.4731(4) 0.6005(3)
O17 O 1.3135(4) 1.2540(4) 0.9745(3)
O18 O 1.1250(4) 1.2080(4) 1.0029(3)
O19 O 1.1223(3) 1.1672(4) 0.8295(3)
La1A La 1.31604(2) 0.35235(2) 0.573497(19)
La1A_2 La 0.31604(2) 0.35235(2) 0.573497(19)
La1A_3 La 0.31604(2) 0.35235(2) -0.426503(19)
La1A_4 La 0.31604(2) 1.35235(2) 0.573497(19)
La2A La 1.09936(2) 0.10653(2) 0.653925(17)
La2A_2 La 1.09936(2) 1.10653(2) 0.653925(17)
La2_2 La 0.90064(2) -0.10653(2) 0.346075(17)
La2A_3 La 0.09936(2) 0.10653(2) -0.346075(17)
La2_3 La -0.09936(2) 0.89347(2) 0.346075(17)
La2A_4 La 0.09936(2) 1.10653(2) 0.653925(17)
La2_4 La -0.09936(2) -0.10653(2) 0.346075(17)
P1A P 0.98740(10) 0.17602(10) 0.44251(8)
P2A P 0.41857(10) 0.22557(11) -0.26540(9)
P3A P 0.21765(10) 1.07775(10) 0.43968(9)
P4A P 0.38499(12) 0.40817(12) 0.36889(10)
P5A P -0.18312(12) -0.17685(12) 0.07088(9)
N1A N 0.9898(4) 0.3927(3) 0.5070(3)
H1A H 1.0669 0.4152 0.5333
N2A N 0.4837(4) 0.3870(4) -0.0694(3)
H2A H 0.4163 0.3386 -0.0675
N3A N 0.3915(3) 1.0072(3) 0.4947(3)
H3A H 0.4100 1.0561 0.5591
N4A N 0.1797(4) 0.2604(4) 0.1926(3)
H4A H 0.1580 0.2370 0.1258
N5A N -0.0401(4) 0.0728(4) 0.1648(3)
H5A H -0.0346 0.0833 0.2278
C1A C 1.2940(5) 0.5472(4) 0.7050(4)
C2A C 1.1296(5) 0.3548(4) 0.7288(4)
C3A C 1.2412(5) 0.5734(5) 0.7808(4)
C4A C 1.1617(5) 0.4806(5) 0.7906(4)
C5A C 1.1145(6) 0.5050(6) 0.8620(5)
H6A H 1.0611 0.4437 0.8690
C6A C 1.1465(7) 0.6217(7) 0.9244(5)
H7A H 1.1153 0.6378 0.9731
C7A C 1.2247(7) 0.7124(6) 0.9130(5)
H8A H 1.2453 0.7899 0.9534
C8A C 1.2718(6) 0.6887(6) 0.8425(5)
H9A H 1.3249 0.7503 0.8358
C9A C 0.9221(5) 0.2689(4) 0.4939(4)
H10A H 0.9212 0.2709 0.5578
H11A H 0.8424 0.2348 0.4494
C10A C 0.9640(6) 0.4777(5) 0.5775(4)
H12A H 0.8818 0.4545 0.5519
H13A H 0.9829 0.4763 0.6417
C11A C 0.9656(5) 0.3990(5) 0.4099(4)
H14A H 0.9840 0.3454 0.3651
H15A H 0.8834 0.3742 0.3802
C12A C 0.5219(4) 0.3115(5) -0.1359(4)
H16A H 0.5968 0.3616 -0.1344
H17A H 0.5317 0.2582 -0.1098
C13A C 0.5729(4) 0.4550(5) 0.0342(3)
H18A H 0.5839 0.4006 0.0582
H19A H 0.6465 0.5045 0.0331
C14A C 0.4617(5) 0.4693(5) -0.1046(4)
H20A H 0.5314 0.5192 -0.1105
H21A H 0.4002 0.4248 -0.1700
C15A C 0.2675(4) 0.9685(4) 0.4351(4)
H22A H 0.2530 0.9232 0.3659
H23A H 0.2182 0.9149 0.4555
C16A C 0.4743(4) 1.0693(5) 0.4541(4)
H24A H 0.4513 1.0193 0.3841
H25A H 0.4708 1.1408 0.4597
C17A C 0.4026(4) 0.9007(4) 0.4901(5)
H26A H 0.3513 0.8614 0.5183
H27A H 0.3783 0.8466 0.4211
C18A C 0.2996(4) 0.3641(5) 0.2409(4)
H28A H 0.3440 0.3475 0.2006
H29A H 0.2920 0.4312 0.2380
C19A C 0.1743(4) 0.1573(5) 0.2100(4)
H30A H 0.2345 0.1401 0.1939
H31A H 0.1892 0.1766 0.2798
C20A C 0.0905(4) 0.2877(5) 0.2227(4)
H32A H 0.1056 0.3047 0.2922
H33A H 0.0938 0.3565 0.2149
C21A C -0.0295(5) 0.1830(5) 0.1583(4)
H34A H -0.0458 0.1702 0.0895
H35A H -0.0873 0.2009 0.1788
C22A C 0.0572(4) 0.0500(5) 0.1474(4)
H36A H 0.0555 -0.0139 0.1631
H37A H 0.0461 0.0258 0.0776
C23A C -0.1608(5) -0.0274(5) 0.0943(4)
H38A H -0.2171 -0.0146 0.1212
H39A H -0.1771 -0.0236 0.0310
O1A O 1.2299(4) 0.5010(3) 0.6145(3)
O2A O 1.3968(4) 0.5634(4) 0.7327(3)
O3A O 1.2020(3) 0.3325(3) 0.6940(3)
O4A O 1.0344(4) 0.2744(4) 0.7142(3)
O5A O 0.9765(3) 0.0987(3) 0.4970(2)
O5A_2 O 0.9765(3) 1.0987(3) 0.4970(2)
O5_2 O 1.0235(3) -0.0987(3) 0.5030(2)
O6A O 1.1090(3) 0.2640(3) 0.4629(3)
O7A O 0.9142(3) 0.0944(3) 0.3320(3)
O7A_2 O 0.9142(3) 1.0944(3) 0.3320(3)
O7_2 O 1.0858(3) -0.0944(3) 0.6680(3)
O8A O 0.4351(3) 0.3117(3) -0.3109(3)
O8A_2 O 1.4351(3) 0.3117(3) 0.6891(3)
O9A O 0.4547(4) 0.1339(4) -0.3117(3)
O10A O 0.3019(3) 0.1738(4) -0.2558(3)
O10A_2 O 1.3019(3) 0.1738(4) 0.7442(3)
O11A O 0.2117(3) 1.1313(3) 0.5414(2)
O11A_2 O 1.2117(3) 0.1313(3) 0.5414(2)
O12A O 0.3068(3) 1.1796(3) 0.4302(3)
O12A_2 O 1.3068(3) 0.1796(3) 0.4302(3)
O13A O 0.1017(3) 1.0054(3) 0.3555(2)
O13A_2 O 1.1017(3) 1.0054(3) 0.3555(2)
O13_2 O 0.8983(3) -0.0054(3) 0.6445(2)
O14A O 0.3096(3) 0.4031(3) 0.4291(3)
O14A_2 O 1.3096(3) 0.4031(3) 0.4291(3)
O15A O 0.4285(4) 0.3135(4) 0.3619(3)
H40A H 0.3924 0.2690 0.3827
O16A O 0.4839(3) 0.5269(4) 0.3995(3)
O16_2 O 1.5161(3) 0.4731(4) 0.6005(3)
O17A O -0.3135(4) -0.2540(4) 0.0255(3)
O18A O -0.1250(4) -0.2080(4) -0.0029(3)
O19A O -0.1223(3) -0.1672(4) 0.1705(3)
O19A_2 O 0.8777(3) 0.8328(4) 0.1705(3)
O19_2 O 1.1223(3) 0.1672(4) 0.8295(3)
O20 O 0.3417(7) 0.6414(7) 0.3224(7)
O21 O 0.5706(7) 0.7908(7) -0.1110(6)
O22 O 0.6862(8) 0.3624(8) 0.5059(8)
O23 O 0.6762(11) 1.0533(11) 0.2666(12)
O24 O 1.2164(17) 0.9412(15) 0.0895(11)
O25 O 1.0602(12) 0.7647(11) 0.1302(11)
O26 O 0.807(2) 1.542(2) 0.9265(19)
O27 O 0.4163(15) 0.7966(14) 0.6909(13)
O28 O 0.5386(18) 0.9435(19) 0.0476(15)
O30 O 0.723(3) 1.230(3) 0.784(2)
O29? O 0.6547(19) 1.134(2) 0.7911(16)
O31? O 0.724(4) 1.111(4) 0.238(3)
O32? O 1.310(4) 0.999(3) 0.104(2)
O33? O 1.115(3) 0.751(4) 0.179(3)
O34? O 0.787(4) 1.329(5) 0.824(3)
P6? P 0.6467(7) 0.5268(9) 0.6231(8)
loop_
_geom_bond_atom_site_label_1
_geom_bond_atom_site_label_2
_geom_bond_site_symmetry_1
_geom_bond_site_symmetry_2
La1 O1 1_555 1_555
La2 O3 1_555 1_555
P1 C9 1_555 1_555
P2 C12 1_555 1_555
P3 C15 1_555 1_555
P4 C18 1_555 1_555
P5 C23 1_555 1_555
N1 H1 1_555 1_555
N2 H2 1_555 1_555
N3 H3 1_555 1_555
N4 H4 1_555 1_555
N5 H5 1_555 1_555
C1 C3 1_555 1_555
C2 C4 1_555 1_555
C3 C4 1_555 1_555
C4 C5 1_555 1_555
C5 H6 1_555 1_555
C6 C5 1_555 1_555
H7 C6 1_555 1_555
C7 C6 1_555 1_555
H8 C7 1_555 1_555
C8 C3 1_555 1_555
H9 C8 1_555 1_555
C9 N1 1_555 1_555
H10 C9 1_555 1_555
H11 C9 1_555 1_555
C10 N1 1_555 1_555
H12 C10 1_555 1_555
H13 C10 1_555 1_555
C11 N1 1_555 1_555
H14 C11 1_555 1_555
H15 C11 1_555 1_555
C12 N2 1_555 1_555
H16 C12 1_555 1_555
H17 C12 1_555 1_555
C13 N2 1_555 1_555
H18 C13 1_555 1_555
H19 C13 1_555 1_555
C14 N2 1_555 1_555
H20 C14 1_555 1_555
H21 C14 1_555 1_555
C15 N3 1_555 1_555
H22 C15 1_555 1_555
H23 C15 1_555 1_555
C16 N3 1_555 1_555
H24 C16 1_555 1_555
H25 C16 1_555 1_555
C17 N3 1_555 1_555
H26 C17 1_555 1_555
H27 C17 1_555 1_555
C18 N4 1_555 1_555
H28 C18 1_555 1_555
H29 C18 1_555 1_555
C19 N4 1_555 1_555
H30 C19 1_555 1_555
H31 C19 1_555 1_555
C20 N4 1_555 1_555
H32 C20 1_555 1_555
H33 C20 1_555 1_555
C21 N5 1_555 1_555
H34 C21 1_555 1_555
H35 C21 1_555 1_555
C22 N5 1_555 1_555
H36 C22 1_555 1_555
H37 C22 1_555 1_555
C23 N5 1_555 1_555
H38 C23 1_555 1_555
H39 C23 1_555 1_555
O1 C1 1_555 1_555
O2 La1 1_555 1_555
O3 La1 1_555 1_555
O4 La2 1_555 1_555
O5 La2 1_555 1_555
O6 La1 1_555 1_555
O7 P1 1_555 1_555
O8 La1 1_555 1_555
O9 P2 1_555 1_555
O10 La2 1_555 1_555
O11 La1 1_555 1_555
O12 La1 1_555 1_555
O13 P3 1_555 1_555
O14 La1 1_555 1_555
O15 P4 1_555 1_555
H40 O15 1_555 1_555
O16 P4 1_555 1_555
O17 P5 1_555 1_555
O18 P5 1_555 1_555
O19 P5 1_555 1_555
La1A O1A 1_555 1_555
La1A_2 O16 1_555 1_555
La1A_3 O8A 1_555 1_555
La1A_4 O11A 1_555 1_555
La2A O3A 1_555 1_555
La2A_2 O5 1_555 1_555
La2_2 O5A 1_555 1_555
La2A_3 O10A 1_555 1_555
La2_3 O13A 1_555 1_555
La2A_4 O11A 1_555 1_555
La2_4 O19A 1_555 1_555
P1A C9A 1_555 1_555
P2A C12A 1_555 1_555
P3A C15A 1_555 1_555
P4A C18A 1_555 1_555
P5A C23A 1_555 1_555
N1A H1A 1_555 1_555
N2A H2A 1_555 1_555
N3A H3A 1_555 1_555
N4A H4A 1_555 1_555
N5A H5A 1_555 1_555
C1A C3A 1_555 1_555
C2A C4A 1_555 1_555
C3A C4A 1_555 1_555
C4A C5A 1_555 1_555
C5A H6A 1_555 1_555
C6A C5A 1_555 1_555
H7A C6A 1_555 1_555
C7A C6A 1_555 1_555
H8A C7A 1_555 1_555
C8A C3A 1_555 1_555
H9A C8A 1_555 1_555
C9A N1A 1_555 1_555
H10A C9A 1_555 1_555
H11A C9A 1_555 1_555
C10A C11 1_555 1_555
H12A C10A 1_555 1_555
H13A C10A 1_555 1_555
C11A C10 1_555 1_555
H14A C11A 1_555 1_555
H15A C11A 1_555 1_555
C12A N2A 1_555 1_555
H16A C12A 1_555 1_555
H17A C12A 1_555 1_555
C13A C14 1_555 1_555
H18A C13A 1_555 1_555
H19A C13A 1_555 1_555
C14A C13 1_555 1_555
H20A C14A 1_555 1_555
H21A C14A 1_555 1_555
C15A N3A 1_555 1_555
H22A C15A 1_555 1_555
H23A C15A 1_555 1_555
C16A C17 1_555 1_555
H24A C16A 1_555 1_555
H25A C16A 1_555 1_555
C17A C16 1_555 1_555
H26A C17A 1_555 1_555
H27A C17A 1_555 1_555
C18A N4A 1_555 1_555
H28A C18A 1_555 1_555
H29A C18A 1_555 1_555
C19A N4A 1_555 1_555
H30A C19A 1_555 1_555
H31A C19A 1_555 1_555
C20A N4A 1_555 1_555
H32A C20A 1_555 1_555
H33A C20A 1_555 1_555
C21A N5A 1_555 1_555
H34A C21A 1_555 1_555
H35A C21A 1_555 1_555
C22A N5A 1_555 1_555
H36A C22A 1_555 1_555
H37A C22A 1_555 1_555
C23A N5A 1_555 1_555
H38A C23A 1_555 1_555
H39A C23A 1_555 1_555
O1A C1A 1_555 1_555
O2A La1A 1_555 1_555
O3A La1A 1_555 1_555
O4A La2A 1_555 1_555
O5A La2A 1_555 1_555
O5A_2 La2 1_555 1_555
O5_2 La2A 1_555 1_555
O6A La1A 1_555 1_555
O7A La2_2 1_555 1_555
O7A_2 La2 1_555 1_555
O7_2 La2A 1_555 1_555
O8A P2A 1_555 1_555
O8A_2 La1A 1_555 1_555
O9A P2A 1_555 1_555
O10A P2A 1_555 1_555
O10A_2 La2A 1_555 1_555
O11A P3A 1_555 1_555
O11A_2 La1A 1_555 1_555
O12A La1A_4 1_555 1_555
O12A_2 La1A 1_555 1_555
O13A P3A 1_555 1_555
O13A_2 La2 1_555 1_555
O13_2 La2A 1_555 1_555
O14A La1A_2 1_555 1_555
O14A_2 La1A 1_555 1_555
O15A P4A 1_555 1_555
H40A O15A 1_555 1_555
O16A La1 1_555 1_555
O16_2 La1A 1_555 1_555
O17A P5A 1_555 1_555
O18A P5A 1_555 1_555
O19A P5A 1_555 1_555
O19A_2 La2 1_555 1_555
O19_2 La2A 1_555 1_555
La2 O11 1_555 1_555
P1 O5 1_555 1_555
P1 O6 1_555 1_555
P2 O8 1_555 1_555
P2 O10 1_555 1_555
P3 O11 1_555 1_555
P3 O12 1_555 1_555
P4 O14 1_555 1_555
C1 O2 1_555 1_555
C2 O3 1_555 1_555
C2 O4 1_555 1_555
C7 C8 1_555 1_555
C19 C22 1_555 1_555
C20 C21 1_555 1_555
O7 La2A_2 1_555 1_555
O13 La2A_2 1_555 1_555
O19 La2A_2 1_555 1_555
La2A O11A_2 1_555 1_555
La2A_2 O5A_2 1_555 1_555
La2_2 O5_2 1_555 1_555
P1A O5A 1_555 1_555
P1A O6A 1_555 1_555
P1A O7A 1_555 1_555
P3A O12A 1_555 1_555
P4A O14A 1_555 1_555
P4A O16A 1_555 1_555
N1A C10A 1_555 1_555
N1A C11A 1_555 1_555
N2A C13A 1_555 1_555
N2A C14A 1_555 1_555
N3A C16A 1_555 1_555
N3A C17A 1_555 1_555
C1A O2A 1_555 1_555
C2A O3A 1_555 1_555
C2A O4A 1_555 1_555
C7A C8A 1_555 1_555
C19A C22A 1_555 1_555
C20A C21A 1_555 1_555

#END
