
#######################################################################
#
#                 Cambridge Crystallographic Data Centre
#                                CCDC 
#
#######################################################################
#
# If this CIF has been generated from an entry in the Cambridge 
# Structural Database, then it will include bibliographic, chemical, 
# crystal, experimental, refinement or atomic coordinate data resulting 
# from the CCDC's data processing and validation procedures.
#
#######################################################################

data_GUJTOV
_symmetry_cell_setting           monoclinic
_symmetry_space_group_name_H-M   'P 2/c'
_symmetry_Int_Tables_number      13
_space_group_name_Hall           '-P 2yc'
loop_
_symmetry_equiv_pos_site_id
_symmetry_equiv_pos_as_xyz
1 x,y,z
2 -x,y,1/2-z
3 -x,-y,-z
4 x,-y,1/2+z
_cell_length_a                   10.7367(16)
_cell_length_b                   5.8821(9)
_cell_length_c                   27.792(4)
_cell_angle_alpha                90
_cell_angle_beta                 97.811(2)
_cell_angle_gamma                90
_cell_volume                     1738.9
loop_
_atom_site_label
_atom_site_type_symbol
_atom_site_fract_x
_atom_site_fract_y
_atom_site_fract_z
Mo1 Mo 1.420867(16) 0.13683(3) 0.802872(7)
Mo2 Mo 0.923650(16) 0.84527(3) 0.816310(7)
Cu1 Cu 1.29184(2) 0.37581(4) 0.706089(9)
Cu2 Cu 1.19704(2) 0.60499(4) 0.789796(9)
O1 O 1.29846(14) 0.3407(3) 0.77597(5)
O2 O 1.0000 0.3767(4) 0.7500
H1 H 0.962(3) 0.296(5) 0.7614(11)
O3 O 1.36283(14) -0.1401(3) 0.79975(6)
O4 O 1.5000 0.5878(5) 0.7500
H2 H 1.444(3) 0.717(5) 0.7653(12)
O5 O 1.58240(14) 0.1333(3) 0.78938(6)
O7 O 1.43773(16) 0.2042(3) 0.86296(6)
O8 O 1.07489(14) 0.8428(2) 0.79726(6)
O9 O 1.13190(14) 0.1250(2) 0.68879(6)
O10 O 0.93923(16) 0.7709(3) 0.87672(6)
O11 O 1.18760(14) 0.6479(2) 0.71785(5)
O12 O 1.3255(3) 0.9767(3) 0.49948(7)
N1 N 1.21189(17) 0.4806(3) 0.35942(6)
N2 N 1.30520(16) 0.4689(3) 0.63894(6)
C1 C 1.1603(2) 0.6779(4) 0.37080(9)
H5 H 1.1062 0.7560 0.3464
C2 C 1.1831(2) 0.7713(4) 0.41667(8)
H6 H 1.1453 0.9112 0.4238
C3 C 1.2626(2) 0.6562(4) 0.45243(8)
C4 C 1.3116(2) 0.4476(4) 0.44120(8)
H7 H 1.3626 0.3622 0.4654
C5 C 1.2850(2) 0.3658(4) 0.39417(8)
H8 H 1.3196 0.2241 0.3863
C6 C 1.2517(2) 0.3576(4) 0.59951(8)
H9 H 1.2118 0.2159 0.6034
C7 C 1.2528(2) 0.4430(4) 0.55297(8)
H10 H 1.2149 0.3606 0.5254
C8 C 1.3103(2) 0.6513(4) 0.54750(8)
C9 C 1.3694(2) 0.7626(4) 0.58850(8)
H11 H 1.4125 0.9019 0.5856
C10 C 1.3643(2) 0.6669(4) 0.63342(8)
H12 H 1.4039 0.7435 0.6615
C11 C 1.3018(3) 0.7753(4) 0.49988(8)
Mo1A Mo 1.579133(16) 0.13683(3) 0.697128(7)
Mo1_2 Mo 1.420867(16) 1.13683(3) 0.802872(7)
Mo2_2 Mo 0.923650(16) -0.15473(3) 0.816310(7)
Mo2A Mo 1.076350(16) -0.15473(3) 0.683690(7)
Mo2A_2 Mo 1.076350(16) 0.84527(3) 0.683690(7)
Mo2_3 Mo 1.923650(16) -0.15473(3) 0.816310(7)
Mo2_4 Mo 1.923650(16) 0.84527(3) 0.816310(7)
Cu1A Cu 1.70816(2) 0.37581(4) 0.793911(9)
Cu1_2 Cu 1.29184(2) -0.62419(4) 0.706089(9)
Cu1C Cu 1.29184(2) 0.62419(4) 1.206089(9)
Cu2_2 Cu 1.19704(2) -0.39501(4) 0.789796(9)
Cu2A Cu 0.80296(2) 0.60499(4) 0.710204(9)
Cu2C Cu 1.19704(2) 0.39501(4) 0.289796(9)
Cu2A_2 Cu 1.80296(2) 0.60499(4) 0.710204(9)
O1A O 1.70154(14) 0.3407(3) 0.72403(5)
O1_2 O 1.29846(14) -0.6593(3) 0.77597(5)
O2_2 O 1.0000 -0.6233(4) 0.7500
H1A H 1.038(3) 0.296(5) 0.7386(11)
H1_2 H 0.962(3) -0.704(5) 0.7614(11)
H1A_2 H 1.038(3) -0.704(5) 0.7386(11)
O3_2 O 1.36283(14) 0.8599(3) 0.79975(6)
O3A O 1.63717(14) -0.1401(3) 0.70025(6)
H2A H 1.556(3) 0.717(5) 0.7347(12)
O5A O 1.41760(14) 0.1333(3) 0.71062(6)
O7A O 1.56227(16) 0.2042(3) 0.63704(6)
O8_2 O 1.07489(14) -0.1572(2) 0.79726(6)
O9A O 1.86810(14) 0.1250(2) 0.81121(6)
O9A_2 O 0.86810(14) 1.1250(2) 0.81121(6)
O9A_3 O 0.86810(14) 0.1250(2) 0.81121(6)
O10_2 O 0.93923(16) -0.2291(3) 0.87672(6)
O11A O 1.81240(14) 0.6479(2) 0.78215(5)
O11A_2 O 0.81240(14) 0.6479(2) 0.78215(5)
O11_2 O 1.18760(14) -0.3521(2) 0.71785(5)
O11A_3 O 0.81240(14) -0.3521(2) 0.78215(5)
O12C O 1.3255(3) 0.0233(3) 0.99948(7)
N1C N 1.21189(17) 0.5194(3) 0.85942(6)
N1C_2 N 1.21189(17) -0.4806(3) 0.85942(6)
N2C N 1.30520(16) 0.5311(3) 1.13894(6)
N2A N 1.69480(16) 0.4689(3) 0.86106(6)
C1C C 1.1603(2) 0.3221(4) 0.87080(9)
H5C H 1.1062 0.2440 0.8464
C2C C 1.1831(2) 0.2287(4) 0.91667(8)
H6C H 1.1453 0.0888 0.9238
C3C C 1.2626(2) 0.3438(4) 0.95243(8)
C4C C 1.3116(2) 0.5524(4) 0.94120(8)
H7C H 1.3626 0.6378 0.9654
C5C C 1.2850(2) 0.6342(4) 0.89417(8)
H8C H 1.3196 0.7759 0.8863
C6C C 1.2517(2) 0.6424(4) 1.09951(8)
H9C H 1.2118 0.7841 1.1034
C7C C 1.2528(2) 0.5570(4) 1.05297(8)
H10C H 1.2149 0.6394 1.0254
C8C C 1.3103(2) 0.3487(4) 1.04750(8)
C9C C 1.3694(2) 0.2374(4) 1.08850(8)
H11C H 1.4125 0.0981 1.0856
C10C C 1.3643(2) 0.3331(4) 1.13342(8)
H12C H 1.4039 0.2565 1.1615
C11C C 1.3018(3) 0.2247(4) 0.99988(8)
O6 O 0.9966(3) 0.7566(5) 0.98108(9)
H3 H 0.985(4) 0.734(7) 0.9503(12)
H4 H 0.984(4) 0.896(6) 0.9845(15)
loop_
_geom_bond_atom_site_label_1
_geom_bond_atom_site_label_2
_geom_bond_site_symmetry_1
_geom_bond_site_symmetry_2
Mo1 O1 1_555 1_555
Mo2 O8 1_555 1_555
Cu1 O1 1_555 1_555
Cu2 O1 1_555 1_555
O2 Cu2 1_555 1_555
H1 O2 1_555 1_555
O3 Mo1 1_555 1_555
O4 Cu1 1_555 1_555
H2 O4 1_555 1_555
O5 Mo1 1_555 1_555
O6 H3 1_555 1_555
H4 O6 1_555 1_555
O7 Mo1 1_555 1_555
O8 Cu2 1_555 1_555
O9 Cu1 1_555 1_555
O10 Mo2 1_555 1_555
O11 Cu1 1_555 1_555
O12 C11 1_555 1_555
N1 C1 1_555 1_555
N2 Cu1 1_555 1_555
C1 H5 1_555 1_555
C2 C1 1_555 1_555
H6 C2 1_555 1_555
C3 C2 1_555 1_555
C4 C3 1_555 1_555
H7 C4 1_555 1_555
C5 N1 1_555 1_555
H8 C5 1_555 1_555
C6 N2 1_555 1_555
H9 C6 1_555 1_555
C7 C6 1_555 1_555
H10 C7 1_555 1_555
C8 C7 1_555 1_555
C9 C8 1_555 1_555
H11 C9 1_555 1_555
C10 N2 1_555 1_555
H12 C10 1_555 1_555
C11 C3 1_555 1_555
Mo1A O1A 1_555 1_555
Mo1_2 O3_2 1_555 1_555
Mo2_2 O8_2 1_555 1_555
Mo2A O9 1_555 1_555
Mo2A_2 O11 1_555 1_555
Mo2_3 O9A 1_555 1_555
Mo2_4 O11A 1_555 1_555
Cu1A O4 1_555 1_555
Cu1_2 O1_2 1_555 1_555
Cu1C N2C 1_555 1_555
Cu2_2 O3 1_555 1_555
Cu2A O2 1_555 1_555
Cu2C N1 1_555 1_555
Cu2A_2 O1A 1_555 1_555
O1A Cu1A 1_555 1_555
O1_2 Cu2_2 1_555 1_555
O2_2 Cu2_2 1_555 1_555
H1A O2 1_555 1_555
H1_2 O2_2 1_555 1_555
H1A_2 O2_2 1_555 1_555
O3_2 Cu2 1_555 1_555
O3A Mo1A 1_555 1_555
H2A O4 1_555 1_555
O5A Cu1 1_555 1_555
O7A Mo1A 1_555 1_555
O8_2 Cu2_2 1_555 1_555
O9A Cu1A 1_555 1_555
O9A_2 Mo2 1_555 1_555
O9A_3 Mo2_2 1_555 1_555
O10_2 Mo2_2 1_555 1_555
O11A Cu1A 1_555 1_555
O11A_2 Mo2 1_555 1_555
O11_2 Mo2A 1_555 1_555
O11A_3 Mo2_2 1_555 1_555
O12C C11C 1_555 1_555
N1C Cu2 1_555 1_555
N1C_2 Cu2_2 1_555 1_555
N2C C6C 1_555 1_555
N2A Cu1A 1_555 1_555
C1C N1C 1_555 1_555
H5C C1C 1_555 1_555
C2C C1C 1_555 1_555
H6C C2C 1_555 1_555
C3C C2C 1_555 1_555
C4C C3C 1_555 1_555
H7C C4C 1_555 1_555
C5C N1C 1_555 1_555
H8C C5C 1_555 1_555
C6C H9C 1_555 1_555
C7C C6C 1_555 1_555
H10C C7C 1_555 1_555
C8C C7C 1_555 1_555
C9C C8C 1_555 1_555
H11C C9C 1_555 1_555
C10C N2C 1_555 1_555
H12C C10C 1_555 1_555
C11C C3C 1_555 1_555
Cu2 O11 1_555 1_555
O5 Cu1A 1_555 1_555
C4 C5 1_555 1_555
C8 C11 1_555 1_555
C9 C10 1_555 1_555
Mo1A O5A 1_555 1_555
Cu1_2 O11_2 1_555 1_555
Cu2_2 O11_2 1_555 1_555
Cu2A O11A_2 1_555 1_555
Cu2A_2 O11A 1_555 1_555
C4C C5C 1_555 1_555
C8C C11C 1_555 1_555
C9C C10C 1_555 1_555

#END
