
#######################################################################
#
#                 Cambridge Crystallographic Data Centre
#                                CCDC 
#
#######################################################################
#
# If this CIF has been generated from an entry in the Cambridge 
# Structural Database, then it will include bibliographic, chemical, 
# crystal, experimental, refinement or atomic coordinate data resulting 
# from the CCDC's data processing and validation procedures.
#
#######################################################################

data_GUJTIP01
_symmetry_cell_setting           triclinic
_symmetry_space_group_name_H-M   'P -1'
_symmetry_Int_Tables_number      2
_space_group_name_Hall           '-P 1'
loop_
_symmetry_equiv_pos_site_id
_symmetry_equiv_pos_as_xyz
1 x,y,z
2 -x,-y,-z
_cell_length_a                   8.0783(9)
_cell_length_b                   9.9033(11)
_cell_length_c                   10.4877(12)
_cell_angle_alpha                64.472(3)
_cell_angle_beta                 84.049(2)
_cell_angle_gamma                82.561(2)
_cell_volume                     749.676
loop_
_atom_site_label
_atom_site_type_symbol
_atom_site_fract_x
_atom_site_fract_y
_atom_site_fract_z
Ni1 Ni 0.64264(4) 0.76266(3) 0.63355(3)
C1 C 0.5312(4) 0.5140(3) 0.7307(3)
C2 C 0.4738(3) 0.3628(3) 0.7711(3)
C3 C 0.3759(3) 0.2917(3) 0.8941(3)
H1 H 0.3402 0.3399 0.9524
C4 C 0.3316(3) 0.1482(3) 0.9294(3)
C5 C 0.3899(3) 0.0741(3) 0.8448(3)
H2 H 0.3662 -0.0242 0.8714
C6 C 0.4837(3) 0.1477(3) 0.7206(3)
C7 C 0.5238(3) 0.2918(3) 0.6817(3)
H3 H 0.5837 0.3414 0.5967
C8 C 0.5495(3) 0.0679(3) 0.6295(3)
C9 C 0.1608(3) -0.0489(3) 1.1028(3)
C10 C 0.0513(3) -0.0879(3) 1.2365(3)
C11 C -0.0305(4) 0.0166(3) 1.2806(3)
H4 H -0.0114 0.1173 1.2320
C12 C -0.1405(4) -0.0290(3) 1.3970(3)
H5 H -0.1933 0.0430 1.4262
C13 C -0.0945(4) -0.2728(3) 1.4277(3)
H6 H -0.1151 -0.3730 1.4786
C14 C 0.0170(4) -0.2366(3) 1.3129(3)
H7 H 0.0693 -0.3107 1.2864
N1 N -0.1755(3) -0.1715(3) 1.4705(2)
N2 N 0.2305(3) 0.0824(3) 1.0551(2)
H8 H 0.2114 0.1312 1.1068
O1 O 0.4682(3) 0.5982(2) 0.7892(2)
O2 O 0.6436(3) 0.5570(2) 0.6337(2)
O3 O 0.5570(2) 0.1421(2) 0.4979(2)
O4 O 0.5988(3) -0.0693(2) 0.6939(2)
O5 O 0.1777(3) -0.1319(2) 1.0436(2)
O6 O 0.8209(3) 0.6721(2) 0.7880(2)
H9 H 0.8068 0.6549 0.8749
H10 H 0.9103 0.6917 0.7357
Ni1_2 Ni -0.35736(4) -0.23734(3) 1.63355(3)
Ni1_3 Ni 0.64264(4) -0.23734(3) 0.63355(3)
Ni1A Ni 0.35736(4) 0.23734(3) 0.36645(3)
N1_2 N 0.8245(3) 0.8285(3) 0.4705(2)
O3A O 0.4430(2) 0.8579(2) 0.5021(2)
O4_2 O 0.5988(3) 0.9307(2) 0.6939(2)
O7 O 0.2219(4) 0.6027(3) -0.0006(3)
H11 H 0.2996 0.6157 -0.0648
H12 H 0.2054 0.6755 0.0231
O8 O 0.1410(4) 0.6518(4) 0.6740(4)
H13 H 0.1999 0.7253 0.6304
H14 H 0.1903 0.5844 0.7450
loop_
_geom_bond_atom_site_label_1
_geom_bond_atom_site_label_2
_geom_bond_site_symmetry_1
_geom_bond_site_symmetry_2
Ni1 O1 1_555 1_555
C1 C2 1_555 1_555
C2 C3 1_555 1_555
C3 H1 1_555 1_555
C4 C3 1_555 1_555
C5 C4 1_555 1_555
H2 C5 1_555 1_555
C6 C5 1_555 1_555
C7 C2 1_555 1_555
H3 C7 1_555 1_555
C8 C6 1_555 1_555
C9 C10 1_555 1_555
C10 C11 1_555 1_555
C11 H4 1_555 1_555
C12 C11 1_555 1_555
H5 C12 1_555 1_555
C13 H6 1_555 1_555
C14 C10 1_555 1_555
H7 C14 1_555 1_555
N1 C12 1_555 1_555
N2 C4 1_555 1_555
H8 N2 1_555 1_555
O1 C1 1_555 1_555
O2 Ni1 1_555 1_555
O3 C8 1_555 1_555
O4 C8 1_555 1_555
O5 C9 1_555 1_555
O6 Ni1 1_555 1_555
H9 O6 1_555 1_555
H10 O6 1_555 1_555
O7 H11 1_555 1_555
H12 O7 1_555 1_555
O8 H13 1_555 1_555
H14 O8 1_555 1_555
Ni1_2 N1 1_555 1_555
Ni1_3 O4 1_555 1_555
Ni1A O3 1_555 1_555
N1_2 Ni1 1_555 1_555
O3A Ni1 1_555 1_555
O4_2 Ni1 1_555 1_555
C1 O2 1_555 1_555
C6 C7 1_555 1_555
C9 N2 1_555 1_555
C13 C14 1_555 1_555
C13 N1 1_555 1_555

#END
