
#######################################################################
#
#                 Cambridge Crystallographic Data Centre
#                                CCDC 
#
#######################################################################
#
# If this CIF has been generated from an entry in the Cambridge 
# Structural Database, then it will include bibliographic, chemical, 
# crystal, experimental, refinement or atomic coordinate data resulting 
# from the CCDC's data processing and validation procedures.
#
#######################################################################

data_GUKBUL
_symmetry_cell_setting           monoclinic
_symmetry_space_group_name_H-M   'C 2/c'
_symmetry_Int_Tables_number      15
_space_group_name_Hall           '-C 2yn'
loop_
_symmetry_equiv_pos_site_id
_symmetry_equiv_pos_as_xyz
1 x,y,z
2 -x,y,1/2-z
3 1/2+x,1/2+y,z
4 1/2-x,1/2+y,1/2-z
5 -x,-y,-z
6 x,-y,1/2+z
7 1/2-x,1/2-y,-z
8 1/2+x,1/2-y,1/2+z
_cell_length_a                   46.216(4)
_cell_length_b                   12.3840(11)
_cell_length_c                   31.040(3)
_cell_angle_alpha                90
_cell_angle_beta                 131.459(2)
_cell_angle_gamma                90
_cell_volume                     13313.9
loop_
_atom_site_label
_atom_site_type_symbol
_atom_site_fract_x
_atom_site_fract_y
_atom_site_fract_z
C47 C 0.2365(4) -0.5223(12) 0.0999(6)
H43 H 0.2376 -0.5045 0.1301
C48 C 0.2397(4) -0.4424(10) 0.0741(6)
H44 H 0.2434 -0.3718 0.0870
C49 C 0.2377(3) -0.4644(11) 0.0283(5)
C50 C 0.2323(4) -0.5717(11) 0.0107(6)
H45 H 0.2303 -0.5898 -0.0202
C51 C 0.2300(4) -0.6520(12) 0.0402(6)
H46 H 0.2272 -0.7238 0.0291
C52 C 0.2406(4) -0.3819(10) -0.0020(5)
H47 H 0.2361 -0.3993 -0.0351
N13 N 0.2317(3) -0.6274(9) 0.0844(5)
N14 N 0.2493(3) -0.2850(9) 0.0173(5)
C47F C 0.2635(4) 0.0223(12) -0.0999(6)
H43F H 0.2624 0.0045 -0.1301
C48F C 0.2603(4) -0.0576(10) -0.0741(6)
H44F H 0.2566 -0.1282 -0.0870
C49F C 0.2623(3) -0.0356(11) -0.0283(5)
C50F C 0.2677(4) 0.0717(11) -0.0107(6)
H45F H 0.2697 0.0898 0.0202
C51F C 0.2700(4) 0.1520(12) -0.0402(6)
H46F H 0.2728 0.2238 -0.0291
C52F C 0.2594(4) -0.1181(10) 0.0020(5)
H47F H 0.2639 -0.1007 0.0351
N13F N 0.2683(3) 0.1274(9) -0.0844(5)
N14F N 0.2507(3) -0.2150(9) -0.0173(5)
N15 N 0.4832(4) -0.707(2) 0.3651(9)
O11 O 0.4862(5) -0.7948(17) 0.3863(12)
O12 O 0.4761(5) -0.6272(14) 0.3801(7)
O13 O 0.4842(6) -0.706(3) 0.3277(10)
N16 N 0.2565(3) -0.9949(9) 0.1169(4)
O14 O 0.2446(3) -0.9856(8) 0.1428(5)
O15 O 0.2550(4) -0.9175(9) 0.0894(5)
O16 O 0.2697(4) -1.0867(9) 0.1185(5)
Cd1 Cd 0.377555(19) -0.37395(5) 0.39573(3)
Cd2 Cd 0.08697(2) -0.53153(5) 0.07048(3)
Cd3 Cd 0.139432(19) -0.19520(5) 0.12060(3)
C1 C 0.0594(4) -0.5506(14) -0.0551(6)
H1 H 0.0365 -0.5329 -0.0637
C2 C 0.1255(3) -0.5666(10) 0.2036(4)
H2 H 0.1479 -0.5717 0.2095
C3 C 0.3462(3) -0.3504(10) 0.2704(5)
H3 H 0.3284 -0.3087 0.2681
C4 C 0.1621(3) -0.4512(7) 0.1442(4)
C5 C 0.4385(3) -0.5962(8) 0.4715(4)
C6 C 0.0586(4) -0.5653(15) -0.1000(5)
H4 H 0.0357 -0.5570 -0.1379
C7 C 0.1279(4) -0.5903(11) 0.2497(5)
H5 H 0.1506 -0.6154 0.2845
C8 C 0.3390(4) -0.3679(12) 0.2206(5)
H6 H 0.3182 -0.3346 0.1866
C9 C 0.2037(3) -0.4179(8) 0.1874(4)
H7 H 0.2064 -0.3604 0.2110
H8 H 0.2114 -0.3893 0.1672
C10 C 0.4758(3) -0.5877(9) 0.5359(5)
H9 H 0.4885 -0.5198 0.5420
H10 H 0.4687 -0.5870 0.5591
C11 C 0.0926(3) -0.5927(11) -0.0875(5)
C12 C 0.0945(4) -0.5744(11) 0.2413(5)
C13 C 0.3636(4) -0.4373(11) 0.2219(5)
C14 C 0.2311(3) -0.5102(8) 0.2267(4)
H11 H 0.2229 -0.5418 0.2457
H12 H 0.2301 -0.5660 0.2038
C15 C 0.5042(3) -0.6805(8) 0.5559(5)
H13 H 0.5263 -0.6719 0.5965
H14 H 0.4918 -0.7484 0.5509
C16 C 0.1257(3) -0.5982(10) -0.0306(5)
H15 H 0.1493 -0.6146 -0.0199
C17 C 0.0610(4) -0.5402(13) 0.1889(6)
H16 H 0.0385 -0.5301 0.1827
C18 C 0.3947(4) -0.4831(10) 0.2751(5)
H17 H 0.4120 -0.5283 0.2782
C19 C 0.2717(3) -0.4695(8) 0.2709(4)
H18 H 0.2799 -0.4411 0.2513
H19 H 0.2718 -0.4102 0.2915
C20 C 0.5180(3) -0.6853(8) 0.5230(5)
H20 H 0.4957 -0.6878 0.4822
H21 H 0.5320 -0.6194 0.5303
C21 C 0.1229(3) -0.5788(10) 0.0105(5)
H22 H 0.1457 -0.5788 0.0489
C22 C 0.0617(4) -0.5209(12) 0.1453(5)
H23 H 0.0389 -0.4952 0.1107
C23 C 0.3992(3) -0.4608(10) 0.3220(5)
H24 H 0.4186 -0.4961 0.3563
C24 C 0.3005(3) -0.5520(7) 0.3138(4)
C25 C 0.5436(3) -0.7800(8) 0.5380(4)
C26 C 0.0921(4) -0.6174(14) -0.1344(5)
H25 H 0.0690 -0.6131 -0.1723
C27 C 0.0942(4) -0.5986(13) 0.2881(6)
H26 H 0.0736 -0.5766 0.2849
C28 C 0.3570(4) -0.4583(11) 0.1691(5)
H27 H 0.3362 -0.4263 0.1346
C29 C 0.1446(4) -0.6994(11) -0.1664(5)
H28 H 0.1676 -0.7096 -0.1288
C30 C 0.1436(4) -0.7163(11) 0.4154(5)
H29 H 0.1639 -0.7419 0.4186
C31 C 0.3946(5) -0.5803(12) 0.1216(6)
H30 H 0.4164 -0.6066 0.1572
C32 C 0.1738(3) -0.7863(11) -0.2484(4)
H31 H 0.1962 -0.8087 -0.2400
C33 C 0.1134(4) -0.7302(10) 0.5016(5)
H32 H 0.0923 -0.7117 0.4976
C34 C 0.4163(3) -0.6422(10) 0.0279(5)
H33 H 0.4376 -0.6634 0.0327
C35 C 0.1760(3) -0.7534(11) -0.2032(5)
H34 H 0.1997 -0.7513 -0.1658
C36 C 0.1127(4) -0.7041(13) 0.4567(6)
H35 H 0.0926 -0.6640 0.4251
C37 C 0.4209(4) -0.6301(11) 0.0765(5)
H36 H 0.4447 -0.6432 0.1129
C38 C 0.1435(3) -0.7248(10) -0.2140(4)
C39 C 0.1431(4) -0.7405(10) 0.4615(5)
C40 C 0.3903(4) -0.5986(10) 0.0703(5)
C41 C 0.1089(3) -0.7199(10) -0.2709(5)
H37 H 0.0863 -0.6977 -0.2796
C42 C 0.1732(3) -0.7983(10) 0.5105(5)
H38 H 0.1941 -0.8223 0.5151
C43 C 0.3544(4) -0.5846(11) 0.0154(6)
H39 H 0.3329 -0.5647 0.0101
C44 C 0.1087(3) -0.7483(10) -0.3139(5)
H40 H 0.0857 -0.7409 -0.3518
C45 C 0.1708(3) -0.8189(10) 0.5520(5)
H41 H 0.1896 -0.8617 0.5835
C46 C 0.3519(4) -0.6015(11) -0.0317(5)
H42 H 0.3280 -0.5961 -0.0688
N1 N 0.0913(3) -0.5607(8) -0.0002(4)
N2 N 0.0910(2) -0.5351(6) 0.1479(3)
N3 N 0.37595(19) -0.3874(5) 0.3212(3)
N4 N 0.1227(3) -0.6444(9) -0.1236(4)
N5 N 0.1227(3) -0.6503(10) 0.3329(5)
N6 N 0.3794(4) -0.5189(12) 0.1706(5)
N7 N 0.1153(3) -0.6640(11) -0.1750(5)
N8 N 0.1175(3) -0.6622(11) 0.3723(5)
N9 N 0.3694(4) -0.5299(12) 0.1177(5)
N10 N 0.14017(19) -0.7867(5) -0.3040(3)
N11 N 0.1420(3) -0.7786(8) 0.5479(5)
N12 N 0.3838(3) -0.6258(11) -0.0242(5)
O1 O 0.13614(19) -0.3812(5) 0.1157(3)
O2 O 0.4216(2) -0.5137(6) 0.4434(3)
O3 O 0.32624(19) -0.2583(5) 0.3462(3)
O4 O 0.1537(2) -0.5506(6) 0.1360(3)
O5 O 0.42556(19) -0.6908(6) 0.4502(3)
O6 O 0.0461(2) -0.3904(6) 0.0284(4)
O7 O 0.3359(2) -0.5200(6) 0.3566(3)
O8 O 0.5803(2) -0.7678(6) 0.5669(3)
O9 O 0.29265(19) -0.6503(6) 0.3085(3)
O10 O 0.5296(2) -0.8734(6) 0.5258(4)
Cd1D Cd 0.622445(19) -0.62605(5) 0.60427(3)
Cd1E Cd 0.377555(19) -0.62605(5) -0.10427(3)
Cd2G Cd 0.58697(2) -0.96847(5) 0.57048(3)
Cd3C Cd 0.360568(19) -0.69520(5) 0.37940(3)
Cd3E Cd 0.139432(19) -0.80480(5) -0.37940(3)
Cd3E_2 Cd 0.139432(19) -0.80480(5) 0.62060(3)
N10E N 0.14017(19) -0.2133(5) 0.1960(3)
N11E N 0.1420(3) -0.2214(8) 0.0479(5)
N12E N 0.3838(3) -0.3742(11) 0.4758(5)
O5C O 0.07444(19) -0.1908(6) 0.0498(3)
O7C O 0.1641(2) -0.0200(6) 0.1434(3)
O8D O 0.4197(2) -0.2322(6) 0.4331(3)
O8G O 0.0803(2) -0.7322(6) 0.0669(3)
O9C O 0.20735(19) -0.1503(6) 0.1915(3)
O10G O 0.0296(2) -0.6266(6) 0.0258(4)
loop_
_geom_bond_atom_site_label_1
_geom_bond_atom_site_label_2
_geom_bond_site_symmetry_1
_geom_bond_site_symmetry_2
Cd1 N3 1_555 1_555
Cd2 N1 1_555 1_555
Cd3 O1 1_555 1_555
C1 H1 1_555 1_555
C2 H2 1_555 1_555
C3 H3 1_555 1_555
C4 C9 1_555 1_555
C5 C10 1_555 1_555
C6 C1 1_555 1_555
H4 C6 1_555 1_555
C7 C2 1_555 1_555
H5 C7 1_555 1_555
C8 C3 1_555 1_555
H6 C8 1_555 1_555
C9 H7 1_555 1_555
H8 C9 1_555 1_555
C10 H9 1_555 1_555
H10 C10 1_555 1_555
C11 C6 1_555 1_555
C12 C7 1_555 1_555
C13 C8 1_555 1_555
C14 C9 1_555 1_555
H11 C14 1_555 1_555
H12 C14 1_555 1_555
C15 C10 1_555 1_555
H13 C15 1_555 1_555
H14 C15 1_555 1_555
C16 C11 1_555 1_555
H15 C16 1_555 1_555
C17 C12 1_555 1_555
H16 C17 1_555 1_555
C18 C13 1_555 1_555
H17 C18 1_555 1_555
C19 C14 1_555 1_555
H18 C19 1_555 1_555
H19 C19 1_555 1_555
C20 C15 1_555 1_555
H20 C20 1_555 1_555
H21 C20 1_555 1_555
C21 C16 1_555 1_555
H22 C21 1_555 1_555
C22 C17 1_555 1_555
H23 C22 1_555 1_555
C23 C18 1_555 1_555
H24 C23 1_555 1_555
C24 C19 1_555 1_555
C25 C20 1_555 1_555
C26 C11 1_555 1_555
H25 C26 1_555 1_555
C27 C12 1_555 1_555
H26 C27 1_555 1_555
C28 C13 1_555 1_555
H27 C28 1_555 1_555
C29 H28 1_555 1_555
C30 H29 1_555 1_555
C31 H30 1_555 1_555
C32 H31 1_555 1_555
C33 H32 1_555 1_555
C34 H33 1_555 1_555
C35 C32 1_555 1_555
H34 C35 1_555 1_555
C36 C33 1_555 1_555
H35 C36 1_555 1_555
C37 C34 1_555 1_555
H36 C37 1_555 1_555
C38 C29 1_555 1_555
C39 C30 1_555 1_555
C40 C31 1_555 1_555
C41 C38 1_555 1_555
H37 C41 1_555 1_555
C42 C39 1_555 1_555
H38 C42 1_555 1_555
C43 C40 1_555 1_555
H39 C43 1_555 1_555
C44 C41 1_555 1_555
H40 C44 1_555 1_555
C45 C42 1_555 1_555
H41 C45 1_555 1_555
C46 C43 1_555 1_555
H42 C46 1_555 1_555
N1 C1 1_555 1_555
N2 Cd2 1_555 1_555
N3 C3 1_555 1_555
N4 C26 1_555 1_555
N5 C27 1_555 1_555
N6 C28 1_555 1_555
N7 C29 1_555 1_555
N8 C30 1_555 1_555
N9 C31 1_555 1_555
N10 C32 1_555 1_555
N11 C33 1_555 1_555
N12 C34 1_555 1_555
O1 Cd2 1_555 1_555
O2 Cd1 1_555 1_555
O3 Cd1 1_555 1_555
O4 Cd2 1_555 1_555
O5 C5 1_555 1_555
O6 Cd2 1_555 1_555
O7 Cd1 1_555 1_555
O8 C25 1_555 1_555
O9 C24 1_555 1_555
O10 C25 1_555 1_555
C47 H43 1_555 1_555
C48 C47 1_555 1_555
H44 C48 1_555 1_555
C49 C48 1_555 1_555
C50 C49 1_555 1_555
H45 C50 1_555 1_555
C51 C50 1_555 1_555
H46 C51 1_555 1_555
C52 C49 1_555 1_555
H47 C52 1_555 1_555
N13 C47 1_555 1_555
N14 C52 1_555 1_555
N15 O11 1_555 1_555
O12 N15 1_555 1_555
O13 N15 1_555 1_555
N16 O14 1_555 1_555
O15 N16 1_555 1_555
O16 N16 1_555 1_555
Cd1D O8 1_555 1_555
Cd1E N12 1_555 1_555
Cd2G O8 1_555 1_555
Cd3C O5 1_555 1_555
Cd3E N10 1_555 1_555
Cd3E_2 N11 1_555 1_555
N10E Cd3 1_555 1_555
N11E Cd3 1_555 1_555
N12E Cd1 1_555 1_555
O5C Cd3 1_555 1_555
O7C Cd3 1_555 1_555
O8D Cd1 1_555 1_555
O8G Cd2 1_555 1_555
O9C Cd3 1_555 1_555
O10G Cd2 1_555 1_555
C47F H43F 1_555 1_555
C48F C47F 1_555 1_555
H44F C48F 1_555 1_555
C49F C48F 1_555 1_555
C50F C49F 1_555 1_555
H45F C50F 1_555 1_555
C51F C50F 1_555 1_555
H46F C51F 1_555 1_555
C52F C49F 1_555 1_555
H47F C52F 1_555 1_555
N13F C47F 1_555 1_555
N14F N14 1_555 1_555
C2 N2 1_555 1_555
C4 O1 1_555 1_555
C4 O4 1_555 1_555
C5 O2 1_555 1_555
C21 N1 1_555 1_555
C22 N2 1_555 1_555
C23 N3 1_555 1_555
C24 O7 1_555 1_555
C35 C38 1_555 1_555
C36 C39 1_555 1_555
C37 C40 1_555 1_555
C44 N10 1_555 1_555
C45 N11 1_555 1_555
C46 N12 1_555 1_555
N4 N7 1_555 1_555
N5 N8 1_555 1_555
N6 N9 1_555 1_555
O7 Cd3C 1_555 1_555
O9 Cd3C 1_555 1_555
O10 Cd2G 1_555 1_555
C51 N13 1_555 1_555
C51F N13F 1_555 1_555
C52F N14F 1_555 1_555

#END
