
#######################################################################
#
#                 Cambridge Crystallographic Data Centre
#                                CCDC 
#
#######################################################################
#
# If this CIF has been generated from an entry in the Cambridge 
# Structural Database, then it will include bibliographic, chemical, 
# crystal, experimental, refinement or atomic coordinate data resulting 
# from the CCDC's data processing and validation procedures.
#
#######################################################################

data_GUKFEY
_symmetry_cell_setting           tetragonal
_symmetry_space_group_name_H-M   'P 41 21 2'
_symmetry_Int_Tables_number      92
_space_group_name_Hall           'P 4abw 2nw'
loop_
_symmetry_equiv_pos_site_id
_symmetry_equiv_pos_as_xyz
1 x,y,z
2 -x,-y,1/2+z
3 1/2-y,1/2+x,1/4+z
4 1/2+y,1/2-x,3/4+z
5 1/2-x,1/2+y,1/4-z
6 1/2+x,1/2-y,3/4-z
7 y,x,-z
8 -y,-x,1/2-z
_cell_length_a                   16.8687(5)
_cell_length_b                   16.8687(5)
_cell_length_c                   28.5613(9)
_cell_angle_alpha                90
_cell_angle_beta                 90
_cell_angle_gamma                90
_cell_volume                     8127.2
loop_
_atom_site_label
_atom_site_type_symbol
_atom_site_fract_x
_atom_site_fract_y
_atom_site_fract_z
Cl1 Cl 0.35336(6) 0.45277(6) -0.10885(3)
O2 O 0.35071(19) 0.50040(19) -0.06703(10)
O3 O 0.4271(2) 0.4101(2) -0.10942(13)
O4 O 0.2875(2) 0.3989(2) -0.10943(12)
O9 O 0.3495(2) 0.5035(2) -0.14916(11)
O5 O 1.06251(18) 0.39526(19) 0.33029(11)
Cl2 Cl 0.98289(6) 0.42706(6) 0.32585(3)
O6 O 0.9661(2) 0.4736(2) 0.36669(11)
O7 O 0.9774(2) 0.4755(2) 0.28559(12)
O8 O 0.9281(2) 0.3627(2) 0.32337(13)
C27 C 0.0404(3) 0.3602(3) 0.14225(16)
H24 H -0.0068 0.3865 0.1279
Cl3 Cl 0.12343(8) 0.37847(8) 0.10618(4)
Cl4 Cl 0.02243(8) 0.25688(8) 0.14457(5)
Cl5 Cl 0.05394(9) 0.39850(9) 0.19821(4)
C28 C 0.9634(3) 0.0252(3) 0.07236(16)
H25 H 0.9869 -0.0292 0.0708
Cl6 Cl 0.89507(8) 0.03428(10) 0.02636(4)
Cl7 Cl 0.91226(11) 0.03360(12) 0.12571(5)
Cl8 Cl 1.03941(11) 0.09276(10) 0.06587(10)
Cd1 Cd 0.693508(15) 0.218043(15) 0.006581(8)
S1 S 0.61752(5) 0.61752(5) 0.0000
S2 S 0.60080(6) 0.23465(7) -0.22788(3)
S3 S 0.82340(7) 0.31468(6) 0.22680(3)
O1 O 0.55358(17) 0.21068(18) 0.02215(11)
N1 N 0.66851(18) 0.35400(18) -0.00023(11)
N2 N 0.66403(17) 0.21316(18) -0.07395(10)
N3 N 0.33361(17) 0.26396(18) -0.24343(10)
N4 N 0.71496(19) 0.23738(18) 0.08801(10)
N5 N 0.80432(18) 0.58287(19) 0.23719(10)
C1 C 0.6036(2) 0.3808(2) -0.02100(13)
H1 H 0.5697 0.3435 -0.0358
C2 C 0.5822(2) 0.4606(2) -0.02233(12)
H2 H 0.5354 0.4776 -0.0379
C3 C 0.6319(2) 0.5141(2) -0.00009(12)
C4 C 0.7012(2) 0.4875(2) 0.02094(12)
H3 H 0.7365 0.5235 0.0357
C5 C 0.7172(2) 0.4075(2) 0.01973(13)
H4 H 0.7650 0.3891 0.0336
C6 C 0.6998(2) 0.2650(2) -0.10233(13)
H5 H 0.7409 0.2969 -0.0896
C7 C 0.6809(2) 0.2749(2) -0.14864(12)
H6 H 0.7075 0.3132 -0.1673
C8 C 0.6217(2) 0.2274(2) -0.16744(12)
C9 C 0.5844(2) 0.1720(2) -0.13902(13)
H7 H 0.5442 0.1383 -0.1511
C10 C 0.6077(2) 0.1674(2) -0.09249(13)
H8 H 0.5822 0.1297 -0.0729
C11 C 0.3708(2) 0.2912(2) -0.20510(12)
H9 H 0.3400 0.3177 -0.1821
C12 C 0.4508(2) 0.2831(2) -0.19714(12)
H10 H 0.4742 0.3045 -0.1697
C13 C 0.4968(2) 0.2434(2) -0.22957(12)
C14 C 0.4590(2) 0.2131(2) -0.26928(11)
H11 H 0.4883 0.1845 -0.2922
C15 C 0.3793(2) 0.2251(2) -0.27470(12)
H12 H 0.3546 0.2048 -0.3021
C16 C 0.6844(2) 0.2991(2) 0.11150(12)
H13 H 0.6403 0.3259 0.0982
C17 C 0.7133(2) 0.3259(2) 0.15372(13)
H14 H 0.6892 0.3694 0.1693
C18 C 0.7785(2) 0.2876(2) 0.17305(11)
C19 C 0.8091(3) 0.2218(2) 0.15016(13)
H15 H 0.8523 0.1931 0.1630
C20 C 0.7754(2) 0.1992(2) 0.10845(13)
H16 H 0.7963 0.1538 0.0932
C21 C 0.8264(2) 0.5476(2) 0.19696(12)
H17 H 0.8404 0.5802 0.1712
C22 C 0.8299(2) 0.4670(2) 0.19130(13)
H18 H 0.8453 0.4447 0.1621
C23 C 0.8104(2) 0.4182(2) 0.22888(12)
C24 C 0.7865(2) 0.4533(2) 0.27022(12)
H19 H 0.7716 0.4217 0.2963
C25 C 0.7845(2) 0.5356(2) 0.27314(12)
H20 H 0.7685 0.5593 0.3018
C26 C 0.5003(3) 0.1493(3) 0.0295(2)
H21 H 0.4473 0.1712 0.0351
H22 H 0.5169 0.1182 0.0568
H23 H 0.4989 0.1150 0.0018
Cd1F Cd 0.218043(15) 0.693508(15) -0.006581(8)
Cd1E Cd 0.193508(15) 0.281957(15) -0.256581(8)
Cd1D Cd 0.806492(15) 0.718043(15) 0.243419(8)
Cd1E_2 Cd 1.193508(15) 0.281957(15) -0.256581(8)
Cd1D_2 Cd 0.806492(15) -0.281957(15) 0.243419(8)
S2E S 1.10080(6) 0.26535(7) -0.02212(3)
S3D S 0.67660(7) -0.18532(6) 0.02320(3)
O1F O 0.21068(18) 0.55358(17) -0.02215(11)
N1F N 0.35400(18) 0.66851(18) 0.00023(11)
N2E N 1.16403(17) 0.28684(18) -0.17605(10)
N2F N 0.21316(18) 0.66403(17) 0.07395(10)
N3E N 0.83361(17) 0.23604(18) -0.00657(10)
N3B N 0.23604(18) 0.83361(17) 0.00657(10)
N4D N 0.78504(19) -0.26262(18) 0.16199(10)
N4F N 0.23738(18) 0.71496(19) -0.08801(10)
N5D N 0.69568(18) 0.08287(19) 0.01281(10)
N5C N 0.08287(19) 0.69568(18) -0.01281(10)
C1F C 0.3808(2) 0.6036(2) 0.02100(13)
H1F H 0.3435 0.5697 0.0358
C2F C 0.4606(2) 0.5822(2) 0.02233(12)
H2F H 0.4776 0.5354 0.0379
C3F C 0.5141(2) 0.6319(2) 0.00009(12)
C4F C 0.4875(2) 0.7012(2) -0.02094(12)
H3F H 0.5235 0.7365 -0.0357
C5F C 0.4075(2) 0.7172(2) -0.01973(13)
H4F H 0.3891 0.7650 -0.0336
C6E C 1.1998(2) 0.2350(2) -0.14767(13)
H5E H 1.2409 0.2031 -0.1604
C7E C 1.1809(2) 0.2251(2) -0.10136(12)
H6E H 1.2075 0.1868 -0.0827
C8E C 1.1217(2) 0.2726(2) -0.08256(12)
C9E C 1.0844(2) 0.3280(2) -0.11098(13)
H7E H 1.0442 0.3617 -0.0989
C10E C 1.1077(2) 0.3326(2) -0.15751(13)
H8E H 1.0822 0.3703 -0.1771
C11E C 0.8708(2) 0.2088(2) -0.04490(12)
H9E H 0.8400 0.1823 -0.0679
C12E C 0.9508(2) 0.2169(2) -0.05286(12)
H10E H 0.9742 0.1955 -0.0803
C13E C 0.9968(2) 0.2566(2) -0.02043(12)
C14E C 0.9590(2) 0.2869(2) 0.01928(11)
H11E H 0.9883 0.3155 0.0422
C15E C 0.8793(2) 0.2749(2) 0.02470(12)
H12E H 0.8546 0.2952 0.0521
C16D C 0.8156(2) -0.2009(2) 0.13850(12)
H13D H 0.8597 -0.1741 0.1518
C17D C 0.7867(2) -0.1741(2) 0.09628(13)
H14D H 0.8108 -0.1306 0.0807
C18D C 0.7215(2) -0.2124(2) 0.07695(11)
C19D C 0.6909(3) -0.2782(2) 0.09984(13)
H15D H 0.6477 -0.3069 0.0870
C20D C 0.7246(2) -0.3008(2) 0.14155(13)
H16D H 0.7037 -0.3462 0.1568
C21D C 0.6736(2) 0.0476(2) 0.05304(12)
H17D H 0.6596 0.0802 0.0788
C22D C 0.6701(2) -0.0330(2) 0.05870(13)
H18D H 0.6547 -0.0553 0.0879
C23D C 0.6896(2) -0.0818(2) 0.02112(12)
C24D C 0.7135(2) -0.0467(2) -0.02022(12)
H19D H 0.7284 -0.0783 -0.0463
C25D C 0.7155(2) 0.0356(2) -0.02314(12)
H20D H 0.7315 0.0593 -0.0518
C26F C 0.1493(3) 0.5003(3) -0.0295(2)
H21F H 0.1712 0.4473 -0.0351
H22F H 0.1182 0.5169 -0.0568
H23F H 0.1150 0.4989 -0.0018
O10? O 0.2867(10) 0.3075(10) -0.0237(5)
C29? C 0.3033(10) 0.3577(11) 0.0128(6)
loop_
_geom_bond_atom_site_label_1
_geom_bond_atom_site_label_2
_geom_bond_site_symmetry_1
_geom_bond_site_symmetry_2
Cd1 O1 1_555 1_555
S1 C3 1_555 1_555
S2 C8 1_555 1_555
S3 C18 1_555 1_555
O1 C26 1_555 1_555
N1 Cd1 1_555 1_555
N2 Cd1 1_555 1_555
N3 C11 1_555 1_555
N4 Cd1 1_555 1_555
N5 C21 1_555 1_555
C1 N1 1_555 1_555
H1 C1 1_555 1_555
C2 C1 1_555 1_555
H2 C2 1_555 1_555
C3 C2 1_555 1_555
C4 C3 1_555 1_555
H3 C4 1_555 1_555
C5 N1 1_555 1_555
H4 C5 1_555 1_555
C6 N2 1_555 1_555
H5 C6 1_555 1_555
C7 C6 1_555 1_555
H6 C7 1_555 1_555
C8 C7 1_555 1_555
C9 C8 1_555 1_555
H7 C9 1_555 1_555
C10 N2 1_555 1_555
H8 C10 1_555 1_555
C11 H9 1_555 1_555
C12 C11 1_555 1_555
H10 C12 1_555 1_555
C13 S2 1_555 1_555
C14 C13 1_555 1_555
H11 C14 1_555 1_555
C15 N3 1_555 1_555
H12 C15 1_555 1_555
C16 N4 1_555 1_555
H13 C16 1_555 1_555
C17 C16 1_555 1_555
H14 C17 1_555 1_555
C18 C17 1_555 1_555
C19 C18 1_555 1_555
H15 C19 1_555 1_555
C20 N4 1_555 1_555
H16 C20 1_555 1_555
C21 H17 1_555 1_555
C22 C21 1_555 1_555
H18 C22 1_555 1_555
C23 S3 1_555 1_555
C24 C23 1_555 1_555
H19 C24 1_555 1_555
C25 N5 1_555 1_555
H20 C25 1_555 1_555
C26 H21 1_555 1_555
H22 C26 1_555 1_555
H23 C26 1_555 1_555
Cl1 O2 1_555 1_555
O3 Cl1 1_555 1_555
O4 Cl1 1_555 1_555
O5 Cl2 1_555 1_555
Cl2 O6 1_555 1_555
O7 Cl2 1_555 1_555
O8 Cl2 1_555 1_555
O9 Cl1 1_555 1_555
C27 H24 1_555 1_555
Cl3 C27 1_555 1_555
Cl4 C27 1_555 1_555
Cl5 C27 1_555 1_555
C28 H25 1_555 1_555
Cl6 C28 1_555 1_555
Cl7 C28 1_555 1_555
Cl8 C28 1_555 1_555
Cd1F O1F 1_555 1_555
Cd1E N3 1_555 1_555
Cd1D N5 1_555 1_555
Cd1E_2 N2E 1_555 1_555
Cd1D_2 N4D 1_555 1_555
S2E C8E 1_555 1_555
S3D C18D 1_555 1_555
O1F C26F 1_555 1_555
N1F Cd1F 1_555 1_555
N2E C6E 1_555 1_555
N2F Cd1F 1_555 1_555
N3E Cd1 1_555 1_555
N3B Cd1F 1_555 1_555
N4D C16D 1_555 1_555
N4F Cd1F 1_555 1_555
N5D Cd1 1_555 1_555
N5C Cd1F 1_555 1_555
C1F N1F 1_555 1_555
H1F C1F 1_555 1_555
C2F C1F 1_555 1_555
H2F C2F 1_555 1_555
C3F S1 1_555 1_555
C4F C3F 1_555 1_555
H3F C4F 1_555 1_555
C5F N1F 1_555 1_555
H4F C5F 1_555 1_555
C6E H5E 1_555 1_555
C7E C6E 1_555 1_555
H6E C7E 1_555 1_555
C8E C7E 1_555 1_555
C9E C8E 1_555 1_555
H7E C9E 1_555 1_555
C10E N2E 1_555 1_555
H8E C10E 1_555 1_555
C11E N3E 1_555 1_555
H9E C11E 1_555 1_555
C12E C11E 1_555 1_555
H10E C12E 1_555 1_555
C13E S2E 1_555 1_555
C14E C13E 1_555 1_555
H11E C14E 1_555 1_555
C15E N3E 1_555 1_555
H12E C15E 1_555 1_555
C16D H13D 1_555 1_555
C17D C16D 1_555 1_555
H14D C17D 1_555 1_555
C18D C17D 1_555 1_555
C19D C18D 1_555 1_555
H15D C19D 1_555 1_555
C20D N4D 1_555 1_555
H16D C20D 1_555 1_555
C21D N5D 1_555 1_555
H17D C21D 1_555 1_555
C22D C21D 1_555 1_555
H18D C22D 1_555 1_555
C23D S3D 1_555 1_555
C24D C23D 1_555 1_555
H19D C24D 1_555 1_555
C25D N5D 1_555 1_555
H20D C25D 1_555 1_555
C26F H21F 1_555 1_555
H22F C26F 1_555 1_555
H23F C26F 1_555 1_555
C4 C5 1_555 1_555
C9 C10 1_555 1_555
C12 C13 1_555 1_555
C14 C15 1_555 1_555
C19 C20 1_555 1_555
C22 C23 1_555 1_555
C24 C25 1_555 1_555
C2F C3F 1_555 1_555
C4F C5F 1_555 1_555
C9E C10E 1_555 1_555
C12E C13E 1_555 1_555
C14E C15E 1_555 1_555
C19D C20D 1_555 1_555
C22D C23D 1_555 1_555
C24D C25D 1_555 1_555

#END
