
#######################################################################
#
#                 Cambridge Crystallographic Data Centre
#                                CCDC 
#
#######################################################################
#
# If this CIF has been generated from an entry in the Cambridge 
# Structural Database, then it will include bibliographic, chemical, 
# crystal, experimental, refinement or atomic coordinate data resulting 
# from the CCDC's data processing and validation procedures.
#
#######################################################################

data_GULWEQ
_symmetry_cell_setting           cubic
_symmetry_space_group_name_H-M   'P a -3'
_symmetry_Int_Tables_number      205
_space_group_name_Hall           '-P 2ac 2ab 3'
loop_
_symmetry_equiv_pos_site_id
_symmetry_equiv_pos_as_xyz
1 x,y,z
2 1/2-x,-y,1/2+z
3 -x,1/2+y,1/2-z
4 1/2+x,1/2-y,-z
5 z,x,y
6 1/2+z,1/2-x,-y
7 1/2-z,-x,1/2+y
8 -z,1/2+x,1/2-y
9 y,z,x
10 -y,1/2+z,1/2-x
11 1/2+y,1/2-z,-x
12 1/2-y,-z,1/2+x
13 -x,-y,-z
14 1/2+x,y,1/2-z
15 x,1/2-y,1/2+z
16 1/2-x,1/2+y,z
17 -z,-x,-y
18 1/2-z,1/2+x,y
19 1/2+z,x,1/2-y
20 z,1/2-x,1/2+y
21 -y,-z,-x
22 y,1/2-z,1/2+x
23 1/2-y,1/2+z,x
24 1/2+y,z,1/2-x
_cell_length_a                   41.5947(4)
_cell_length_b                   41.5947(4)
_cell_length_c                   41.5947(4)
_cell_angle_alpha                90
_cell_angle_beta                 90
_cell_angle_gamma                90
_cell_volume                     71963.8
loop_
_atom_site_label
_atom_site_type_symbol
_atom_site_fract_x
_atom_site_fract_y
_atom_site_fract_z
Cd1 Cd 0.55136(2) 0.674305(17) 0.820911(18)
Cd2 Cd 0.593877(16) 0.756902(15) 0.787293(15)
Cd3 Cd 0.480161(17) 0.829697(17) 1.006466(17)
Cd4 Cd 0.443260(16) 0.716010(17) 0.587020(16)
O1 O 0.5683(3) 0.6507(3) 0.8695(3)
O2 O 0.4961(3) 0.6689(3) 0.8321(4)
O3 O 0.6349(3) 0.7856(3) 0.8144(3)
O4 O 0.4591(3) 0.8730(2) 0.9794(2)
O5 O 0.4314(3) 0.7719(3) 0.5889(3)
O6 O 0.3950(2) 0.7034(3) 0.6143(3)
N1 N 0.5386(2) 0.7004(2) 0.7709(2)
N2 N 0.5174(2) 0.6912(2) 0.7484(2)
N3 N 0.5540(2) 0.7269(2) 0.7615(2)
N4 N 0.5425(2) 0.7358(2) 0.73291(19)
N5 N 0.4678(2) 0.7174(2) 0.6374(2)
N6 N 0.6058(2) 0.6813(2) 0.8068(2)
N7 N 0.6263(2) 0.6565(2) 0.8041(2)
N8 N 0.6190(2) 0.7086(2) 0.7975(2)
N9 N 0.6494(3) 0.7028(2) 0.7872(3)
N10 N 0.7387(2) 0.6201(2) 0.7655(2)
N11 N 0.5623(2) 0.7510(2) 0.8352(2)
N12 N 0.5533(2) 0.7740(2) 0.8556(2)
N13 N 0.5499(2) 0.7224(2) 0.8456(2)
N14 N 0.5330(2) 0.7277(2) 0.8722(2)
N15 N 0.4913(2) 0.8054(2) 0.9571(2)
N16 N 0.5347(2) 0.5011(2) 0.7138(2)
N17 N 0.5603(2) 0.4906(2) 0.7287(2)
N18 N 0.5692(2) 0.5122(2) 0.7508(2)
N19 N 0.5266(2) 0.5303(2) 0.7260(2)
N20 N 0.5504(2) 0.6246(3) 0.7983(3)
N21 N 0.4696(2) 0.8529(2) 1.0556(2)
N22 N 0.45806(18) 0.8391(2) 1.0822(2)
N23 N 0.4800(2) 0.8824(2) 1.0622(2)
N24 N 0.4616(2) 0.8595(2) 1.10663(19)
N25 N 0.5016(2) 0.9705(2) 1.1453(2)
N26 N 0.48890(19) 0.9325(2) 0.8016(2)
N27 N 0.4643(2) 0.9183(2) 0.7879(2)
N28 N 0.5145(2) 0.9127(2) 0.80160(19)
N29 N 0.47230(17) 0.8884(2) 0.7790(2)
N30 N 0.5635(2) 0.8030(2) 0.7807(2)
C1 C 0.5204(3) 0.7136(2) 0.7256(3)
C2 C 0.5018(3) 0.7148(3) 0.6959(3)
C3 C 0.5076(3) 0.7388(3) 0.6730(3)
H1 H 0.5236 0.7546 0.6768
C4 C 0.4788(3) 0.6920(3) 0.6888(3)
H2 H 0.4736 0.6753 0.7035
C5 C 0.4900(3) 0.7392(3) 0.6449(3)
H3 H 0.4940 0.7561 0.6300
C6 C 0.4631(3) 0.6945(3) 0.6588(3)
H4 H 0.4479 0.6783 0.6536
C7 C 0.6526(3) 0.6712(3) 0.7915(3)
C8 C 0.6817(3) 0.6530(3) 0.7822(3)
C9 C 0.6849(3) 0.6210(3) 0.7883(3)
H5 H 0.6680 0.6092 0.7982
C10 C 0.7076(4) 0.6685(4) 0.7687(4)
H6 H 0.7069 0.6911 0.7655
C11 C 0.7135(3) 0.6059(3) 0.7797(3)
H7 H 0.7154 0.5836 0.7843
C12 C 0.7347(3) 0.6511(3) 0.7597(3)
H8 H 0.7514 0.6622 0.7487
C13 C 0.5353(3) 0.7596(3) 0.8773(2)
C14 C 0.5192(3) 0.7756(3) 0.9048(3)
C15 C 0.5161(3) 0.8084(3) 0.9057(3)
H9 H 0.5223 0.8214 0.8880
C16 C 0.5063(3) 0.7577(3) 0.9293(3)
H10 H 0.5076 0.7349 0.9293
C17 C 0.4912(4) 0.7743(3) 0.9539(3)
H11 H 0.4799 0.7620 0.9695
C18 C 0.5033(3) 0.8219(3) 0.9336(3)
H12 H 0.5034 0.8447 0.9354
C19 C 0.5476(2) 0.5362(3) 0.7472(3)
C20 C 0.5490(3) 0.5664(3) 0.7659(3)
C21 C 0.5713(3) 0.5727(3) 0.7895(4)
H13 H 0.5861 0.5565 0.7958
C22 C 0.5250(3) 0.5895(3) 0.7598(3)
H14 H 0.5082 0.5856 0.7449
C23 C 0.5272(3) 0.6187(3) 0.7769(4)
H15 H 0.5115 0.6348 0.7730
C24 C 0.5723(3) 0.6023(3) 0.8040(4)
H16 H 0.5893 0.6070 0.8185
C25 C 0.5032(2) 0.8858(2) 0.7873(2)
C26 C 0.5234(2) 0.8574(3) 0.7835(3)
C27 C 0.5543(4) 0.8576(7) 0.7944(4)
H17 H 0.5629 0.8762 0.8044
C28 C 0.5126(4) 0.8302(6) 0.7746(4)
H18 H 0.4905 0.8273 0.7699
C29 C 0.5730(4) 0.8303(8) 0.7909(4)
H19 H 0.5950 0.8321 0.7967
C30 C 0.5353(4) 0.8033(5) 0.7719(4)
H20 H 0.5273 0.7841 0.7623
C31 C 0.4756(3) 0.8853(3) 1.0938(3)
C32 C 0.4851(3) 0.9136(3) 1.1117(3)
C33 C 0.4975(4) 0.9404(3) 1.0970(3)
H21 H 0.5007 0.9401 1.0744
C34 C 0.4823(3) 0.9160(3) 1.1446(3)
H22 H 0.4747 0.8981 1.1566
C35 C 0.5053(4) 0.9675(3) 1.1138(3)
H23 H 0.5140 0.9852 1.1022
C36 C 0.4903(3) 0.9434(3) 1.1602(3)
H24 H 0.4879 0.9439 1.1829
N10H N 0.6201(2) 0.7655(2) 0.7387(2)
N16U N 0.5011(2) 0.7862(2) 1.0347(2)
N25K N 0.5295(2) 0.8547(2) 1.0016(2)
N26W N 0.4325(2) 0.8016(2) 1.01110(19)
N17H N 0.4906(2) 0.7287(2) 0.5603(2)
N22N N 0.45806(18) 0.6609(2) 0.5822(2)
N27J N 0.4183(2) 0.7121(2) 0.5357(2)
Cd2D Cd 0.787293(15) 0.593877(16) 0.756902(15)
Cd3R Cd 0.506466(17) 0.480161(17) 0.670303(17)
Cd4D Cd 0.587020(16) 0.443260(16) 0.716010(17)
Cd4N Cd 0.443260(16) 0.783990(17) 1.087020(16)
Cd3E Cd 0.506466(17) 1.019839(17) 1.170303(17)
Cd3Q Cd 0.493534(17) 0.980161(17) 0.829697(17)
Cd4G Cd 0.412980(16) 0.943260(16) 0.783990(17)
loop_
_geom_bond_atom_site_label_1
_geom_bond_atom_site_label_2
_geom_bond_site_symmetry_1
_geom_bond_site_symmetry_2
Cd1 O1 1_555 1_555
Cd2 O3 1_555 1_555
Cd3 O4 1_555 1_555
Cd4 O5 1_555 1_555
O2 Cd1 1_555 1_555
O6 Cd4 1_555 1_555
N1 Cd1 1_555 1_555
N2 N1 1_555 1_555
N3 Cd2 1_555 1_555
N4 N3 1_555 1_555
N5 Cd4 1_555 1_555
N6 Cd1 1_555 1_555
N7 N6 1_555 1_555
N8 Cd2 1_555 1_555
N9 N8 1_555 1_555
N10 C11 1_555 1_555
N11 Cd2 1_555 1_555
N12 N11 1_555 1_555
N13 Cd1 1_555 1_555
N14 N13 1_555 1_555
N15 Cd3 1_555 1_555
N16 N17 1_555 1_555
N17 N18 1_555 1_555
N18 C19 1_555 1_555
N19 N16 1_555 1_555
N20 Cd1 1_555 1_555
N21 Cd3 1_555 1_555
N22 N21 1_555 1_555
N23 N21 1_555 1_555
N24 N22 1_555 1_555
N25 C35 1_555 1_555
N26 N27 1_555 1_555
N27 N29 1_555 1_555
N28 N26 1_555 1_555
N29 C25 1_555 1_555
N30 Cd2 1_555 1_555
C1 N2 1_555 1_555
C2 C1 1_555 1_555
C3 C2 1_555 1_555
H1 C3 1_555 1_555
C4 C2 1_555 1_555
H2 C4 1_555 1_555
C5 N5 1_555 1_555
H3 C5 1_555 1_555
C6 N5 1_555 1_555
H4 C6 1_555 1_555
C7 N7 1_555 1_555
C8 C7 1_555 1_555
C9 C8 1_555 1_555
H5 C9 1_555 1_555
C10 C8 1_555 1_555
H6 C10 1_555 1_555
C11 C9 1_555 1_555
H7 C11 1_555 1_555
C12 N10 1_555 1_555
H8 C12 1_555 1_555
C13 N12 1_555 1_555
C14 C13 1_555 1_555
C15 C14 1_555 1_555
H9 C15 1_555 1_555
C16 C14 1_555 1_555
H10 C16 1_555 1_555
C17 N15 1_555 1_555
H11 C17 1_555 1_555
C18 N15 1_555 1_555
H12 C18 1_555 1_555
C19 N19 1_555 1_555
C20 C19 1_555 1_555
C21 C20 1_555 1_555
H13 C21 1_555 1_555
C22 C20 1_555 1_555
H14 C22 1_555 1_555
C23 N20 1_555 1_555
H15 C23 1_555 1_555
C24 N20 1_555 1_555
H16 C24 1_555 1_555
C25 N28 1_555 1_555
C26 C25 1_555 1_555
C27 C26 1_555 1_555
H17 C27 1_555 1_555
C28 C26 1_555 1_555
H18 C28 1_555 1_555
C29 N30 1_555 1_555
H19 C29 1_555 1_555
C30 N30 1_555 1_555
H20 C30 1_555 1_555
C31 N23 1_555 1_555
C32 C31 1_555 1_555
C33 C32 1_555 1_555
H21 C33 1_555 1_555
C34 C32 1_555 1_555
H22 C34 1_555 1_555
C35 C33 1_555 1_555
H23 C35 1_555 1_555
C36 N25 1_555 1_555
H24 C36 1_555 1_555
N10H Cd2 1_555 1_555
N16U Cd3 1_555 1_555
N25K Cd3 1_555 1_555
N26W Cd3 1_555 1_555
N17H Cd4 1_555 1_555
N22N Cd4 1_555 1_555
N27J Cd4 1_555 1_555
Cd2D N10 1_555 1_555
Cd3R N16 1_555 1_555
Cd4D N17 1_555 1_555
Cd4N N22 1_555 1_555
Cd3E N25 1_555 1_555
Cd3Q N26 1_555 1_555
Cd4G N27 1_555 1_555
N1 N3 1_555 1_555
N4 C1 1_555 1_555
N6 N8 1_555 1_555
N9 C7 1_555 1_555
N11 N13 1_555 1_555
N14 C13 1_555 1_555
N24 C31 1_555 1_555
C3 C5 1_555 1_555
C4 C6 1_555 1_555
C10 C12 1_555 1_555
C15 C18 1_555 1_555
C16 C17 1_555 1_555
C21 C24 1_555 1_555
C22 C23 1_555 1_555
C27 C29 1_555 1_555
C28 C30 1_555 1_555
C34 C36 1_555 1_555

#END
