
#######################################################################
#
#                 Cambridge Crystallographic Data Centre
#                                CCDC 
#
#######################################################################
#
# If this CIF has been generated from an entry in the Cambridge 
# Structural Database, then it will include bibliographic, chemical, 
# crystal, experimental, refinement or atomic coordinate data resulting 
# from the CCDC's data processing and validation procedures.
#
#######################################################################

data_GUPBOJ01
_symmetry_cell_setting           monoclinic
_symmetry_space_group_name_H-M   'P 21/c'
_symmetry_Int_Tables_number      14
_space_group_name_Hall           '-P 2ybc'
loop_
_symmetry_equiv_pos_site_id
_symmetry_equiv_pos_as_xyz
1 x,y,z
2 -x,1/2+y,1/2-z
3 -x,-y,-z
4 x,1/2-y,1/2+z
_cell_length_a                   16.9693(17)
_cell_length_b                   29.411(3)
_cell_length_c                   14.6756(15)
_cell_angle_alpha                90
_cell_angle_beta                 103.622(2)
_cell_angle_gamma                90
_cell_volume                     7118.33
loop_
_atom_site_label
_atom_site_type_symbol
_atom_site_fract_x
_atom_site_fract_y
_atom_site_fract_z
Cd1 Cd 0.42804(4) 0.18476(2) 0.19376(5)
Cd2 Cd 0.48471(4) 0.39398(2) 0.11140(5)
Cd3 Cd 0.71963(4) 0.04867(2) 0.22886(5)
Cd4 Cd 0.81648(4) 0.01718(2) -0.16014(5)
Cd5 Cd 0.07112(4) 0.36912(2) -0.08556(5)
Cd6 Cd 0.11339(4) 0.15734(2) -0.15176(5)
N1 N 0.6406(6) 0.1073(3) 0.1830(6)
N2 N 0.5373(5) 0.1548(3) 0.1606(6)
N3 N 0.4151(5) 0.1494(2) 0.3218(6)
N4 N 0.4379(5) 0.1160(2) 0.4607(5)
N5 N 0.4544(5) 0.2581(3) 0.2145(7)
N6 N 0.4724(5) 0.3308(3) 0.1838(7)
N7 N 0.4125(5) 0.4527(3) 0.1326(7)
N8 N 0.3431(5) 0.5054(3) 0.1876(7)
N9 N 0.7598(5) 0.0161(3) 0.1132(6)
N10 N 0.7927(5) 0.0045(3) -0.0214(6)
N11 N 0.7309(5) 0.4385(3) 0.2486(6)
N12 N 0.6124(5) 0.4087(3) 0.1653(6)
N13 N 0.8338(4) -0.0480(2) -0.2218(6)
N14 N 0.8704(4) -0.1009(2) -0.3109(5)
N15 N 0.0423(5) 0.2990(2) -0.1290(5)
N16 N 0.0569(5) 0.2251(3) -0.1550(5)
N17 N 0.9579(5) 0.0924(3) 0.3959(6)
N18 N 0.8353(5) 0.0649(3) 0.3304(6)
N19 N -0.0783(5) 0.0624(3) -0.1194(6)
N20 N 0.0184(4) 0.1139(3) -0.1207(6)
N21 N 0.2031(8) 0.1662(4) -0.0208(7)
N22 N 0.3105(8) 0.1772(4) 0.0960(8)
N23 N 0.1449(5) 0.1385(3) -0.2826(5)
N24 N 0.1306(5) 0.1282(3) -0.4358(5)
C1 C 0.5071(8) 0.0748(4) 0.1894(11)
H1 H 0.5367 0.0467 0.2004
H2 H 0.4644 0.0721 0.1337
H3 H 0.4843 0.0813 0.2419
C2 C 0.5647(7) 0.1133(4) 0.1773(7)
C3 C 0.6660(8) 0.1497(5) 0.1662(11)
H4 H 0.7183 0.1577 0.1631
C4 C 0.6015(9) 0.1784(4) 0.1547(11)
H5 H 0.6027 0.2096 0.1444
C5 C 0.5560(6) 0.1531(4) 0.4203(8)
H6 H 0.5843 0.1426 0.4812
H7 H 0.5594 0.1857 0.4180
H8 H 0.5801 0.1401 0.3734
C6 C 0.4699(6) 0.1393(3) 0.4025(7)
C7 C 0.3579(6) 0.1115(3) 0.4145(8)
H9 H 0.3187 0.0969 0.4388
C8 C 0.3442(6) 0.1306(3) 0.3313(7)
H10 H 0.2949 0.1312 0.2870
C9 C 0.4004(11) 0.2835(5) 0.0499(10)
H11 H 0.3980 0.3116 0.0159
H12 H 0.3463 0.2726 0.0461
H13 H 0.4299 0.2614 0.0232
C10 C 0.4434(6) 0.2915(4) 0.1534(8)
C11 C 0.5071(11) 0.3226(5) 0.2732(10)
H14 H 0.5355 0.3438 0.3154
C12 C 0.4953(12) 0.2800(6) 0.2930(10)
H15 H 0.5124 0.2667 0.3519
C13 C 0.3997(7) 0.4439(4) 0.2959(7)
H16 H 0.3736 0.4604 0.3370
H17 H 0.4570 0.4427 0.3228
H18 H 0.3784 0.4135 0.2877
C14 C 0.3841(6) 0.4676(4) 0.2015(8)
C15 C 0.3871(7) 0.4865(4) 0.0633(8)
H19 H 0.3981 0.4865 0.0042
C16 C 0.3465(7) 0.5170(4) 0.0943(8)
H20 H 0.3230 0.5425 0.0614
C17 C 0.6676(8) 0.0503(5) -0.0279(9)
H21 H 0.6657 0.0518 -0.0938
H22 H 0.6709 0.0805 -0.0026
H23 H 0.6194 0.0357 -0.0187
C18 C 0.7422(6) 0.0230(3) 0.0221(8)
C19 C 0.8287(7) -0.0099(4) 0.1287(8)
H24 H 0.8562 -0.0212 0.1868
C20 C 0.8501(8) -0.0166(4) 0.0490(8)
H25 H 0.8954 -0.0326 0.0413
C21 C 0.6122(7) 0.4912(3) 0.2056(8)
H26 H 0.5563 0.4890 0.1728
H27 H 0.6157 0.5010 0.2688
H28 H 0.6392 0.5129 0.1745
C22 C 0.6524(7) 0.4452(3) 0.2065(7)
C23 C 0.6725(8) 0.3751(4) 0.1836(11)
H29 H 0.6651 0.3447 0.1665
C24 C 0.7424(7) 0.3939(4) 0.2298(10)
H30 H 0.7917 0.3787 0.2466
C25 C 0.8336(6) -0.0258(3) -0.3844(6)
H31 H 0.8176 0.0033 -0.3650
H32 H 0.7916 -0.0373 -0.4348
H33 H 0.8828 -0.0225 -0.4054
C26 C 0.8471(5) -0.0577(3) -0.3047(6)
C27 C 0.8735(6) -0.1186(3) -0.2240(7)
H34 H 0.8890 -0.1482 -0.2057
C28 C 0.8513(6) -0.0875(3) -0.1694(7)
H35 H 0.8480 -0.0915 -0.1075
C29 C 0.1798(6) 0.2740(3) -0.1369(9)
H36 H 0.1918 0.3058 -0.1271
H37 H 0.1926 0.2645 -0.1943
H38 H 0.2117 0.2569 -0.0856
C30 C 0.0927(6) 0.2662(3) -0.1426(6)
C31 C -0.0227(7) 0.2320(3) -0.1504(8)
H39 H -0.0627 0.2098 -0.1573
C32 C -0.0322(6) 0.2767(4) -0.1341(8)
H40 H -0.0798 0.2905 -0.1273
C33 C 0.8981(7) 0.1128(4) 0.2279(7)
H41 H 0.8482 0.1068 0.1828
H42 H 0.9045 0.1450 0.2377
H43 H 0.9426 0.1011 0.2050
C34 C 0.8964(6) 0.0901(3) 0.3181(7)
C35 C 0.9339(7) 0.0656(4) 0.4599(8)
H44 H 0.9630 0.0602 0.5210
C36 C 0.8607(8) 0.0482(4) 0.4195(9)
H45 H 0.8318 0.0279 0.4479
C37 C -0.0253(7) 0.0654(4) -0.2606(7)
H46 H -0.0636 0.0412 -0.2798
H47 H 0.0282 0.0548 -0.2603
H48 H -0.0389 0.0904 -0.3036
C38 C -0.0280(5) 0.0807(3) -0.1650(7)
C39 C -0.0614(7) 0.0859(4) -0.0332(8)
H49 H -0.0858 0.0810 0.0164
C40 C -0.0047(8) 0.1160(4) -0.0359(8)
H50 H 0.0172 0.1360 0.0125
C41 C 0.3198(10) 0.1276(5) -0.0258(11)
H51 H 0.3746 0.1248 0.0106
H52 H 0.3201 0.1388 -0.0872
H53 H 0.2939 0.0983 -0.0312
C42 C 0.2721(8) 0.1617(4) 0.0240(10)
C43 C 0.1775(10) 0.2009(5) 0.0488(12)
H54 H 0.1271 0.2146 0.0425
C44 C 0.2352(10) 0.2058(5) 0.1101(12)
H55 H 0.2366 0.2245 0.1615
C45 C 0.0382(9) 0.1841(5) -0.3884(8)
H56 H 0.0161 0.1860 -0.4548
H57 H 0.0603 0.2130 -0.3653
H58 H -0.0039 0.1758 -0.3579
C46 C 0.1032(6) 0.1492(3) -0.3687(7)
C47 C 0.1897(8) 0.1004(5) -0.3882(9)
H59 H 0.2187 0.0797 -0.4154
C48 C 0.2001(7) 0.1074(4) -0.2954(8)
H60 H 0.2386 0.0932 -0.2482
Cd2C Cd 0.48471(4) 0.10602(2) 0.61140(5)
Cd3A Cd 0.28037(4) 0.54867(2) 0.27114(5)
Cd4C Cd 0.81648(4) 0.48282(2) 0.33986(5)
Cd4_2 Cd -0.18352(4) 0.01718(2) -0.16014(5)
Cd5A Cd 0.92888(4) -0.13088(2) -0.41444(5)
Cd5C Cd 1.07112(4) 0.13088(2) 0.41444(5)
Cd5C_2 Cd 0.07112(4) 0.13088(2) -0.58556(5)
N4C N 0.4379(5) 0.3840(2) -0.0393(5)
N8A N 0.6569(5) 0.0054(3) 0.3124(7)
N11C N 0.7309(5) 0.0615(3) -0.2514(6)
N14A N 0.1296(4) 0.3991(2) -0.1891(5)
N17C N -0.0421(5) 0.4076(3) -0.1041(6)
N19_2 N 0.9217(5) 0.0624(3) -0.1194(6)
N24C N 0.1306(5) 0.3718(3) 0.0642(5)
loop_
_geom_bond_atom_site_label_1
_geom_bond_atom_site_label_2
_geom_bond_site_symmetry_1
_geom_bond_site_symmetry_2
Cd1 N2 1_555 1_555
Cd2 N6 1_555 1_555
Cd3 N1 1_555 1_555
Cd4 N10 1_555 1_555
Cd5 N15 1_555 1_555
Cd6 N16 1_555 1_555
N1 C2 1_555 1_555
N2 C2 1_555 1_555
N3 Cd1 1_555 1_555
N4 C6 1_555 1_555
N5 Cd1 1_555 1_555
N6 C10 1_555 1_555
N7 Cd2 1_555 1_555
N8 C14 1_555 1_555
N9 Cd3 1_555 1_555
N10 C18 1_555 1_555
N11 C22 1_555 1_555
N12 Cd2 1_555 1_555
N13 Cd4 1_555 1_555
N14 C26 1_555 1_555
N15 C30 1_555 1_555
N16 C30 1_555 1_555
N17 C34 1_555 1_555
N18 Cd3 1_555 1_555
N19 C38 1_555 1_555
N20 Cd6 1_555 1_555
N21 Cd6 1_555 1_555
N22 Cd1 1_555 1_555
N23 Cd6 1_555 1_555
N24 C46 1_555 1_555
C1 H1 1_555 1_555
H2 C1 1_555 1_555
H3 C1 1_555 1_555
C2 C1 1_555 1_555
C3 N1 1_555 1_555
H4 C3 1_555 1_555
C4 N2 1_555 1_555
H5 C4 1_555 1_555
C5 H6 1_555 1_555
H7 C5 1_555 1_555
H8 C5 1_555 1_555
C6 N3 1_555 1_555
C7 N4 1_555 1_555
H9 C7 1_555 1_555
C8 N3 1_555 1_555
H10 C8 1_555 1_555
C9 H11 1_555 1_555
H12 C9 1_555 1_555
H13 C9 1_555 1_555
C10 N5 1_555 1_555
C11 N6 1_555 1_555
H14 C11 1_555 1_555
C12 N5 1_555 1_555
H15 C12 1_555 1_555
C13 H16 1_555 1_555
H17 C13 1_555 1_555
H18 C13 1_555 1_555
C14 N7 1_555 1_555
C15 N7 1_555 1_555
H19 C15 1_555 1_555
C16 N8 1_555 1_555
H20 C16 1_555 1_555
C17 H21 1_555 1_555
H22 C17 1_555 1_555
H23 C17 1_555 1_555
C18 N9 1_555 1_555
C19 N9 1_555 1_555
H24 C19 1_555 1_555
C20 N10 1_555 1_555
H25 C20 1_555 1_555
C21 H26 1_555 1_555
H27 C21 1_555 1_555
H28 C21 1_555 1_555
C22 N12 1_555 1_555
C23 N12 1_555 1_555
H29 C23 1_555 1_555
C24 N11 1_555 1_555
H30 C24 1_555 1_555
C25 H31 1_555 1_555
H32 C25 1_555 1_555
H33 C25 1_555 1_555
C26 N13 1_555 1_555
C27 N14 1_555 1_555
H34 C27 1_555 1_555
C28 N13 1_555 1_555
H35 C28 1_555 1_555
C29 H36 1_555 1_555
H37 C29 1_555 1_555
H38 C29 1_555 1_555
C30 C29 1_555 1_555
C31 N16 1_555 1_555
H39 C31 1_555 1_555
C32 N15 1_555 1_555
H40 C32 1_555 1_555
C33 H41 1_555 1_555
H42 C33 1_555 1_555
H43 C33 1_555 1_555
C34 N18 1_555 1_555
C35 N17 1_555 1_555
H44 C35 1_555 1_555
C36 N18 1_555 1_555
H45 C36 1_555 1_555
C37 H46 1_555 1_555
H47 C37 1_555 1_555
H48 C37 1_555 1_555
C38 N20 1_555 1_555
C39 N19 1_555 1_555
H49 C39 1_555 1_555
C40 N20 1_555 1_555
H50 C40 1_555 1_555
C41 H51 1_555 1_555
H52 C41 1_555 1_555
H53 C41 1_555 1_555
C42 N21 1_555 1_555
C43 N21 1_555 1_555
H54 C43 1_555 1_555
C44 N22 1_555 1_555
H55 C44 1_555 1_555
C45 H56 1_555 1_555
H57 C45 1_555 1_555
H58 C45 1_555 1_555
C46 N23 1_555 1_555
C47 N24 1_555 1_555
H59 C47 1_555 1_555
C48 N23 1_555 1_555
H60 C48 1_555 1_555
Cd2C N4 1_555 1_555
Cd3A N8 1_555 1_555
Cd4C N11 1_555 1_555
Cd4_2 N19 1_555 1_555
Cd5A N14 1_555 1_555
Cd5C N17 1_555 1_555
Cd5C_2 N24 1_555 1_555
N4C Cd2 1_555 1_555
N8A Cd3 1_555 1_555
N11C Cd4 1_555 1_555
N14A Cd5 1_555 1_555
N17C Cd5 1_555 1_555
N19_2 Cd4 1_555 1_555
N24C Cd5 1_555 1_555
N22 C42 1_555 1_555
C3 C4 1_555 1_555
C5 C6 1_555 1_555
C7 C8 1_555 1_555
C9 C10 1_555 1_555
C11 C12 1_555 1_555
C13 C14 1_555 1_555
C15 C16 1_555 1_555
C17 C18 1_555 1_555
C19 C20 1_555 1_555
C21 C22 1_555 1_555
C23 C24 1_555 1_555
C25 C26 1_555 1_555
C27 C28 1_555 1_555
C31 C32 1_555 1_555
C33 C34 1_555 1_555
C35 C36 1_555 1_555
C37 C38 1_555 1_555
C39 C40 1_555 1_555
C41 C42 1_555 1_555
C43 C44 1_555 1_555
C45 C46 1_555 1_555
C47 C48 1_555 1_555

#END
