
#######################################################################
#
#                 Cambridge Crystallographic Data Centre
#                                CCDC 
#
#######################################################################
#
# If this CIF has been generated from an entry in the Cambridge 
# Structural Database, then it will include bibliographic, chemical, 
# crystal, experimental, refinement or atomic coordinate data resulting 
# from the CCDC's data processing and validation procedures.
#
#######################################################################

data_GUPCEA
_symmetry_cell_setting           cubic
_symmetry_space_group_name_H-M   'I m -3 m'
_symmetry_Int_Tables_number      229
_space_group_name_Hall           '-I 4 2 3'
loop_
_symmetry_equiv_pos_site_id
_symmetry_equiv_pos_as_xyz
1 x,y,z
2 -x,-y,z
3 -x,y,-z
4 x,-y,-z
5 z,x,y
6 z,-x,-y
7 -z,-x,y
8 -z,x,-y
9 y,z,x
10 -y,z,-x
11 y,-z,-x
12 -y,-z,x
13 y,x,-z
14 -y,-x,-z
15 y,-x,z
16 -y,x,z
17 x,z,-y
18 -x,z,y
19 -x,-z,-y
20 x,-z,y
21 z,y,-x
22 z,-y,x
23 -z,y,x
24 -z,-y,-x
25 1/2+x,1/2+y,1/2+z
26 1/2-x,1/2-y,1/2+z
27 1/2-x,1/2+y,1/2-z
28 1/2+x,1/2-y,1/2-z
29 1/2+z,1/2+x,1/2+y
30 1/2+z,1/2-x,1/2-y
31 1/2-z,1/2-x,1/2+y
32 1/2-z,1/2+x,1/2-y
33 1/2+y,1/2+z,1/2+x
34 1/2-y,1/2+z,1/2-x
35 1/2+y,1/2-z,1/2-x
36 1/2-y,1/2-z,1/2+x
37 1/2+y,1/2+x,1/2-z
38 1/2-y,1/2-x,1/2-z
39 1/2+y,1/2-x,1/2+z
40 1/2-y,1/2+x,1/2+z
41 1/2+x,1/2+z,1/2-y
42 1/2-x,1/2+z,1/2+y
43 1/2-x,1/2-z,1/2-y
44 1/2+x,1/2-z,1/2+y
45 1/2+z,1/2+y,1/2-x
46 1/2+z,1/2-y,1/2+x
47 1/2-z,1/2+y,1/2+x
48 1/2-z,1/2-y,1/2-x
49 -x,-y,-z
50 x,y,-z
51 x,-y,z
52 -x,y,z
53 -z,-x,-y
54 -z,x,y
55 z,x,-y
56 z,-x,y
57 -y,-z,-x
58 y,-z,x
59 -y,z,x
60 y,z,-x
61 -y,-x,z
62 y,x,z
63 -y,x,-z
64 y,-x,-z
65 -x,-z,y
66 x,-z,-y
67 x,z,y
68 -x,z,-y
69 -z,-y,x
70 -z,y,-x
71 z,-y,-x
72 z,y,x
73 1/2-x,1/2-y,1/2-z
74 1/2+x,1/2+y,1/2-z
75 1/2+x,1/2-y,1/2+z
76 1/2-x,1/2+y,1/2+z
77 1/2-z,1/2-x,1/2-y
78 1/2-z,1/2+x,1/2+y
79 1/2+z,1/2+x,1/2-y
80 1/2+z,1/2-x,1/2+y
81 1/2-y,1/2-z,1/2-x
82 1/2+y,1/2-z,1/2+x
83 1/2-y,1/2+z,1/2+x
84 1/2+y,1/2+z,1/2-x
85 1/2-y,1/2-x,1/2+z
86 1/2+y,1/2+x,1/2+z
87 1/2-y,1/2+x,1/2-z
88 1/2+y,1/2-x,1/2-z
89 1/2-x,1/2-z,1/2+y
90 1/2+x,1/2-z,1/2-y
91 1/2+x,1/2+z,1/2+y
92 1/2-x,1/2+z,1/2-y
93 1/2-z,1/2-y,1/2+x
94 1/2-z,1/2+y,1/2-x
95 1/2+z,1/2-y,1/2-x
96 1/2+z,1/2+y,1/2+x
_cell_length_a                   30.8871(7)
_cell_length_b                   30.8871(7)
_cell_length_c                   30.8871(7)
_cell_angle_alpha                90
_cell_angle_beta                 90
_cell_angle_gamma                90
_cell_volume                     29466.7
loop_
_atom_site_label
_atom_site_type_symbol
_atom_site_fract_x
_atom_site_fract_y
_atom_site_fract_z
Cd1 Cd -0.2500 0.60389(2) 0.10389(2)
N1 N -0.2299(3) 0.6138(3) 0.0355(3)
C1 C -0.1804(3) 0.6106(5) 0.1804(3)
C2 C -0.2514 0.6049(4) 0.0000(5)
N2 N -0.1913(3) 0.6195(3) 0.1407(3)
C3 C -0.1942(4) 0.6323(5) 0.0224(10)
H1 H -0.1726 0.6435 0.0401
C4 C -0.3010 0.6116(5) 0.0000(9)
H2 H -0.3103 0.6273 0.0256
C5 C -0.3185 0.5650(15) 0.0000(11)
H3 H -0.3496 0.5656 0.0000
H4 H -0.3084 0.5501 0.0254
C6 C -0.1511(8) 0.6115(7) 0.1193(8)
H5 H -0.1469 0.6072 0.0898
C7 C -0.2137(5) 0.6266(13) 0.2137(5)
H6 H -0.2379 0.6422 0.2012
C8 C -0.2227(8) 0.5785(17) 0.2227(8)
H7 H -0.2449 0.5760 0.2444
H8 H -0.1968 0.5648 0.2329
H9 H -0.2322 0.5646 0.1966
Cd1WA Cd -0.2500 0.60389(2) -0.10389(2)
Cd1QB Cd -0.10389(2) 0.60389(2) 0.2500
N1WA N -0.2299(3) 0.6138(3) -0.0355(3)
N1OA N -0.2701(3) 0.5355(3) 0.1138(3)
N2QB N -0.1407(3) 0.6195(3) 0.1913(3)
N2OA N -0.3087(3) 0.6407(3) 0.1195(3)
C3WA C -0.1942(4) 0.6323(5) -0.0224(10)
H1WA H -0.1726 0.6435 -0.0401
H2WA H -0.3103 0.6273 -0.0256
H4WA H -0.3084 0.5501 -0.0254
C6QB C -0.1193(8) 0.6115(7) 0.1511(8)
H5QB H -0.0898 0.6072 0.1469
H6QB H -0.2012 0.6422 0.2379
O1 O 0.2500 0.2500 0.2500
C9? C -0.2827 0.5657(8) 0.0000(7)
H10? H -0.2782 0.5480 -0.0255
C10? C -0.3287 0.5850(10) 0.0000(17)
H11? H -0.3496 0.5620 0.0000
H12? H -0.3326 0.6026 -0.0254
C11? C -0.1999(8) 0.5691(8) 0.1999(8)
H13? H -0.1770 0.5520 0.2129
C12? C -0.2345(10) 0.579(3) 0.2345(10)
H14? H -0.2446 0.5528 0.2472
H15? H -0.2221 0.5972 0.2566
H16? H -0.2583 0.5942 0.2212
C13? C 0.1572(6) 0.3661(6) 0.3357(6)
H17? H 0.1778 0.3878 0.3323
loop_
_geom_bond_atom_site_label_1
_geom_bond_atom_site_label_2
_geom_bond_site_symmetry_1
_geom_bond_site_symmetry_2
Cd1 N1 1_555 1_555
N1 C2 1_555 1_555
C1 N2 1_555 1_555
C2 C4 1_555 1_555
N2 Cd1 1_555 1_555
C3 N1 1_555 1_555
H1 C3 1_555 1_555
C4 H2 1_555 1_555
C5 C4 1_555 1_555
H3 C5 1_555 1_555
H4 C5 1_555 1_555
C6 N2 1_555 1_555
H5 C6 1_555 1_555
C7 C1 1_555 1_555
H6 C7 1_555 1_555
C8 C7 1_555 1_555
H7 C8 1_555 1_555
H8 C8 1_555 1_555
H9 C8 1_555 1_555
Cd1WA N1WA 1_555 1_555
Cd1QB N2QB 1_555 1_555
N1WA C2 1_555 1_555
N1OA Cd1 1_555 1_555
N2QB C1 1_555 1_555
N2OA Cd1 1_555 1_555
C3WA C3 1_555 1_555
H1WA C3WA 1_555 1_555
H2WA C4 1_555 1_555
H4WA C5 1_555 1_555
C6QB C6 1_555 1_555
H5QB C6QB 1_555 1_555
H6QB C7 1_555 1_555
N1WA C3WA 1_555 1_555
N2QB C6QB 1_555 1_555

#END
