
#######################################################################
#
#                 Cambridge Crystallographic Data Centre
#                                CCDC 
#
#######################################################################
#
# If this CIF has been generated from an entry in the Cambridge 
# Structural Database, then it will include bibliographic, chemical, 
# crystal, experimental, refinement or atomic coordinate data resulting 
# from the CCDC's data processing and validation procedures.
#
#######################################################################

data_GUPFAZ
_symmetry_cell_setting           rhombohedral
_symmetry_space_group_name_H-M   'R -3 c'
_symmetry_Int_Tables_number      167
_space_group_name_Hall           '-R 3 2"c'
loop_
_symmetry_equiv_pos_site_id
_symmetry_equiv_pos_as_xyz
1 x,y,z
2 -y,x-y,z
3 -x+y,-x,z
4 y,x,1/2-z
5 x-y,-y,1/2-z
6 -x,-x+y,1/2-z
7 2/3+x,1/3+y,1/3+z
8 2/3-y,1/3+x-y,1/3+z
9 2/3-x+y,1/3-x,1/3+z
10 2/3+y,1/3+x,5/6-z
11 2/3+x-y,1/3-y,5/6-z
12 2/3-x,1/3-x+y,5/6-z
13 1/3+x,2/3+y,2/3+z
14 1/3-y,2/3+x-y,2/3+z
15 1/3-x+y,2/3-x,2/3+z
16 1/3+y,2/3+x,1/6-z
17 1/3+x-y,2/3-y,1/6-z
18 1/3-x,2/3-x+y,1/6-z
19 -x,-y,-z
20 y,-x+y,-z
21 x-y,x,-z
22 -y,-x,1/2+z
23 -x+y,y,1/2+z
24 x,x-y,1/2+z
25 1/3-x,2/3-y,2/3-z
26 1/3+y,2/3-x+y,2/3-z
27 1/3+x-y,2/3+x,2/3-z
28 1/3-y,2/3-x,1/6+z
29 1/3-x+y,2/3+y,1/6+z
30 1/3+x,2/3+x-y,1/6+z
31 2/3-x,1/3-y,1/3-z
32 2/3+y,1/3-x+y,1/3-z
33 2/3+x-y,1/3+x,1/3-z
34 2/3-y,1/3-x,5/6+z
35 2/3-x+y,1/3+y,5/6+z
36 2/3+x,1/3+x-y,5/6+z
_cell_length_a                   37.4151(18)
_cell_length_b                   37.4151(18)
_cell_length_c                   22.9120(13)
_cell_angle_alpha                90
_cell_angle_beta                 90
_cell_angle_gamma                120
_cell_volume                     27777.1
loop_
_atom_site_label
_atom_site_type_symbol
_atom_site_fract_x
_atom_site_fract_y
_atom_site_fract_z
Zn1 Zn 0.10708(3) -0.07144(3) -0.03587(4)
Zn2 Zn 0.11889(4) -0.3333 -0.0833
Zn3 Zn 0.13112(4) -0.20222(4) 0.0833
N1 N 0.1275(2) -0.0198(2) 0.0099(3)
N2 N 0.1522(2) 0.0458(2) 0.0379(3)
N3 N 0.1500(2) -0.3909(2) 0.0483(3)
N4 N 0.1371(2) -0.3627(2) -0.0294(3)
N5 N 0.1057(2) -0.2963(2) -0.0372(3)
N6 N 0.1113(2) -0.2482(2) 0.0260(3)
N7 N 0.1416(2) -0.1488(2) 0.0493(3)
N8 N 0.1311(2) -0.1014(2) 0.0061(3)
C1 C 0.0805(5) 0.0319(5) -0.1372(7)
H1 H 0.0523 0.0247 -0.1433
H2 H 0.0881 0.0179 -0.1654
H3 H 0.0980 0.0612 -0.1414
C2 C 0.0855(4) 0.0187(4) -0.0742(5)
H4 H 0.0777 0.0327 -0.0455
H5 H 0.0674 -0.0109 -0.0694
C3 C 0.1302(3) 0.0298(3) -0.0647(4)
H6 H 0.1377 0.0157 -0.0934
H7 H 0.1481 0.0593 -0.0702
C4 C 0.1366(2) 0.0183(3) -0.0050(4)
C5 C 0.1376(3) -0.0158(3) 0.0686(4)
H8 H 0.1343 -0.0372 0.0928
C6 C 0.1532(3) 0.0240(3) 0.0855(4)
H9 H 0.1627 0.0346 0.1226
C7 C 0.0244(5) -0.3946(6) 0.0880(8)
H10 H -0.0035 -0.4160 0.0809
H11 H 0.0273 -0.3683 0.0787
H12 H 0.0310 -0.3950 0.1284
C8 C 0.0542(4) -0.4021(4) 0.0492(6)
H13 H 0.0512 -0.4288 0.0582
H14 H 0.0476 -0.4019 0.0084
C9 C 0.0983(3) -0.3684(3) 0.0608(4)
H15 H 0.1011 -0.3419 0.0512
H16 H 0.1043 -0.3682 0.1020
C10 C 0.1291(3) -0.3741(3) 0.0259(4)
C11 C 0.1738(3) -0.3911(3) 0.0023(5)
H17 H 0.1922 -0.4010 0.0034
C12 C 0.1655(3) -0.3742(3) -0.0447(4)
H18 H 0.1772 -0.3709 -0.0815
C13 C 0.2422(4) -0.1856(5) -0.0562(7)
H19 H 0.2541 -0.1624 -0.0821
H20 H 0.2480 -0.2063 -0.0704
H21 H 0.2538 -0.1770 -0.0179
C14 C 0.1948(4) -0.2038(4) -0.0533(6)
H22 H 0.1886 -0.1831 -0.0390
H23 H 0.1828 -0.2124 -0.0919
C15 C 0.1767(3) -0.2410(3) -0.0119(4)
H24 H 0.1845 -0.2607 -0.0256
H25 H 0.1886 -0.2318 0.0266
C16 C 0.1305(3) -0.2624(3) -0.0071(4)
C17 C 0.0666(3) -0.3049(3) -0.0220(4)
H26 H 0.0420 -0.3271 -0.0355
C18 C 0.0699(3) -0.2756(3) 0.0158(4)
H27 H 0.0480 -0.2741 0.0322
C19 C 0.0483(6) -0.2179(5) -0.1046(7)
H28 H 0.0531 -0.2231 -0.1440
H29 H 0.0271 -0.2105 -0.1041
H30 H 0.0397 -0.2423 -0.0815
C20 C 0.0889(4) -0.1818(4) -0.0787(5)
H31 H 0.1106 -0.1887 -0.0797
H32 H 0.0977 -0.1569 -0.1016
C21 C 0.0803(3) -0.1747(3) -0.0154(4)
H33 H 0.0588 -0.1675 -0.0152
H34 H 0.0704 -0.2001 0.0064
C22 C 0.1184(3) -0.1407(3) 0.0142(4)
C23 C 0.1722(3) -0.1107(4) 0.0659(4)
H35 H 0.1935 -0.1057 0.0915
C24 C 0.1669(3) -0.0814(3) 0.0396(4)
H36 H 0.1840 -0.0530 0.0431
Zn1O Zn 0.26189(3) -0.22625(3) 0.20254(4)
Zn1T Zn 0.17852(4) 0.10708(3) 0.03587(4)
Zn1S Zn -0.07144(3) -0.17852(4) 0.03587(4)
Zn1BA Zn 0.15481(4) -0.40477(3) 0.13080(4)
Zn1U Zn 0.07144(3) -0.10708(3) 0.46413(4)
Zn2G Zn -0.0000 -0.21448(4) 0.2500
N1S N -0.0198(2) -0.1473(3) -0.0099(3)
N2S N 0.0458(2) -0.1064(3) -0.0379(3)
N3HA N 0.1258(3) -0.0576(2) -0.1184(3)
N3G N 0.0576(2) -0.1258(3) 0.3816(3)
N4J N 0.1665(3) -0.3040(2) -0.1373(3)
N4O N -0.0294(2) -0.1962(2) 0.1961(3)
N4G N 0.0294(2) -0.1669(3) 0.3039(3)
N5O N 0.0370(2) -0.2276(2) 0.2039(3)
N5J N 0.0687(3) -0.3704(2) -0.1295(3)
N5G N -0.0370(2) -0.2647(3) 0.2961(3)
N6O N 0.0851(2) -0.2220(2) 0.1407(3)
N7O N 0.1845(2) -0.1917(2) 0.1174(3)
N8O N 0.2319(2) -0.2022(2) 0.1606(3)
C1S C 0.0319(5) -0.0486(7) 0.1372(7)
H1S H 0.0247 -0.0276 0.1433
H2S H 0.0179 -0.0702 0.1654
H3S H 0.0612 -0.0368 0.1414
C2S C 0.0187(4) -0.0668(6) 0.0742(5)
H4S H 0.0327 -0.0450 0.0455
H5S H -0.0109 -0.0783 0.0694
C3S C 0.0298(3) -0.1004(4) 0.0647(4)
H6S H 0.0157 -0.1220 0.0934
H7S H 0.0593 -0.0888 0.0702
C4S C 0.0183(3) -0.1183(4) 0.0050(4)
C5S C -0.0158(3) -0.1534(4) -0.0686(4)
H8S H -0.0372 -0.1715 -0.0928
C6S C 0.0240(3) -0.1292(4) -0.0855(4)
H9S H 0.0346 -0.1281 -0.1226
C7G C 0.0613(6) -0.2477(8) 0.4213(8)
H10G H 0.0827 -0.2542 0.4142
H11G H 0.0350 -0.2711 0.4120
H12G H 0.0617 -0.2407 0.4617
C8G C 0.0688(4) -0.2104(6) 0.3825(6)
H13G H 0.0955 -0.1867 0.3915
H14G H 0.0686 -0.2172 0.3417
C9G C 0.0351(3) -0.2000(4) 0.3941(4)
H15G H 0.0086 -0.2237 0.3845
H16G H 0.0349 -0.1942 0.4353
C10G C 0.0408(3) -0.1635(4) 0.3592(4)
C11G C 0.0578(3) -0.1018(4) 0.3356(5)
H17G H 0.0677 -0.0735 0.3367
C12G C 0.0409(3) -0.1270(4) 0.2886(4)
H18G H 0.0376 -0.1186 0.2518
C13O C 0.1477(5) -0.0911(4) 0.2229(7)
H19O H 0.1709 -0.0792 0.2488
H20O H 0.1270 -0.0853 0.2371
H21O H 0.1563 -0.0795 0.1846
C14O C 0.1295(4) -0.1385(4) 0.2200(6)
H22O H 0.1502 -0.1447 0.2057
H23O H 0.1209 -0.1505 0.2586
C15O C 0.0923(3) -0.1566(3) 0.1786(4)
H24O H 0.0726 -0.1488 0.1923
H25O H 0.1015 -0.1447 0.1401
C16O C 0.0709(3) -0.2028(3) 0.1738(4)
C17O C 0.0284(3) -0.2667(3) 0.1887(4)
H26O H 0.0062 -0.2913 0.2022
C18O C 0.0577(3) -0.2634(3) 0.1509(4)
H27O H 0.0592 -0.2853 0.1345
C19O C 0.1154(5) -0.2850(6) 0.2713(7)
H28O H 0.1102 -0.2802 0.3107
H29O H 0.1228 -0.3062 0.2708
H30O H 0.0910 -0.2936 0.2482
C20O C 0.1515(4) -0.2444(4) 0.2454(5)
H31O H 0.1446 -0.2227 0.2464
H32O H 0.1764 -0.2356 0.2683
C21O C 0.1586(3) -0.2530(3) 0.1821(4)
H33O H 0.1658 -0.2745 0.1819
H34O H 0.1332 -0.2629 0.1603
C22O C 0.1926(3) -0.2149(3) 0.1525(4)
C23O C 0.2226(4) -0.1611(3) 0.1008(4)
H35O H 0.2276 -0.1398 0.0752
C24O C 0.2519(3) -0.1664(3) 0.1271(4)
H36O H 0.2803 -0.1493 0.1236
loop_
_geom_bond_atom_site_label_1
_geom_bond_atom_site_label_2
_geom_bond_site_symmetry_1
_geom_bond_site_symmetry_2
Zn1 N1 1_555 1_555
Zn2 N4 1_555 1_555
Zn3 N6 1_555 1_555
N1 C4 1_555 1_555
N2 C4 1_555 1_555
N3 C10 1_555 1_555
N4 C10 1_555 1_555
N5 Zn2 1_555 1_555
N6 C16 1_555 1_555
N7 Zn3 1_555 1_555
N8 Zn1 1_555 1_555
C1 H1 1_555 1_555
H2 C1 1_555 1_555
H3 C1 1_555 1_555
C2 C1 1_555 1_555
H4 C2 1_555 1_555
H5 C2 1_555 1_555
C3 C2 1_555 1_555
H6 C3 1_555 1_555
H7 C3 1_555 1_555
C4 C3 1_555 1_555
C5 N1 1_555 1_555
H8 C5 1_555 1_555
C6 N2 1_555 1_555
H9 C6 1_555 1_555
C7 H10 1_555 1_555
H11 C7 1_555 1_555
H12 C7 1_555 1_555
C8 C7 1_555 1_555
H13 C8 1_555 1_555
H14 C8 1_555 1_555
C9 C8 1_555 1_555
H15 C9 1_555 1_555
H16 C9 1_555 1_555
C10 C9 1_555 1_555
C11 N3 1_555 1_555
H17 C11 1_555 1_555
C12 N4 1_555 1_555
H18 C12 1_555 1_555
C13 H19 1_555 1_555
H20 C13 1_555 1_555
H21 C13 1_555 1_555
C14 C13 1_555 1_555
H22 C14 1_555 1_555
H23 C14 1_555 1_555
C15 C14 1_555 1_555
H24 C15 1_555 1_555
H25 C15 1_555 1_555
C16 N5 1_555 1_555
C17 N5 1_555 1_555
H26 C17 1_555 1_555
C18 N6 1_555 1_555
H27 C18 1_555 1_555
C19 H28 1_555 1_555
H29 C19 1_555 1_555
H30 C19 1_555 1_555
C20 C19 1_555 1_555
H31 C20 1_555 1_555
H32 C20 1_555 1_555
C21 C20 1_555 1_555
H33 C21 1_555 1_555
H34 C21 1_555 1_555
C22 N7 1_555 1_555
C23 N7 1_555 1_555
H35 C23 1_555 1_555
C24 N8 1_555 1_555
H36 C24 1_555 1_555
Zn1O N8O 1_555 1_555
Zn1T N2 1_555 1_555
Zn1S N1S 1_555 1_555
Zn1BA N3 1_555 1_555
Zn1U N3G 1_555 1_555
Zn2G N4O 1_555 1_555
N1S C4S 1_555 1_555
N2S Zn1 1_555 1_555
N3HA Zn1 1_555 1_555
N3G C10G 1_555 1_555
N4J Zn2 1_555 1_555
N4G Zn2G 1_555 1_555
N5O Zn2G 1_555 1_555
N5J Zn2 1_555 1_555
N5G Zn2G 1_555 1_555
N6O Zn3 1_555 1_555
N7O Zn3 1_555 1_555
N8O C22O 1_555 1_555
C1S H1S 1_555 1_555
H2S C1S 1_555 1_555
H3S C1S 1_555 1_555
C2S C1S 1_555 1_555
H4S C2S 1_555 1_555
H5S C2S 1_555 1_555
C3S C2S 1_555 1_555
H6S C3S 1_555 1_555
H7S C3S 1_555 1_555
C4S N2S 1_555 1_555
C5S N1S 1_555 1_555
H8S C5S 1_555 1_555
C6S N2S 1_555 1_555
H9S C6S 1_555 1_555
C7G H10G 1_555 1_555
H11G C7G 1_555 1_555
H12G C7G 1_555 1_555
C8G C7G 1_555 1_555
H13G C8G 1_555 1_555
H14G C8G 1_555 1_555
C9G C8G 1_555 1_555
H15G C9G 1_555 1_555
H16G C9G 1_555 1_555
C10G N4G 1_555 1_555
C11G N3G 1_555 1_555
H17G C11G 1_555 1_555
C12G N4G 1_555 1_555
H18G C12G 1_555 1_555
C13O H19O 1_555 1_555
H20O C13O 1_555 1_555
H21O C13O 1_555 1_555
C14O C13O 1_555 1_555
H22O C14O 1_555 1_555
H23O C14O 1_555 1_555
C15O C14O 1_555 1_555
H24O C15O 1_555 1_555
H25O C15O 1_555 1_555
C16O N5O 1_555 1_555
C17O N5O 1_555 1_555
H26O C17O 1_555 1_555
C18O N6O 1_555 1_555
H27O C18O 1_555 1_555
C19O H28O 1_555 1_555
H29O C19O 1_555 1_555
H30O C19O 1_555 1_555
C20O C19O 1_555 1_555
H31O C20O 1_555 1_555
H32O C20O 1_555 1_555
C21O C20O 1_555 1_555
H33O C21O 1_555 1_555
H34O C21O 1_555 1_555
C22O N7O 1_555 1_555
C23O N7O 1_555 1_555
H35O C23O 1_555 1_555
C24O N8O 1_555 1_555
H36O C24O 1_555 1_555
N8 C22 1_555 1_555
C5 C6 1_555 1_555
C11 C12 1_555 1_555
C15 C16 1_555 1_555
C17 C18 1_555 1_555
C21 C22 1_555 1_555
C23 C24 1_555 1_555
N6O C16O 1_555 1_555
C3S C4S 1_555 1_555
C5S C6S 1_555 1_555
C9G C10G 1_555 1_555
C11G C12G 1_555 1_555
C15O C16O 1_555 1_555
C17O C18O 1_555 1_555
C21O C22O 1_555 1_555
C23O C24O 1_555 1_555

#END
