
#######################################################################
#
#                 Cambridge Crystallographic Data Centre
#                                CCDC 
#
#######################################################################
#
# If this CIF has been generated from an entry in the Cambridge 
# Structural Database, then it will include bibliographic, chemical, 
# crystal, experimental, refinement or atomic coordinate data resulting 
# from the CCDC's data processing and validation procedures.
#
#######################################################################

data_GUPJEG
_symmetry_cell_setting           monoclinic
_symmetry_space_group_name_H-M   'C 2/c'
_symmetry_Int_Tables_number      15
_space_group_name_Hall           '-C 2yn'
loop_
_symmetry_equiv_pos_site_id
_symmetry_equiv_pos_as_xyz
1 x,y,z
2 1/2+x,1/2+y,z
3 -x,y,1/2-z
4 1/2-x,1/2+y,1/2-z
5 -x,-y,-z
6 1/2-x,1/2-y,-z
7 x,-y,1/2+z
8 1/2+x,1/2-y,1/2+z
_cell_length_a                   11.959(2)
_cell_length_b                   14.626(3)
_cell_length_c                   9.247(2)
_cell_angle_alpha                90
_cell_angle_beta                 127.40(3)
_cell_angle_gamma                90
_cell_volume                     1284.9
loop_
_atom_site_label
_atom_site_type_symbol
_atom_site_fract_x
_atom_site_fract_y
_atom_site_fract_z
C1 C 0.3335(3) 0.41151(18) 0.3315(4)
C2 C 0.2563(3) 0.3223(2) 0.2946(4)
C3 C 0.1408(3) 0.32264(19) 0.2958(4)
H1 H 0.1137 0.3772 0.3231
C4 C 0.2188(3) 0.1623(2) 0.2324(4)
H2 H 0.2482 0.1061 0.2137
C5 C 0.0652(3) 0.24231(19) 0.2568(4)
C6 C 0.2942(3) 0.2406(2) 0.2589(4)
H3 H 0.3706 0.2384 0.2527
N1 N 0.1060(2) 0.16169(16) 0.2318(3)
O1 O 0.3647(2) 0.42981(15) 0.2268(3)
O2 O 0.3544(2) 0.46223(13) 0.4540(3)
Mn1 Mn 0.0000 0.03461(4) 0.2500
C5B C -0.0652(3) 0.24231(19) 0.2432(4)
C3B C -0.1408(3) 0.32264(19) 0.2042(4)
C2B C -0.2563(3) 0.3223(2) 0.2054(4)
C1B C -0.3335(3) 0.41151(18) 0.1685(4)
O1B O -0.3647(2) 0.42981(15) 0.2732(3)
O2B O -0.3544(2) 0.46223(13) 0.0460(3)
C6B C -0.2942(3) 0.2406(2) 0.2411(4)
C4B C -0.2188(3) 0.1623(2) 0.2676(4)
H2B H -0.2482 0.1061 0.2863
N1B N -0.1060(2) 0.16169(16) 0.2682(3)
H3B H -0.3706 0.2384 0.2473
H1B H -0.1137 0.3772 0.1769
Mn1A Mn 0.5000 0.53461(4) 0.2500
Mn1G Mn 0.5000 0.46539(4) 0.7500
O1A O -0.1353(2) -0.07019(15) 0.2268(3)
O1C O 0.1353(2) -0.07019(15) 0.2732(3)
O2G O -0.1456(2) 0.03777(13) -0.0460(3)
O2E O 0.1456(2) 0.03777(13) 0.5460(3)
Mn1A_2 Mn -0.5000 0.53461(4) 0.2500
Mn1G_2 Mn -0.5000 0.46539(4) -0.2500
O3 O 0.9369(4) 0.4677(4) 0.5728(6)
loop_
_geom_bond_atom_site_label_1
_geom_bond_atom_site_label_2
_geom_bond_site_symmetry_1
_geom_bond_site_symmetry_2
C1 C2 1_555 1_555
C2 C3 1_555 1_555
C3 H1 1_555 1_555
C4 H2 1_555 1_555
C5 C3 1_555 1_555
C6 C2 1_555 1_555
H3 C6 1_555 1_555
N1 C4 1_555 1_555
O1 C1 1_555 1_555
O2 C1 1_555 1_555
Mn1 N1 1_555 1_555
C5B C5 1_555 1_555
C3B C5B 1_555 1_555
C2B C3B 1_555 1_555
C1B C2B 1_555 1_555
O1B C1B 1_555 1_555
O2B C1B 1_555 1_555
C6B C2B 1_555 1_555
C4B C6B 1_555 1_555
H2B C4B 1_555 1_555
N1B Mn1 1_555 1_555
H3B C6B 1_555 1_555
H1B C3B 1_555 1_555
Mn1A O1 1_555 1_555
Mn1G O2 1_555 1_555
O1A Mn1 1_555 1_555
O1C Mn1 1_555 1_555
O2G Mn1 1_555 1_555
O2E Mn1 1_555 1_555
Mn1A_2 O1B 1_555 1_555
Mn1G_2 O2B 1_555 1_555
C4 C6 1_555 1_555
C5 N1 1_555 1_555
C5B N1B 1_555 1_555
C4B N1B 1_555 1_555

#END
