
#######################################################################
#
#                 Cambridge Crystallographic Data Centre
#                                CCDC 
#
#######################################################################
#
# If this CIF has been generated from an entry in the Cambridge 
# Structural Database, then it will include bibliographic, chemical, 
# crystal, experimental, refinement or atomic coordinate data resulting 
# from the CCDC's data processing and validation procedures.
#
#######################################################################

data_GUXJUF
_symmetry_cell_setting           monoclinic
_symmetry_space_group_name_H-M   'P 21/n'
_symmetry_Int_Tables_number      14
_space_group_name_Hall           '-P 2yn'
loop_
_symmetry_equiv_pos_site_id
_symmetry_equiv_pos_as_xyz
1 x,y,z
2 1/2-x,1/2+y,1/2-z
3 -x,-y,-z
4 1/2+x,1/2-y,1/2+z
_cell_length_a                   32.653(2)
_cell_length_b                   13.8474(13)
_cell_length_c                   18.5343(15)
_cell_angle_alpha                90
_cell_angle_beta                 101.242(3)
_cell_angle_gamma                90
_cell_volume                     8219.65
loop_
_atom_site_label
_atom_site_type_symbol
_atom_site_fract_x
_atom_site_fract_y
_atom_site_fract_z
Cu1 Cu 0.5000 1.0000 0.5000
O1 O 0.49015(12) 0.8653(3) 0.5036(2)
O2 O 0.45733(11) 1.0283(3) 0.5526(2)
C1 C 0.40099(17) 1.0186(4) 0.6126(3)
H1 H 0.4014 1.0874 0.6031
H2 H 0.4067 1.0074 0.6653
H3 H 0.3737 0.9927 0.5912
C2 C 0.43378(15) 0.9693(4) 0.5790(3)
C3 C 0.43654(15) 0.8675(4) 0.5740(3)
C4 C 0.46455(16) 0.8207(4) 0.5368(3)
C5 C 0.4671(2) 0.7133(5) 0.5330(5)
H4 H 0.4505 0.6909 0.4869
H5 H 0.4565 0.6851 0.5737
H6 H 0.4959 0.6940 0.5361
C6 C 0.40590(15) 0.8073(4) 0.6056(3)
C7 C 0.37407(17) 0.7579(5) 0.5598(3)
H7 H 0.3731 0.7569 0.5088
C8 C 0.40701(16) 0.8021(4) 0.6801(3)
H8 H 0.4289 0.8315 0.7134
C9 C 0.37552(16) 0.7531(4) 0.7057(3)
H9 H 0.3766 0.7497 0.7567
C10 C 0.34395(18) 0.7103(5) 0.5883(4)
H10 H 0.3229 0.6767 0.5561
N1 N 0.34342(13) 0.7102(3) 0.6599(2)
Cu2 Cu 0.291912(18) 0.66315(4) 0.69098(4)
O3 O 0.30609(11) 0.5281(2) 0.6766(2)
C11 C 0.28175(15) 0.4655(3) 0.6960(3)
O4 O 0.28421(12) 0.3774(2) 0.6887(2)
C12 C 0.24802(14) 0.5064(3) 0.7323(2)
N2 N 0.24954(12) 0.6023(3) 0.7417(2)
C13 C 0.22223(16) 0.6455(3) 0.7754(3)
H11 H 0.2230 0.7129 0.7818
C14 C 0.19247(17) 0.5905(4) 0.8011(3)
H12 H 0.1739 0.6218 0.8263
N3 N 0.18920(14) 0.4959(3) 0.7915(2)
C15 C 0.21688(14) 0.4532(3) 0.7568(2)
C16 C 0.20993(16) 0.3464(3) 0.7457(3)
O5 O 0.22785(11) 0.2947(2) 0.7988(2)
O6 O 0.18545(13) 0.3181(3) 0.6907(2)
O7 O 0.24941(11) 0.6818(2) 0.57881(19)
O8 O 0.20538(10) 0.6952(2) 0.47222(18)
C17 C 0.22852(14) 0.6465(3) 0.5224(3)
C18 C 0.22689(13) 0.5385(3) 0.5150(2)
C19 C 0.25543(13) 0.4829(3) 0.4860(2)
N4 N 0.19599(13) 0.4957(3) 0.5427(2)
C20 C 0.19620(15) 0.4006(3) 0.5454(3)
H13 H 0.1760 0.3697 0.5671
C21 C 0.22458(15) 0.3436(3) 0.5181(3)
H14 H 0.2232 0.2759 0.5202
N5 N 0.25388(11) 0.3870(2) 0.4888(2)
C22 C 0.28964(14) 0.5226(3) 0.4500(2)
O9 O 0.29315(10) 0.6108(2) 0.44372(18)
O10 O 0.31237(11) 0.4594(2) 0.4270(2)
Cu3 Cu 0.296047(18) 0.32508(4) 0.43741(4)
N6 N 0.34667(12) 0.2794(3) 0.4022(2)
C23 C 0.34647(18) 0.2781(4) 0.3306(3)
H15 H 0.3243 0.3086 0.2987
C24 C 0.37975(15) 0.2404(4) 0.4476(3)
H16 H 0.3813 0.2453 0.4986
C25 C 0.41169(16) 0.1934(4) 0.4219(3)
H17 H 0.4344 0.1668 0.4550
C26 C 0.37707(16) 0.2343(4) 0.3008(3)
H18 H 0.3761 0.2368 0.2498
C27 C 0.40937(15) 0.1863(4) 0.3464(3)
C28 C 0.4692(2) 0.2823(5) 0.2711(5)
H19 H 0.4968 0.3033 0.2657
H20 H 0.4623 0.3116 0.3148
H21 H 0.4488 0.3018 0.2282
C29 C 0.46873(17) 0.1745(4) 0.2783(4)
C30 C 0.44072(14) 0.1276(4) 0.3162(3)
C31 C 0.43916(15) 0.0264(4) 0.3229(3)
C32 C 0.40638(18) -0.0241(4) 0.3565(4)
H22 H 0.4090 -0.0934 0.3514
H23 H 0.3788 -0.0037 0.3315
H24 H 0.4102 -0.0075 0.4083
O11 O 0.46459(11) -0.0322(3) 0.3003(2)
O12 O 0.49503(11) 0.1304(3) 0.2475(2)
Cu4 Cu 0.506691(19) -0.00351(4) 0.24626(4)
Cu5 Cu 0.198791(19) 0.82895(4) 0.50730(4)
O13 O 0.19542(12) -0.0411(2) 0.5486(2)
O14 O 0.22296(12) 0.1061(2) 0.5517(2)
C33 C 0.22202(15) 0.0200(3) 0.5353(3)
C34 C 0.25446(14) -0.0212(3) 0.4962(3)
N7 N 0.25005(12) -0.1149(3) 0.4796(2)
C35 C 0.27740(15) -0.1569(3) 0.4454(3)
H25 H 0.2747 -0.2228 0.4335
C36 C 0.31010(15) -0.1040(3) 0.4272(3)
H26 H 0.3294 -0.1355 0.4037
N8 N 0.31499(13) -0.0106(3) 0.4418(2)
C37 C 0.28693(14) 0.0318(3) 0.4771(2)
C38 C 0.29489(15) 0.1378(3) 0.4929(3)
O15 O 0.27589(11) 0.1930(2) 0.4439(2)
O16 O 0.32088(13) 0.1615(3) 0.5480(2)
N9 N 0.15499(12) 0.7831(3) 0.5595(2)
C39 C 0.16062(16) 0.7885(4) 0.6332(3)
H27 H 0.1838 0.8224 0.6594
C40 C 0.12130(15) 0.7386(4) 0.5232(3)
H28 H 0.1164 0.7375 0.4715
C41 C 0.13306(16) 0.7451(4) 0.6716(3)
H29 H 0.1374 0.7510 0.7230
C42 C 0.09272(17) 0.6930(4) 0.5596(3)
H30 H 0.0690 0.6624 0.5322
C43 C 0.09932(15) 0.6932(4) 0.6345(3)
C44 C 0.0442(2) 0.7898(4) 0.7191(4)
H31 H 0.0179 0.8103 0.7310
H32 H 0.0473 0.8186 0.6728
H33 H 0.0670 0.8103 0.7577
C45 C 0.04464(17) 0.6820(4) 0.7125(3)
C46 C 0.07106(14) 0.6346(4) 0.6725(3)
C47 C 0.07309(14) 0.5329(4) 0.6671(3)
C48 C 0.10462(17) 0.4819(4) 0.6312(3)
H34 H 0.1146 0.4247 0.6593
H35 H 0.1279 0.5249 0.6296
H36 H 0.0916 0.4634 0.5815
O17 O 0.01883(12) 0.6382(3) 0.7459(2)
O18 O 0.04908(11) 0.4744(3) 0.6933(2)
O19 O 0.25004(12) 0.3158(2) 0.3282(2)
C49 C 0.22556(14) 0.3555(3) 0.2787(3)
O20 O 0.19928(11) 0.3116(2) 0.23090(19)
O21 O 0.28658(11) 0.3963(2) 0.19632(19)
O22 O 0.31263(12) 0.5451(2) 0.1982(2)
C50 C 0.28690(14) 0.4827(3) 0.2126(3)
C51 C 0.25474(14) 0.5211(3) 0.2535(2)
C52 C 0.22461(14) 0.4645(3) 0.2777(2)
N10 N 0.25629(12) 0.6162(2) 0.2652(2)
N11 N 0.19508(12) 0.5054(3) 0.3101(2)
C53 C 0.22751(15) 0.6569(3) 0.2972(3)
H37 H 0.2278 0.7241 0.3046
C54 C 0.19691(14) 0.6004(3) 0.3200(3)
H38 H 0.1770 0.6305 0.3429
Cu6 Cu 0.192711(18) 0.17558(4) 0.26244(4)
N12 N 0.14880(13) 0.2196(3) 0.3149(2)
C55 C 0.15305(16) 0.2129(4) 0.3871(3)
H39 H 0.1756 0.1775 0.4135
C56 C 0.12548(17) 0.2562(4) 0.4253(3)
H40 H 0.1296 0.2499 0.4767
C57 C 0.11525(17) 0.2650(4) 0.2777(3)
H41 H 0.1110 0.2671 0.2261
C58 C 0.08627(18) 0.3095(4) 0.3129(3)
H42 H 0.0628 0.3402 0.2850
C59 C 0.09185(15) 0.3086(4) 0.3876(3)
C60 C 0.0333(2) 0.2134(5) 0.4658(5)
H43 H 0.0549 0.1901 0.5056
H44 H 0.0375 0.1860 0.4197
H45 H 0.0061 0.1941 0.4747
C61 C 0.03531(17) 0.3211(4) 0.4621(4)
C62 C 0.06356(16) 0.3679(4) 0.4246(3)
C63 C 0.06656(15) 0.4696(4) 0.4211(3)
C64 C 0.09979(18) 0.5188(4) 0.3885(3)
H46 H 0.0905 0.5243 0.3357
H47 H 0.1253 0.4811 0.3991
H48 H 0.1050 0.5827 0.4098
O23 O 0.00959(12) 0.3648(3) 0.4947(2)
O24 O 0.04267(11) 0.5281(3) 0.4478(2)
Cu7 Cu 0.0000 0.5000 0.5000
O25 O 0.15056(12) 0.1550(3) 0.1495(2)
O26 O 0.15625(12) 0.8534(3) 0.3950(2)
O1B O 0.50985(12) 1.1347(3) 0.4964(2)
O2B O 0.54267(11) 0.9717(3) 0.4474(2)
C1B C 0.59901(17) 0.9814(4) 0.3874(3)
H1B H 0.5986 0.9126 0.3969
H2B H 0.5933 0.9926 0.3347
H3B H 0.6263 1.0073 0.4088
C2B C 0.56622(15) 1.0307(4) 0.4210(3)
C3B C 0.56346(15) 1.1325(4) 0.4260(3)
C4B C 0.53545(16) 1.1793(4) 0.4632(3)
C5B C 0.5329(2) 1.2867(5) 0.4670(5)
H4B H 0.5495 1.3091 0.5131
H5B H 0.5435 1.3149 0.4263
H6B H 0.5041 1.3060 0.4639
C6B C 0.59410(15) 1.1927(4) 0.3944(3)
C7B C 0.62593(17) 1.2421(5) 0.4402(3)
H7B H 0.6269 1.2431 0.4912
C8B C 0.59299(16) 1.1979(4) 0.3199(3)
H8B H 0.5711 1.1685 0.2866
C9B C 0.62448(16) 1.2469(4) 0.2943(3)
H9B H 0.6234 1.2503 0.2433
C10B C 0.65605(18) 1.2897(5) 0.4117(4)
H10B H 0.6771 1.3233 0.4439
N1B N 0.65658(13) 1.2898(3) 0.3401(2)
Cu2B Cu 0.708088(18) 1.33685(4) 0.30902(4)
Cu2A Cu 0.208088(18) 0.16315(4) 0.80902(4)
Cu2A_2 Cu 0.208088(18) 1.16315(4) 0.80902(4)
O3A O 0.19391(11) 1.0281(2) 0.8234(2)
O3B O 0.69391(11) 1.4719(2) 0.3234(2)
C11A C 0.21825(15) 0.9655(3) 0.8040(3)
O4A O 0.21579(12) 0.8774(2) 0.8113(2)
C12A C 0.25198(14) 1.0064(3) 0.7677(2)
N2A N 0.25046(12) 1.1023(3) 0.7583(2)
N2B N 0.75046(12) 1.3977(3) 0.2583(2)
C13A C 0.27777(16) 1.1455(3) 0.7246(3)
H11A H 0.2770 1.2129 0.7182
C14A C 0.30753(17) 1.0905(4) 0.6989(3)
H12A H 0.3261 1.1218 0.6737
N3A N 0.31080(14) 0.9959(3) 0.7085(2)
C15A C 0.28312(14) 0.9532(3) 0.7432(2)
C16A C 0.29007(16) 0.8464(3) 0.7543(3)
O5A O 0.27215(11) 0.7947(2) 0.7012(2)
O5C O 0.72785(11) 1.2053(2) 0.2988(2)
O6A O 0.31455(13) 0.8181(3) 0.8093(2)
O7B O 0.75059(11) 1.3182(2) 0.42119(19)
O8B O 0.79462(10) 1.3048(2) 0.52778(18)
C17B C 0.77148(14) 1.3535(3) 0.4776(3)
C18B C 0.77311(13) 1.4615(3) 0.4850(2)
C19B C 0.74457(13) 1.5171(3) 0.5140(2)
N4B N 0.80401(13) 1.5043(3) 0.4573(2)
C20B C 0.80380(15) 1.5994(3) 0.4546(3)
H13B H 0.8240 1.6303 0.4329
C21B C 0.77542(15) 1.6564(3) 0.4819(3)
H14B H 0.7768 1.7241 0.4798
N5B N 0.74612(11) 1.6130(2) 0.5112(2)
C22B C 0.71036(14) 1.4774(3) 0.5500(2)
O9B O 0.70685(10) 1.3892(2) 0.55628(18)
O10B O 0.68763(11) 1.5406(2) 0.5730(2)
Cu3B Cu 0.703953(18) 1.67492(4) 0.56259(4)
Cu3_2 Cu 0.296047(18) 1.32508(4) 0.43741(4)
N6B N 0.65333(12) 1.7206(3) 0.5978(2)
C23B C 0.65353(18) 1.7219(4) 0.6694(3)
H15B H 0.6757 1.6914 0.7013
C24B C 0.62025(15) 1.7596(4) 0.5524(3)
H16B H 0.6187 1.7547 0.5014
C25B C 0.58831(16) 1.8066(4) 0.5781(3)
H17B H 0.5656 1.8332 0.5450
C26B C 0.62293(16) 1.7657(4) 0.6992(3)
H18B H 0.6239 1.7632 0.7502
C27B C 0.59063(15) 1.8137(4) 0.6536(3)
C28B C 0.5308(2) 1.7177(5) 0.7289(5)
H19B H 0.5032 1.6967 0.7343
H20B H 0.5377 1.6884 0.6852
H21B H 0.5512 1.6982 0.7718
C29B C 0.53127(17) 1.8255(4) 0.7217(4)
C30B C 0.55928(14) 1.8724(4) 0.6838(3)
C31B C 0.56084(15) 1.9736(4) 0.6771(3)
C32B C 0.59362(18) 2.0241(4) 0.6435(4)
H22B H 0.5910 2.0934 0.6486
H23B H 0.6212 2.0037 0.6685
H24B H 0.5898 2.0075 0.5917
O11B O 0.53541(11) 2.0322(3) 0.6997(2)
O12B O 0.50497(11) 1.8696(3) 0.7525(2)
Cu4B Cu 0.493309(19) 2.00351(4) 0.75374(4)
Cu4C Cu 0.006691(19) 0.50351(4) 0.74626(4)
Cu4A Cu 0.993309(19) 1.49649(4) 0.25374(4)
Cu5B Cu 0.801209(19) 1.17105(4) 0.49270(4)
Cu5_2 Cu 0.198791(19) -0.17105(4) 0.50730(4)
O13_2 O 0.19542(12) 0.9589(2) 0.5486(2)
O13B O 0.80458(12) 1.0411(2) 0.4514(2)
O14_2 O 0.22296(12) 1.1061(2) 0.5517(2)
C33_2 C 0.22202(15) 1.0200(3) 0.5353(3)
C34_2 C 0.25446(14) 0.9788(3) 0.4962(3)
N7_2 N 0.25005(12) 0.8851(3) 0.4796(2)
N7B N 0.74995(12) 1.1149(3) 0.5204(2)
C35_2 C 0.27740(15) 0.8431(3) 0.4454(3)
H25_2 H 0.2747 0.7772 0.4335
C36_2 C 0.31010(15) 0.8960(3) 0.4272(3)
H26_2 H 0.3294 0.8645 0.4037
N8_2 N 0.31499(13) 0.9894(3) 0.4418(2)
C37_2 C 0.28693(14) 1.0318(3) 0.4771(2)
C38_2 C 0.29489(15) 1.1378(3) 0.4929(3)
O15_2 O 0.27589(11) 1.1930(2) 0.4439(2)
O15B O 0.72411(11) 1.8070(2) 0.5561(2)
O16_2 O 0.32088(13) 1.1615(3) 0.5480(2)
N9B N 0.84501(12) 1.2169(3) 0.4405(2)
C39B C 0.83938(16) 1.2115(4) 0.3668(3)
H27B H 0.8162 1.1776 0.3406
C40B C 0.87870(15) 1.2614(4) 0.4768(3)
H28B H 0.8836 1.2625 0.5285
C41B C 0.86694(16) 1.2549(4) 0.3284(3)
H29B H 0.8626 1.2490 0.2770
C42B C 0.90728(17) 1.3070(4) 0.4404(3)
H30B H 0.9310 1.3376 0.4678
C43B C 0.90068(15) 1.3068(4) 0.3655(3)
C44B C 0.9558(2) 1.2102(4) 0.2809(4)
H31B H 0.9821 1.1897 0.2690
H32B H 0.9527 1.1814 0.3272
H33B H 0.9330 1.1897 0.2423
C45B C 0.95536(17) 1.3180(4) 0.2875(3)
C46B C 0.92894(14) 1.3654(4) 0.3275(3)
C47B C 0.92691(14) 1.4671(4) 0.3329(3)
C48B C 0.89538(17) 1.5181(4) 0.3688(3)
H34B H 0.8854 1.5753 0.3407
H35B H 0.8721 1.4751 0.3704
H36B H 0.9084 1.5366 0.4185
O17B O 0.98117(12) 1.3618(3) 0.2541(2)
O17C O 0.51883(12) -0.1382(3) 0.2459(2)
O17A O 0.48117(12) 2.1382(3) 0.7541(2)
O18B O 0.95092(11) 1.5256(3) 0.3067(2)
O18C O 0.54908(11) 0.0256(3) 0.1933(2)
O18A O 0.45092(11) 1.9744(3) 0.8067(2)
O19B O 0.74996(12) 1.6842(2) 0.6718(2)
C49B C 0.77444(14) 1.6445(3) 0.7213(3)
O20B O 0.80072(11) 1.6884(2) 0.76910(19)
O21B O 0.71342(11) 1.6037(2) 0.80368(19)
O22B O 0.68737(12) 1.4549(2) 0.8018(2)
O22A O 0.18737(12) 0.0451(2) 0.3018(2)
O22C O 0.81263(12) 1.9549(2) 0.6982(2)
C50B C 0.71310(14) 1.5173(3) 0.7874(3)
C51B C 0.74526(14) 1.4789(3) 0.7465(2)
C52B C 0.77539(14) 1.5355(3) 0.7223(2)
N10B N 0.74371(12) 1.3838(2) 0.7348(2)
N10A N 0.24371(12) 0.1162(2) 0.2348(2)
N10C N 0.75629(12) 1.8838(2) 0.7652(2)
N11B N 0.80492(12) 1.4946(3) 0.6899(2)
C53B C 0.77249(15) 1.3431(3) 0.7028(3)
H37B H 0.7722 1.2759 0.6954
C54B C 0.80309(14) 1.3996(3) 0.6800(3)
H38B H 0.8230 1.3695 0.6571
Cu6B Cu 0.807289(18) 1.82442(4) 0.73756(4)
Cu6A Cu 0.307289(18) 0.67558(4) 0.23756(4)
Cu6C Cu 0.692711(18) 1.32442(4) 0.76244(4)
N12B N 0.85120(13) 1.7804(3) 0.6851(2)
C55B C 0.84695(16) 1.7871(4) 0.6129(3)
H39B H 0.8244 1.8225 0.5865
C56B C 0.87452(17) 1.7438(4) 0.5747(3)
H40B H 0.8704 1.7501 0.5233
C57B C 0.88475(17) 1.7350(4) 0.7223(3)
H41B H 0.8890 1.7329 0.7739
C58B C 0.91373(18) 1.6905(4) 0.6871(3)
H42B H 0.9372 1.6598 0.7150
C59B C 0.90815(15) 1.6914(4) 0.6124(3)
C60B C 0.9667(2) 1.7866(5) 0.5342(5)
H43B H 0.9451 1.8099 0.4944
H44B H 0.9625 1.8140 0.5803
H45B H 0.9939 1.8059 0.5253
C61B C 0.96469(17) 1.6789(4) 0.5379(4)
C62B C 0.93644(16) 1.6321(4) 0.5754(3)
C63B C 0.93344(15) 1.5304(4) 0.5789(3)
C64B C 0.90021(18) 1.4812(4) 0.6115(3)
H46B H 0.9095 1.4757 0.6643
H47B H 0.8747 1.5189 0.6009
H48B H 0.8950 1.4173 0.5902
O23B O 0.99041(12) 1.6352(3) 0.5053(2)
O23B_2 O -0.00959(12) 0.6352(3) 0.5053(2)
O24B O 0.95733(11) 1.4719(3) 0.5522(2)
O24B_2 O -0.04267(11) 0.4719(3) 0.5522(2)
Cu7_2 Cu 1.0000 1.5000 0.5000
O25B O 0.84944(12) 1.8450(3) 0.8505(2)
O26B O 0.84375(12) 1.1466(3) 0.6050(2)
loop_
_geom_bond_atom_site_label_1
_geom_bond_atom_site_label_2
_geom_bond_site_symmetry_1
_geom_bond_site_symmetry_2
Cu1 O1 1_555 1_555
O1 C4 1_555 1_555
O2 Cu1 1_555 1_555
C1 H1 1_555 1_555
H2 C1 1_555 1_555
H3 C1 1_555 1_555
C2 O2 1_555 1_555
C3 C2 1_555 1_555
C4 C3 1_555 1_555
C5 C4 1_555 1_555
H4 C5 1_555 1_555
H5 C5 1_555 1_555
H6 C5 1_555 1_555
C6 C3 1_555 1_555
C7 C6 1_555 1_555
H7 C7 1_555 1_555
C8 C6 1_555 1_555
H8 C8 1_555 1_555
C9 C8 1_555 1_555
H9 C9 1_555 1_555
C10 C7 1_555 1_555
H10 C10 1_555 1_555
N1 C9 1_555 1_555
Cu2 N1 1_555 1_555
O3 Cu2 1_555 1_555
C11 O3 1_555 1_555
O4 C11 1_555 1_555
C12 C11 1_555 1_555
N2 Cu2 1_555 1_555
C13 N2 1_555 1_555
H11 C13 1_555 1_555
C14 C13 1_555 1_555
H12 C14 1_555 1_555
N3 C14 1_555 1_555
C15 C12 1_555 1_555
C16 C15 1_555 1_555
O5 C16 1_555 1_555
O6 C16 1_555 1_555
O7 Cu2 1_555 1_555
O8 C17 1_555 1_555
C17 O7 1_555 1_555
C18 C17 1_555 1_555
C19 C18 1_555 1_555
N4 C18 1_555 1_555
C20 N4 1_555 1_555
H13 C20 1_555 1_555
C21 C20 1_555 1_555
H14 C21 1_555 1_555
N5 C19 1_555 1_555
C22 C19 1_555 1_555
O9 C22 1_555 1_555
O10 C22 1_555 1_555
Cu3 N5 1_555 1_555
N6 Cu3 1_555 1_555
C23 N6 1_555 1_555
H15 C23 1_555 1_555
C24 N6 1_555 1_555
H16 C24 1_555 1_555
C25 C24 1_555 1_555
H17 C25 1_555 1_555
C26 C23 1_555 1_555
H18 C26 1_555 1_555
C27 C25 1_555 1_555
C28 H19 1_555 1_555
H20 C28 1_555 1_555
H21 C28 1_555 1_555
C29 C28 1_555 1_555
C30 C27 1_555 1_555
C31 C30 1_555 1_555
C32 C31 1_555 1_555
H22 C32 1_555 1_555
H23 C32 1_555 1_555
H24 C32 1_555 1_555
O11 C31 1_555 1_555
O12 C29 1_555 1_555
Cu4 O11 1_555 1_555
Cu5 O8 1_555 1_555
O13 C33 1_555 1_555
O14 C33 1_555 1_555
C33 C34 1_555 1_555
C34 N7 1_555 1_555
N7 C35 1_555 1_555
C35 H25 1_555 1_555
C36 C35 1_555 1_555
H26 C36 1_555 1_555
N8 C36 1_555 1_555
C37 C34 1_555 1_555
C38 C37 1_555 1_555
O15 Cu3 1_555 1_555
O16 C38 1_555 1_555
N9 Cu5 1_555 1_555
C39 N9 1_555 1_555
H27 C39 1_555 1_555
C40 N9 1_555 1_555
H28 C40 1_555 1_555
C41 C39 1_555 1_555
H29 C41 1_555 1_555
C42 C40 1_555 1_555
H30 C42 1_555 1_555
C43 C41 1_555 1_555
C44 H31 1_555 1_555
H32 C44 1_555 1_555
H33 C44 1_555 1_555
C45 C44 1_555 1_555
C46 C43 1_555 1_555
C47 C46 1_555 1_555
C48 C47 1_555 1_555
H34 C48 1_555 1_555
H35 C48 1_555 1_555
H36 C48 1_555 1_555
O17 C45 1_555 1_555
O18 C47 1_555 1_555
O19 Cu3 1_555 1_555
C49 O19 1_555 1_555
O20 C49 1_555 1_555
O21 C50 1_555 1_555
O22 C50 1_555 1_555
C50 C51 1_555 1_555
C51 C52 1_555 1_555
C52 C49 1_555 1_555
N10 C51 1_555 1_555
N11 C52 1_555 1_555
C53 N10 1_555 1_555
H37 C53 1_555 1_555
C54 N11 1_555 1_555
H38 C54 1_555 1_555
Cu6 O20 1_555 1_555
N12 Cu6 1_555 1_555
C55 N12 1_555 1_555
H39 C55 1_555 1_555
C56 C55 1_555 1_555
H40 C56 1_555 1_555
C57 N12 1_555 1_555
H41 C57 1_555 1_555
C58 C57 1_555 1_555
H42 C58 1_555 1_555
C59 C56 1_555 1_555
C60 H43 1_555 1_555
H44 C60 1_555 1_555
H45 C60 1_555 1_555
C61 C60 1_555 1_555
C62 C59 1_555 1_555
C63 C62 1_555 1_555
C64 C63 1_555 1_555
H46 C64 1_555 1_555
H47 C64 1_555 1_555
H48 C64 1_555 1_555
O23 C61 1_555 1_555
O24 C63 1_555 1_555
Cu7 O23 1_555 1_555
O25 Cu6 1_555 1_555
O26 Cu5 1_555 1_555
O1B Cu1 1_555 1_555
O2B Cu1 1_555 1_555
C1B H1B 1_555 1_555
H2B C1B 1_555 1_555
H3B C1B 1_555 1_555
C2B O2B 1_555 1_555
C3B C2B 1_555 1_555
C4B O1B 1_555 1_555
C5B C4B 1_555 1_555
H4B C5B 1_555 1_555
H5B C5B 1_555 1_555
H6B C5B 1_555 1_555
C6B C3B 1_555 1_555
C7B C6B 1_555 1_555
H7B C7B 1_555 1_555
C8B C6B 1_555 1_555
H8B C8B 1_555 1_555
C9B C8B 1_555 1_555
H9B C9B 1_555 1_555
C10B C7B 1_555 1_555
H10B C10B 1_555 1_555
N1B C9B 1_555 1_555
Cu2B N1B 1_555 1_555
Cu2A O5 1_555 1_555
Cu2A_2 O3A 1_555 1_555
O3A C11A 1_555 1_555
O3B Cu2B 1_555 1_555
C11A O4A 1_555 1_555
C12A C11A 1_555 1_555
N2A Cu2A_2 1_555 1_555
N2B Cu2B 1_555 1_555
C13A N2A 1_555 1_555
H11A C13A 1_555 1_555
C14A C13A 1_555 1_555
H12A C14A 1_555 1_555
N3A C14A 1_555 1_555
C15A C12A 1_555 1_555
C16A C15A 1_555 1_555
O5A Cu2 1_555 1_555
O5C Cu2B 1_555 1_555
O6A C16A 1_555 1_555
O7B Cu2B 1_555 1_555
O8B C17B 1_555 1_555
C17B O7B 1_555 1_555
C18B C17B 1_555 1_555
C19B C18B 1_555 1_555
N4B C18B 1_555 1_555
C20B N4B 1_555 1_555
H13B C20B 1_555 1_555
C21B C20B 1_555 1_555
H14B C21B 1_555 1_555
N5B C19B 1_555 1_555
C22B C19B 1_555 1_555
O9B C22B 1_555 1_555
O10B C22B 1_555 1_555
Cu3B N5B 1_555 1_555
Cu3_2 O15_2 1_555 1_555
N6B Cu3B 1_555 1_555
C23B N6B 1_555 1_555
H15B C23B 1_555 1_555
C24B N6B 1_555 1_555
H16B C24B 1_555 1_555
C25B C24B 1_555 1_555
H17B C25B 1_555 1_555
C26B C23B 1_555 1_555
H18B C26B 1_555 1_555
C27B C25B 1_555 1_555
C28B H19B 1_555 1_555
H20B C28B 1_555 1_555
H21B C28B 1_555 1_555
C29B C28B 1_555 1_555
C30B C27B 1_555 1_555
C31B C30B 1_555 1_555
C32B C31B 1_555 1_555
H22B C32B 1_555 1_555
H23B C32B 1_555 1_555
H24B C32B 1_555 1_555
O11B C31B 1_555 1_555
O12B C29B 1_555 1_555
Cu4B O11B 1_555 1_555
Cu4C O17 1_555 1_555
Cu4A O17B 1_555 1_555
Cu5B O8B 1_555 1_555
Cu5_2 O13 1_555 1_555
O13_2 Cu5 1_555 1_555
O13B Cu5B 1_555 1_555
O14_2 C33_2 1_555 1_555
C33_2 O13_2 1_555 1_555
C34_2 C33_2 1_555 1_555
N7_2 Cu5 1_555 1_555
N7B Cu5B 1_555 1_555
C35_2 N7_2 1_555 1_555
H25_2 C35_2 1_555 1_555
C36_2 C35_2 1_555 1_555
H26_2 C36_2 1_555 1_555
N8_2 C36_2 1_555 1_555
C37_2 C34_2 1_555 1_555
C38_2 C37_2 1_555 1_555
O15_2 C38_2 1_555 1_555
O15B Cu3B 1_555 1_555
O16_2 C38_2 1_555 1_555
N9B Cu5B 1_555 1_555
C39B N9B 1_555 1_555
H27B C39B 1_555 1_555
C40B N9B 1_555 1_555
H28B C40B 1_555 1_555
C41B C39B 1_555 1_555
H29B C41B 1_555 1_555
C42B C40B 1_555 1_555
H30B C42B 1_555 1_555
C43B C41B 1_555 1_555
C44B H31B 1_555 1_555
H32B C44B 1_555 1_555
H33B C44B 1_555 1_555
C45B C44B 1_555 1_555
C46B C43B 1_555 1_555
C47B C46B 1_555 1_555
C48B C47B 1_555 1_555
H34B C48B 1_555 1_555
H35B C48B 1_555 1_555
H36B C48B 1_555 1_555
O17B C45B 1_555 1_555
O17C Cu4 1_555 1_555
O17A Cu4B 1_555 1_555
O18B Cu4A 1_555 1_555
O18C Cu4 1_555 1_555
O18A Cu4B 1_555 1_555
O19B Cu3B 1_555 1_555
C49B O19B 1_555 1_555
O20B C49B 1_555 1_555
O21B C50B 1_555 1_555
O22B C50B 1_555 1_555
O22A Cu6 1_555 1_555
O22C Cu6B 1_555 1_555
C50B C51B 1_555 1_555
C51B C52B 1_555 1_555
C52B C49B 1_555 1_555
N10B C51B 1_555 1_555
N10A Cu6 1_555 1_555
N10C Cu6B 1_555 1_555
N11B C52B 1_555 1_555
C53B N10B 1_555 1_555
H37B C53B 1_555 1_555
C54B N11B 1_555 1_555
H38B C54B 1_555 1_555
Cu6B O20B 1_555 1_555
Cu6A O22 1_555 1_555
Cu6C O22B 1_555 1_555
N12B Cu6B 1_555 1_555
C55B N12B 1_555 1_555
H39B C55B 1_555 1_555
C56B C55B 1_555 1_555
H40B C56B 1_555 1_555
C57B N12B 1_555 1_555
H41B C57B 1_555 1_555
C58B C57B 1_555 1_555
H42B C58B 1_555 1_555
C59B C56B 1_555 1_555
C60B H43B 1_555 1_555
H44B C60B 1_555 1_555
H45B C60B 1_555 1_555
C61B C60B 1_555 1_555
C62B C59B 1_555 1_555
C63B C62B 1_555 1_555
C64B C63B 1_555 1_555
H46B C64B 1_555 1_555
H47B C64B 1_555 1_555
H48B C64B 1_555 1_555
O23B C61B 1_555 1_555
O23B_2 Cu7 1_555 1_555
O24B C63B 1_555 1_555
O24B_2 Cu7 1_555 1_555
Cu7_2 O23B 1_555 1_555
O25B Cu6B 1_555 1_555
O26B Cu5B 1_555 1_555
C1 C2 1_555 1_555
C10 N1 1_555 1_555
C12 N2 1_555 1_555
N3 C15 1_555 1_555
C21 N5 1_555 1_555
O10 Cu3 1_555 1_555
C26 C27 1_555 1_555
C29 C30 1_555 1_555
O12 Cu4 1_555 1_555
N7 Cu5_2 1_555 1_555
N8 C37 1_555 1_555
C38 O15 1_555 1_555
C42 C43 1_555 1_555
C45 C46 1_555 1_555
O18 Cu4C 1_555 1_555
N10 Cu6A 1_555 1_555
C53 C54 1_555 1_555
C58 C59 1_555 1_555
C61 C62 1_555 1_555
O24 Cu7 1_555 1_555
C1B C2B 1_555 1_555
C3B C4B 1_555 1_555
C10B N1B 1_555 1_555
C12A N2A 1_555 1_555
N3A C15A 1_555 1_555
C16A O5A 1_555 1_555
C21B N5B 1_555 1_555
O10B Cu3B 1_555 1_555
C26B C27B 1_555 1_555
C29B C30B 1_555 1_555
O12B Cu4B 1_555 1_555
C34_2 N7_2 1_555 1_555
N8_2 C37_2 1_555 1_555
C42B C43B 1_555 1_555
C45B C46B 1_555 1_555
C47B O18B 1_555 1_555
N10B Cu6C 1_555 1_555
C53B C54B 1_555 1_555
C58B C59B 1_555 1_555
C61B C62B 1_555 1_555
O24B Cu7_2 1_555 1_555

#END
