
#######################################################################
#
#                 Cambridge Crystallographic Data Centre
#                                CCDC 
#
#######################################################################
#
# If this CIF has been generated from an entry in the Cambridge 
# Structural Database, then it will include bibliographic, chemical, 
# crystal, experimental, refinement or atomic coordinate data resulting 
# from the CCDC's data processing and validation procedures.
#
#######################################################################

data_GUXKAM
_symmetry_cell_setting           monoclinic
_symmetry_space_group_name_H-M   'C 2/c'
_symmetry_Int_Tables_number      15
_space_group_name_Hall           '-C 2yn'
loop_
_symmetry_equiv_pos_site_id
_symmetry_equiv_pos_as_xyz
1 x,y,z
2 -x,y,1/2-z
3 1/2+x,1/2+y,z
4 1/2-x,1/2+y,1/2-z
5 -x,-y,-z
6 x,-y,1/2+z
7 1/2-x,1/2-y,-z
8 1/2+x,1/2-y,1/2+z
_cell_length_a                   31.688(11)
_cell_length_b                   13.773(5)
_cell_length_c                   9.719(3)
_cell_angle_alpha                90
_cell_angle_beta                 96.090(6)
_cell_angle_gamma                90
_cell_volume                     4217.81
loop_
_atom_site_label
_atom_site_type_symbol
_atom_site_fract_x
_atom_site_fract_y
_atom_site_fract_z
Cu1 Cu 0.0000 0.5000 -0.5000
O1 O 0.00833(13) 0.3641(3) -0.4775(5)
O2 O 0.04628(12) 0.5273(3) -0.3667(5)
C1 C 0.1047(2) 0.5176(4) -0.2024(8)
H1 H 0.1108 0.5800 -0.2397
H2 H 0.1298 0.4782 -0.1957
H3 H 0.0955 0.5257 -0.1122
C2 C 0.07060(15) 0.4695(4) -0.2949(6)
C3 C 0.06638(15) 0.3667(4) -0.3033(6)
C4 C 0.0361(2) 0.3222(5) -0.3950(8)
C5 C 0.0331(3) 0.2128(6) -0.4067(11)
H4 H 0.0058 0.1951 -0.4519
H5 H 0.0368 0.1846 -0.3159
H6 H 0.0549 0.1893 -0.4597
C6 C 0.09765(15) 0.3073(4) -0.2125(6)
C7 C 0.12922(16) 0.2525(4) -0.2651(5)
H7 H 0.1295 0.2462 -0.3603
C8 C 0.15991(16) 0.2077(4) -0.1764(5)
H8 H 0.1807 0.1714 -0.2139
C9 C 0.09719(16) 0.3052(4) -0.0717(6)
H9 H 0.0750 0.3345 -0.0320
C10 C 0.12939(15) 0.2599(3) 0.0120(5)
H10 H 0.1289 0.2616 0.1075
N1 N 0.16122(11) 0.2138(2) -0.0408(4)
Cu2 Cu 0.213676(16) 0.17052(3) 0.07626(5)
N2 N 0.25052(10) 0.1130(2) 0.2356(3)
N3 N 0.30240(12) 0.0056(2) 0.4248(3)
C11 C 0.27327(14) 0.1568(3) 0.3405(4)
H11 H 0.2719 0.2238 0.3507
C12 C 0.29909(15) 0.1017(3) 0.4344(4)
H12 H 0.3148 0.1332 0.5074
C13 C 0.25146(12) 0.0155(2) 0.2261(4)
C14 C 0.27789(12) -0.0371(2) 0.3197(4)
O3 O 0.20159(10) 0.03624(18) 0.0322(3)
C15 C 0.22098(12) -0.0266(2) 0.1117(4)
O4 O 0.21701(10) -0.11473(18) 0.1008(3)
O5 O 0.30892(11) -0.1803(2) 0.2413(3)
C16 C 0.28403(13) -0.1465(2) 0.3152(4)
O6 O 0.26428(9) -0.19574(17) 0.4007(3)
O1D O -0.00833(13) 0.6359(3) -0.5225(5)
O2D O -0.04628(12) 0.4727(3) -0.6333(5)
C1D C -0.1047(2) 0.4824(4) -0.7976(8)
H1D H -0.1108 0.4200 -0.7603
H2D H -0.1298 0.5218 -0.8043
H3D H -0.0955 0.4743 -0.8878
C2D C -0.07060(15) 0.5305(4) -0.7051(6)
C3D C -0.06638(15) 0.6333(4) -0.6967(6)
C4D C -0.0361(2) 0.6778(5) -0.6050(8)
C5D C -0.0331(3) 0.7872(6) -0.5933(11)
H4D H -0.0058 0.8049 -0.5481
H5D H -0.0368 0.8154 -0.6841
H6D H -0.0549 0.8107 -0.5403
C6D C -0.09765(15) 0.6927(4) -0.7875(6)
C7D C -0.12922(16) 0.7475(4) -0.7349(5)
H7D H -0.1295 0.7538 -0.6397
C8D C -0.15991(16) 0.7923(4) -0.8236(5)
H8D H -0.1807 0.8286 -0.7861
C9D C -0.09719(16) 0.6948(4) -0.9283(6)
H9D H -0.0750 0.6655 -0.9680
C10D C -0.12939(15) 0.7401(3) -1.0120(5)
H10D H -0.1289 0.7384 -1.1075
N1D N -0.16122(11) 0.7862(2) -0.9592(4)
Cu2D Cu -0.213676(16) 0.82948(3) -1.07626(5)
Cu2C Cu 0.286324(16) -0.32948(3) 0.42374(5)
Cu2C_2 Cu 0.286324(16) 0.67052(3) 0.42374(5)
N2C N 0.24948(10) 0.6130(2) 0.2644(3)
N2D N -0.25052(10) 0.8870(2) -1.2356(3)
N3C N 0.19760(12) 0.5056(2) 0.0752(3)
C11C C 0.22673(14) 0.6568(3) 0.1595(4)
H11C H 0.2281 0.7238 0.1493
C12C C 0.20091(15) 0.6017(3) 0.0656(4)
H12C H 0.1852 0.6332 -0.0074
C13C C 0.24854(12) 0.5155(2) 0.2739(4)
C14C C 0.22211(12) 0.4629(2) 0.1803(4)
O3C O 0.29841(10) 0.53624(18) 0.4678(3)
O3D O -0.20159(10) 0.96376(18) -1.0322(3)
C15C C 0.27902(12) 0.4734(2) 0.3883(4)
O4C O 0.28299(10) 0.38527(18) 0.3992(3)
O5C O 0.19108(11) 0.3197(2) 0.2587(3)
C16C C 0.21597(13) 0.3535(2) 0.1848(4)
O6C O 0.23572(9) 0.30426(17) 0.0993(3)
O6G O -0.23572(9) 0.69574(17) -1.0993(3)
loop_
_geom_bond_atom_site_label_1
_geom_bond_atom_site_label_2
_geom_bond_site_symmetry_1
_geom_bond_site_symmetry_2
Cu1 O1 1_555 1_555
O1 C4 1_555 1_555
O2 Cu1 1_555 1_555
C1 H1 1_555 1_555
H2 C1 1_555 1_555
H3 C1 1_555 1_555
C2 O2 1_555 1_555
C3 C2 1_555 1_555
C4 C3 1_555 1_555
C5 C4 1_555 1_555
H4 C5 1_555 1_555
H5 C5 1_555 1_555
H6 C5 1_555 1_555
C6 C3 1_555 1_555
C7 C6 1_555 1_555
H7 C7 1_555 1_555
C8 C7 1_555 1_555
H8 C8 1_555 1_555
C9 C6 1_555 1_555
H9 C9 1_555 1_555
C10 C9 1_555 1_555
H10 C10 1_555 1_555
N1 C8 1_555 1_555
Cu2 N1 1_555 1_555
N2 Cu2 1_555 1_555
N3 C12 1_555 1_555
C11 N2 1_555 1_555
H11 C11 1_555 1_555
C12 C11 1_555 1_555
H12 C12 1_555 1_555
C13 N2 1_555 1_555
C14 N3 1_555 1_555
O3 Cu2 1_555 1_555
C15 C13 1_555 1_555
O4 C15 1_555 1_555
O5 C16 1_555 1_555
C16 C14 1_555 1_555
O6 C16 1_555 1_555
O1D Cu1 1_555 1_555
O2D Cu1 1_555 1_555
C1D H1D 1_555 1_555
H2D C1D 1_555 1_555
H3D C1D 1_555 1_555
C2D O2D 1_555 1_555
C3D C2D 1_555 1_555
C4D O1D 1_555 1_555
C5D C4D 1_555 1_555
H4D C5D 1_555 1_555
H5D C5D 1_555 1_555
H6D C5D 1_555 1_555
C6D C3D 1_555 1_555
C7D C6D 1_555 1_555
H7D C7D 1_555 1_555
C8D C7D 1_555 1_555
H8D C8D 1_555 1_555
C9D C6D 1_555 1_555
H9D C9D 1_555 1_555
C10D C9D 1_555 1_555
H10D C10D 1_555 1_555
N1D C8D 1_555 1_555
Cu2D N1D 1_555 1_555
Cu2C O6 1_555 1_555
Cu2C_2 N2C 1_555 1_555
N2C C11C 1_555 1_555
N2D Cu2D 1_555 1_555
N3C C12C 1_555 1_555
C11C H11C 1_555 1_555
C12C C11C 1_555 1_555
H12C C12C 1_555 1_555
C13C N2C 1_555 1_555
C14C N3C 1_555 1_555
O3C Cu2C_2 1_555 1_555
O3D Cu2D 1_555 1_555
C15C C13C 1_555 1_555
O4C C15C 1_555 1_555
O5C C16C 1_555 1_555
C16C C14C 1_555 1_555
O6C Cu2 1_555 1_555
O6G Cu2D 1_555 1_555
C1 C2 1_555 1_555
C10 N1 1_555 1_555
C13 C14 1_555 1_555
O3 C15 1_555 1_555
C1D C2D 1_555 1_555
C3D C4D 1_555 1_555
C10D N1D 1_555 1_555
C13C C14C 1_555 1_555
O3C C15C 1_555 1_555
C16C O6C 1_555 1_555

#END
