
#######################################################################
#
#                 Cambridge Crystallographic Data Centre
#                                CCDC 
#
#######################################################################
#
# If this CIF has been generated from an entry in the Cambridge 
# Structural Database, then it will include bibliographic, chemical, 
# crystal, experimental, refinement or atomic coordinate data resulting 
# from the CCDC's data processing and validation procedures.
#
#######################################################################

data_GUXQUM
_symmetry_cell_setting           monoclinic
_symmetry_space_group_name_H-M   'C 2'
_symmetry_Int_Tables_number      5
_space_group_name_Hall           'C 2y'
loop_
_symmetry_equiv_pos_site_id
_symmetry_equiv_pos_as_xyz
1 x,y,z
2 -x,y,-z
3 1/2+x,1/2+y,z
4 1/2-x,1/2+y,-z
_cell_length_a                   16.783(6)
_cell_length_b                   28.062(11)
_cell_length_c                   13.894(5)
_cell_angle_alpha                90
_cell_angle_beta                 96.420(7)
_cell_angle_gamma                90
_cell_volume                     6502.55
loop_
_atom_site_label
_atom_site_type_symbol
_atom_site_fract_x
_atom_site_fract_y
_atom_site_fract_z
Zn3 Zn 0.00859(5) 0.38144(4) 0.11867(5)
C28 C 0.1269(5) 0.3444(3) 0.0132(6)
C29 C 0.2059(5) 0.3214(3) 0.0097(5)
C30 C 0.2739(5) 0.3326(3) 0.0741(5)
H16 H 0.2698 0.3564 0.1198
C31 C 0.3464(5) 0.3098(3) 0.0721(6)
H17 H 0.3899 0.3178 0.1167
C32 C 0.3542(5) 0.2750(3) 0.0038(6)
C33 C 0.2892(5) 0.2619(3) -0.0611(7)
H18 H 0.2942 0.2379 -0.1061
C34 C 0.2152(5) 0.2855(3) -0.0583(5)
H19 H 0.1717 0.2770 -0.1024
C35 C 0.4291(4) 0.2487(3) 0.0022(6)
C36 C 0.5000 0.2731(4) 0.0000
H20 H 0.5000 0.3063 0.0000
C37 C 0.4304(4) 0.1994(2) 0.0021(5)
H21 H 0.3826 0.1827 0.0035
C38 C 0.5000 0.1745(3) 0.0000
C39 C 0.5000 0.1199(3) 0.0000
C40 C 0.4653(4) 0.0956(2) 0.0718(5)
H22 H 0.4399 0.1121 0.1177
C41 C 0.4693(5) 0.0461(3) 0.0739(6)
H23 H 0.4513 0.0296 0.1253
C42 C 0.5000 0.0210(4) 0.0000
C43 C 0.5000 -0.0330(5) 0.0000
C44 C 0.0102(5) 0.3533(5) 0.2934(5)
C45 C 0.0055(6) 0.3531(4) 0.4011(5)
C46 C 0.0004(6) 0.3951(3) 0.4498(5)
H24 H -0.0026 0.4238 0.4160
C47 C 0.0040(6) 0.3123(3) 0.4513(3)
H25 H 0.0086 0.2834 0.4195
O8 O 0.1147(3) 0.3669(2) 0.0862(3)
O9 O 0.0777(3) 0.3413(2) -0.0599(4)
O10 O 0.4813(3) -0.05322(19) 0.0736(4)
O11 O 0.0027(3) 0.3923(3) 0.2531(3)
O12 O 0.0157(4) 0.3170(3) 0.2497(4)
Zn3A Zn 0.99141(5) 0.38144(4) -0.11867(5)
Zn3A_2 Zn -0.00859(5) 0.38144(4) -0.11867(5)
Zn3B Zn 0.50859(5) -0.11856(4) 0.11867(5)
Zn3_2 Zn 1.00859(5) 0.38144(4) 0.11867(5)
Zn3C Zn 0.49141(5) -0.11856(4) -0.11867(5)
Zn3A_3 Zn -0.00859(5) 0.38144(4) 0.88133(5)
C28A C 0.8731(5) 0.3444(3) -0.0132(6)
C29A C 0.7941(5) 0.3214(3) -0.0097(5)
C30A C 0.7261(5) 0.3326(3) -0.0741(5)
H16A H 0.7302 0.3564 -0.1198
C31A C 0.6536(5) 0.3098(3) -0.0721(6)
H17A H 0.6101 0.3178 -0.1167
C32A C 0.6458(5) 0.2750(3) -0.0038(6)
C33A C 0.7108(5) 0.2619(3) 0.0611(7)
H18A H 0.7058 0.2379 0.1061
C34A C 0.7848(5) 0.2855(3) 0.0583(5)
H19A H 0.8283 0.2770 0.1024
C35A C 0.5709(4) 0.2487(3) -0.0022(6)
C37A C 0.5696(4) 0.1994(2) -0.0021(5)
H21A H 0.6174 0.1827 -0.0035
C40A C 0.5347(4) 0.0956(2) -0.0718(5)
H22A H 0.5601 0.1121 -0.1177
C41A C 0.5307(5) 0.0461(3) -0.0739(6)
H23A H 0.5487 0.0296 -0.1253
C44A C -0.0102(5) 0.3533(5) 0.7066(5)
C45A C -0.0055(6) 0.3531(4) 0.5989(5)
C46A C -0.0004(6) 0.3951(3) 0.5502(5)
H24A H 0.0026 0.4238 0.5840
C47A C -0.0040(6) 0.3123(3) 0.5487(3)
H25A H -0.0086 0.2834 0.5805
O8A O 0.8853(3) 0.3669(2) -0.0862(3)
O9A O 0.9223(3) 0.3413(2) 0.0599(4)
O9A_2 O -0.0777(3) 0.3413(2) 0.0599(4)
O9_2 O 1.0777(3) 0.3413(2) -0.0599(4)
O10A O 0.5187(3) -0.05322(19) -0.0736(4)
O10B O -0.0187(3) 0.44678(19) 0.0736(4)
O10C O 1.0187(3) 0.44678(19) -0.0736(4)
O11A O -0.0027(3) 0.3923(3) 0.7469(3)
O11A_2 O 0.9973(3) 0.3923(3) -0.2531(3)
O12A O -0.0157(4) 0.3170(3) 0.7503(4)
Zn1 Zn 0.04395(7) -0.07291(6) 0.75321(11)
Zn2 Zn 0.9879(9) -0.0922(5) 0.4815(11)
C1 C 0.1690(6) -0.0396(4) 0.7078(10)
O1 O 0.1679(5) -0.0688(3) 0.7712(6)
O3 O 0.1050(14) -0.0377(14) 0.649(3)
C2 C 0.2458(5) -0.0150(3) 0.6941(7)
C3 C 0.3182(6) -0.0303(3) 0.7448(7)
H1 H 0.3194 -0.0563 0.7865
C4 C 0.3885(5) -0.0058(3) 0.7316(7)
H2 H 0.4370 -0.0171 0.7620
C5 C 0.3884(5) 0.0347(3) 0.6748(7)
C6 C 0.3159(5) 0.0509(3) 0.6241(8)
H3 H 0.3147 0.0780 0.5853
C7 C 0.2456(5) 0.0248(3) 0.6339(7)
H4 H 0.1976 0.0345 0.5994
C8 C 0.4627(6) 0.0616(4) 0.6603(8)
C9 C 0.5347(6) 0.0375(4) 0.6552(7)
H5 H 0.5330 0.0043 0.6552
C10 C 0.6072(7) 0.0584(4) 0.6503(8)
C11 C 0.6047(7) 0.1076(4) 0.6537(7)
H6 H 0.6523 0.1246 0.6540
C12 C 0.5327(6) 0.1330(5) 0.6569(7)
C13 C 0.4609(6) 0.1104(4) 0.6603(7)
H7 H 0.4134 0.1272 0.6626
C14 C 0.6808(7) 0.0299(4) 0.6512(8)
C15 C 0.7486(6) 0.0415(4) 0.7109(9)
H8 H 0.7476 0.0661 0.7558
C16 C 0.8190(7) 0.0161(4) 0.7036(9)
H9 H 0.8640 0.0232 0.7465
C17 C 0.8249(7) -0.0192(4) 0.6352(8)
C18 C 0.7561(7) -0.0294(4) 0.5742(9)
H10 H 0.7576 -0.0529 0.5270
C19 C 0.6837(8) -0.0048(4) 0.5824(9)
H11 H 0.6380 -0.0122 0.5410
C20 C 0.9016(8) -0.0438(5) 0.6313(12)
O4 O 0.9471(4) -0.0401(3) 0.7093(7)
O5 O 0.9080(6) -0.0667(4) 0.5567(8)
C21 C 0.5371(7) 0.1871(5) 0.6596(7)
C22 C 0.5767(6) 0.2109(4) 0.5913(7)
H12 H 0.6036 0.1938 0.5474
C23 C 0.5757(6) 0.2600(4) 0.5894(7)
H13 H 0.6016 0.2762 0.5435
C24 C 0.5365(6) 0.2854(5) 0.6555(7)
C25 C 0.4984(7) 0.2603(4) 0.7232(8)
H14 H 0.4708 0.2773 0.7664
C26 C 0.4995(7) 0.2110(4) 0.7292(10)
H15 H 0.4763 0.1948 0.7774
C27 C 0.5431(6) 0.3388(4) 0.6607(8)
O6 O 0.5245(4) 0.3602(2) 0.7360(5)
O7 O 0.5560(4) 0.3614(3) 0.5849(5)
O13 O 0.0214(15) -0.0524(8) 0.8897(19)
O14 O 0.0247(15) -0.0894(8) 0.8956(19)
Zn1_2 Zn -0.95605(7) -0.07291(6) 0.75321(11)
Zn1_3 Zn 1.04395(7) -0.07291(6) 0.75321(11)
Zn1B Zn 0.54395(7) 0.42709(6) 0.75321(11)
Zn1B_2 Zn -0.45605(7) 0.42709(6) 0.75321(11)
Zn2_2 Zn -0.0121(9) -0.0922(5) 0.4815(11)
Zn2A Zn 1.0121(9) -0.0922(5) 0.5185(11)
Zn2B Zn 0.4879(9) 0.4078(5) 0.4815(11)
Zn2C Zn 0.5121(9) 0.4078(5) 0.5185(11)
Zn2A_2 Zn 0.0121(9) -0.0922(5) 0.5185(11)
Zn2B_2 Zn -0.5121(9) 0.4078(5) 0.4815(11)
Zn2C_2 Zn -0.4879(9) 0.4078(5) 0.5185(11)
C1_2 C -0.8310(6) -0.0396(4) 0.7078(10)
O1_2 O -0.8321(5) -0.0688(3) 0.7712(6)
O3_2 O -0.8950(14) -0.0377(14) 0.649(3)
C2_2 C -0.7542(5) -0.0150(3) 0.6941(7)
C3_2 C -0.6818(6) -0.0303(3) 0.7448(7)
H1_2 H -0.6806 -0.0563 0.7865
C4_2 C -0.6115(5) -0.0058(3) 0.7316(7)
H2_2 H -0.5630 -0.0171 0.7620
C5_2 C -0.6116(5) 0.0347(3) 0.6748(7)
C6_2 C -0.6841(5) 0.0509(3) 0.6241(8)
H3_2 H -0.6853 0.0780 0.5853
C7_2 C -0.7544(5) 0.0248(3) 0.6339(7)
H4_2 H -0.8024 0.0345 0.5994
C8_2 C -0.5373(6) 0.0616(4) 0.6603(8)
C9_2 C -0.4653(6) 0.0375(4) 0.6552(7)
H5_2 H -0.4670 0.0043 0.6552
C10_2 C -0.3928(7) 0.0584(4) 0.6503(8)
C11_2 C -0.3953(7) 0.1076(4) 0.6537(7)
H6_2 H -0.3477 0.1246 0.6540
C12_2 C -0.4673(6) 0.1330(5) 0.6569(7)
C13_2 C -0.5391(6) 0.1104(4) 0.6603(7)
H7_2 H -0.5866 0.1272 0.6626
C14_2 C -0.3192(7) 0.0299(4) 0.6512(8)
C15_2 C -0.2514(6) 0.0415(4) 0.7109(9)
H8_2 H -0.2524 0.0661 0.7558
C16_2 C -0.1810(7) 0.0161(4) 0.7036(9)
H9_2 H -0.1360 0.0232 0.7465
C17_2 C -0.1751(7) -0.0192(4) 0.6352(8)
C18_2 C -0.2439(7) -0.0294(4) 0.5742(9)
H10_2 H -0.2424 -0.0529 0.5270
C19_2 C -0.3163(8) -0.0048(4) 0.5824(9)
H11_2 H -0.3620 -0.0122 0.5410
C20_2 C -0.0984(8) -0.0438(5) 0.6313(12)
O4_2 O -0.0529(4) -0.0401(3) 0.7093(7)
O4_3 O -1.0529(4) -0.0401(3) 0.7093(7)
O5_2 O -0.0920(6) -0.0667(4) 0.5567(8)
O5A O 1.0920(6) -0.0667(4) 0.4433(8)
O5A_2 O 0.0920(6) -0.0667(4) 0.4433(8)
C21_2 C -0.4629(7) 0.1871(5) 0.6596(7)
C22_2 C -0.4233(6) 0.2109(4) 0.5913(7)
H12_2 H -0.3964 0.1938 0.5474
C23_2 C -0.4243(6) 0.2600(4) 0.5894(7)
H13_2 H -0.3984 0.2762 0.5435
C24_2 C -0.4635(6) 0.2854(5) 0.6555(7)
C25_2 C -0.5016(7) 0.2603(4) 0.7232(8)
H14_2 H -0.5292 0.2773 0.7664
C26_2 C -0.5005(7) 0.2110(4) 0.7292(10)
H15_2 H -0.5237 0.1948 0.7774
C27_2 C -0.4569(6) 0.3388(4) 0.6607(8)
O6_2 O -0.4755(4) 0.3602(2) 0.7360(5)
O6B O 0.0245(4) -0.1398(2) 0.7360(5)
O6B_2 O -0.9755(4) -0.1398(2) 0.7360(5)
O7_2 O -0.4440(4) 0.3614(3) 0.5849(5)
O7B O 1.0560(4) -0.1386(3) 0.5849(5)
O7C O 0.9440(4) -0.1386(3) 0.4151(5)
O7B_2 O 0.0560(4) -0.1386(3) 0.5849(5)
O7C_2 O -0.0560(4) -0.1386(3) 0.4151(5)
O13_2 O -0.9786(15) -0.0524(8) 0.8897(19)
O14_2 O -0.9753(15) -0.0894(8) 0.8956(19)
O2? O 0.1081(17) -0.0155(14) 0.676(4)
Zn4? Zn 0.5415(8) 0.4113(8) 0.520(3)
loop_
_geom_bond_atom_site_label_1
_geom_bond_atom_site_label_2
_geom_bond_site_symmetry_1
_geom_bond_site_symmetry_2
Zn1 O1 1_555 1_555
Zn2 O5 1_555 1_555
Zn3 O8 1_555 1_555
C1 O1 1_555 1_555
O3 Zn1 1_555 1_555
C2 C1 1_555 1_555
C3 C2 1_555 1_555
H1 C3 1_555 1_555
C4 C3 1_555 1_555
H2 C4 1_555 1_555
C5 C4 1_555 1_555
C6 C5 1_555 1_555
H3 C6 1_555 1_555
C7 C2 1_555 1_555
H4 C7 1_555 1_555
C8 C5 1_555 1_555
C9 C8 1_555 1_555
H5 C9 1_555 1_555
C10 C9 1_555 1_555
C11 C10 1_555 1_555
H6 C11 1_555 1_555
C12 C11 1_555 1_555
C13 C8 1_555 1_555
H7 C13 1_555 1_555
C14 C10 1_555 1_555
C15 C14 1_555 1_555
H8 C15 1_555 1_555
C16 C15 1_555 1_555
H9 C16 1_555 1_555
C17 C16 1_555 1_555
C18 C17 1_555 1_555
H10 C18 1_555 1_555
C19 C14 1_555 1_555
H11 C19 1_555 1_555
C20 C17 1_555 1_555
O4 C20 1_555 1_555
O5 C20 1_555 1_555
C21 C12 1_555 1_555
C22 C21 1_555 1_555
H12 C22 1_555 1_555
C23 C22 1_555 1_555
H13 C23 1_555 1_555
C24 C23 1_555 1_555
C25 C24 1_555 1_555
H14 C25 1_555 1_555
C26 C21 1_555 1_555
H15 C26 1_555 1_555
C27 C24 1_555 1_555
C28 C29 1_555 1_555
C29 C30 1_555 1_555
C30 H16 1_555 1_555
C31 C30 1_555 1_555
H17 C31 1_555 1_555
C32 C31 1_555 1_555
C33 C32 1_555 1_555
H18 C33 1_555 1_555
C34 C29 1_555 1_555
H19 C34 1_555 1_555
C35 C32 1_555 1_555
C36 C35 1_555 1_555
H20 C36 1_555 1_555
C37 C35 1_555 1_555
H21 C37 1_555 1_555
C38 C37 1_555 1_555
C39 C38 1_555 1_555
C40 C39 1_555 1_555
H22 C40 1_555 1_555
C41 C40 1_555 1_555
H23 C41 1_555 1_555
C42 C41 1_555 1_555
C43 C42 1_555 1_555
C44 C45 1_555 1_555
C45 C46 1_555 1_555
C46 H24 1_555 1_555
C47 C45 1_555 1_555
H25 C47 1_555 1_555
O6 C27 1_555 1_555
O7 C27 1_555 1_555
O8 C28 1_555 1_555
O9 C28 1_555 1_555
O10 C43 1_555 1_555
O11 Zn3 1_555 1_555
O12 C44 1_555 1_555
O13 Zn1 1_555 1_555
O14 Zn1 1_555 1_555
Zn1_2 O1_2 1_555 1_555
Zn1_3 O4 1_555 1_555
Zn1B O6 1_555 1_555
Zn1B_2 O6_2 1_555 1_555
Zn2_2 Zn2A_2 1_555 1_555
Zn2A Zn2 1_555 1_555
Zn2B O7 1_555 1_555
Zn2C O7 1_555 1_555
Zn2A_2 O5_2 1_555 1_555
Zn2B_2 Zn2C_2 1_555 1_555
Zn2C_2 O7_2 1_555 1_555
Zn3A O8A 1_555 1_555
Zn3A_2 O9 1_555 1_555
Zn3B O10 1_555 1_555
Zn3_2 O9A 1_555 1_555
Zn3C O10A 1_555 1_555
Zn3A_3 O11A 1_555 1_555
C1_2 O1_2 1_555 1_555
O3_2 Zn1_2 1_555 1_555
C2_2 C1_2 1_555 1_555
C3_2 C2_2 1_555 1_555
H1_2 C3_2 1_555 1_555
C4_2 C3_2 1_555 1_555
H2_2 C4_2 1_555 1_555
C5_2 C4_2 1_555 1_555
C6_2 C5_2 1_555 1_555
H3_2 C6_2 1_555 1_555
C7_2 C2_2 1_555 1_555
H4_2 C7_2 1_555 1_555
C8_2 C5_2 1_555 1_555
C9_2 C8_2 1_555 1_555
H5_2 C9_2 1_555 1_555
C10_2 C9_2 1_555 1_555
C11_2 C10_2 1_555 1_555
H6_2 C11_2 1_555 1_555
C12_2 C11_2 1_555 1_555
C13_2 C8_2 1_555 1_555
H7_2 C13_2 1_555 1_555
C14_2 C10_2 1_555 1_555
C15_2 C14_2 1_555 1_555
H8_2 C15_2 1_555 1_555
C16_2 C15_2 1_555 1_555
H9_2 C16_2 1_555 1_555
C17_2 C16_2 1_555 1_555
C18_2 C17_2 1_555 1_555
H10_2 C18_2 1_555 1_555
C19_2 C14_2 1_555 1_555
H11_2 C19_2 1_555 1_555
C20_2 C17_2 1_555 1_555
O4_2 Zn1 1_555 1_555
O4_3 Zn1_2 1_555 1_555
O5_2 Zn2_2 1_555 1_555
O5A Zn2 1_555 1_555
O5A_2 Zn2_2 1_555 1_555
C21_2 C12_2 1_555 1_555
C22_2 C21_2 1_555 1_555
H12_2 C22_2 1_555 1_555
C23_2 C22_2 1_555 1_555
H13_2 C23_2 1_555 1_555
C24_2 C23_2 1_555 1_555
C25_2 C24_2 1_555 1_555
H14_2 C25_2 1_555 1_555
C26_2 C21_2 1_555 1_555
H15_2 C26_2 1_555 1_555
C27_2 C24_2 1_555 1_555
C28A C29A 1_555 1_555
C29A C30A 1_555 1_555
C30A H16A 1_555 1_555
C31A C30A 1_555 1_555
H17A C31A 1_555 1_555
C32A C31A 1_555 1_555
C33A C32A 1_555 1_555
H18A C33A 1_555 1_555
C34A C29A 1_555 1_555
H19A C34A 1_555 1_555
C35A C36 1_555 1_555
C37A C38 1_555 1_555
H21A C37A 1_555 1_555
C40A C39 1_555 1_555
H22A C40A 1_555 1_555
C41A C42 1_555 1_555
H23A C41A 1_555 1_555
C44A C45A 1_555 1_555
C45A C46A 1_555 1_555
C46A C46 1_555 1_555
H24A C46A 1_555 1_555
C47A C47 1_555 1_555
H25A C47A 1_555 1_555
O6_2 C27_2 1_555 1_555
O6B Zn1 1_555 1_555
O6B_2 Zn1_2 1_555 1_555
O7_2 Zn2B_2 1_555 1_555
O7B Zn2 1_555 1_555
O7C Zn2 1_555 1_555
O7B_2 Zn2_2 1_555 1_555
O7C_2 Zn2_2 1_555 1_555
O8A C28A 1_555 1_555
O9A C28A 1_555 1_555
O9A_2 Zn3 1_555 1_555
O9_2 Zn3A 1_555 1_555
O10A C43 1_555 1_555
O10B Zn3 1_555 1_555
O10C Zn3A 1_555 1_555
O11A C44A 1_555 1_555
O11A_2 Zn3A 1_555 1_555
O12A C44A 1_555 1_555
O13_2 Zn1_2 1_555 1_555
O14_2 Zn1_2 1_555 1_555
C1 O3 1_555 1_555
C6 C7 1_555 1_555
C12 C13 1_555 1_555
C18 C19 1_555 1_555
O5 Zn2A 1_555 1_555
C25 C26 1_555 1_555
C33 C34 1_555 1_555
C44 O11 1_555 1_555
O13 O14 1_555 1_555
Zn2A O5A 1_555 1_555
Zn2A O7B 1_555 1_555
Zn2A O7C 1_555 1_555
Zn2B Zn2C 1_555 1_555
Zn2A_2 O5A_2 1_555 1_555
Zn2A_2 O7B_2 1_555 1_555
Zn2A_2 O7C_2 1_555 1_555
C1_2 O3_2 1_555 1_555
C6_2 C7_2 1_555 1_555
C12_2 C13_2 1_555 1_555
C18_2 C19_2 1_555 1_555
C20_2 O4_2 1_555 1_555
C20_2 O5_2 1_555 1_555
C25_2 C26_2 1_555 1_555
C27_2 O7_2 1_555 1_555
C32A C35A 1_555 1_555
C33A C34A 1_555 1_555
C35A C37A 1_555 1_555
C40A C41A 1_555 1_555
C45A C47A 1_555 1_555
O13_2 O14_2 1_555 1_555

#END
