
#######################################################################
#
#                 Cambridge Crystallographic Data Centre
#                                CCDC 
#
#######################################################################
#
# If this CIF has been generated from an entry in the Cambridge 
# Structural Database, then it will include bibliographic, chemical, 
# crystal, experimental, refinement or atomic coordinate data resulting 
# from the CCDC's data processing and validation procedures.
#
#######################################################################

data_GUYBAE
_symmetry_cell_setting           monoclinic
_symmetry_space_group_name_H-M   'P 21/n'
_symmetry_Int_Tables_number      14
_space_group_name_Hall           '-P 2yn'
loop_
_symmetry_equiv_pos_site_id
_symmetry_equiv_pos_as_xyz
1 x,y,z
2 1/2-x,1/2+y,1/2-z
3 -x,-y,-z
4 1/2+x,1/2-y,1/2+z
_cell_length_a                   9.8051(5)
_cell_length_b                   19.5696(9)
_cell_length_c                   17.3390(8)
_cell_angle_alpha                90
_cell_angle_beta                 92.0150(10)
_cell_angle_gamma                90
_cell_volume                     3324.98
loop_
_atom_site_label
_atom_site_type_symbol
_atom_site_fract_x
_atom_site_fract_y
_atom_site_fract_z
N1 N 0.3845(9) -0.1726(5) 0.7302(5)
H1 H 0.3484 -0.2119 0.7435
C1 C 0.5074(14) -0.1733(7) 0.7013(8)
H2 H 0.5524 -0.2156 0.6930
C2 C 0.5701(13) -0.1128(8) 0.6834(8)
H3 H 0.6601 -0.1135 0.6649
C3 C 0.5039(11) -0.0510(7) 0.6918(7)
H4 H 0.5460 -0.0093 0.6778
C4 C 0.3712(10) -0.0517(6) 0.7220(7)
C5 C 0.3001(12) 0.0103(6) 0.7346(6)
H5 H 0.3411 0.0526 0.7217
C6 C 0.1754(13) 0.0100(5) 0.7647(7)
H6 H 0.1309 0.0522 0.7740
C7 C 0.1083(10) -0.0532(5) 0.7829(6)
C8 C -0.0218(12) -0.0550(6) 0.8122(7)
H7 H -0.0685 -0.0134 0.8217
C9 C -0.0837(12) -0.1169(6) 0.8275(7)
H8 H -0.1728 -0.1182 0.8473
C10 C -0.0158(12) -0.1750(6) 0.8139(7)
H9 H -0.0577 -0.2175 0.8246
N2 N 0.1070(9) -0.1744(4) 0.7860(5)
H10 H 0.1467 -0.2139 0.7774
C11 C 0.1788(11) -0.1143(5) 0.7693(6)
C12 C 0.3092(11) -0.1137(5) 0.7409(6)
U1 U 0.71422(3) 0.258368(18) 1.01197(2)
O1 O 0.7020(7) 0.2026(4) 1.0922(4)
O2 O 0.7169(7) 0.3163(3) 0.9334(4)
U2 U 0.29220(3) 0.237073(18) 0.96406(2)
O3 O 0.3074(7) 0.2925(4) 0.8830(4)
O4 O 0.2851(7) 0.1829(3) 1.0442(4)
U3 U 0.25287(3) 0.365710(19) 1.24235(2)
O5 O 0.2509(7) 0.2750(4) 1.2546(4)
O6 O 0.2548(7) 0.4563(4) 1.2303(4)
P1 P 0.5085(3) 0.35769(13) 1.08687(15)
O7 O 0.6600(6) 0.3464(3) 1.1067(4)
O8 O 0.4710(7) 0.3004(3) 1.0291(4)
O9 O 0.4210(7) 0.3584(4) 1.1566(4)
C13 C 0.4943(10) 0.4374(5) 1.0371(6)
C14 C 0.5095(11) 0.4400(5) 0.9575(6)
H11 H 0.5175 0.3990 0.9287
P2 P 0.4952(2) 0.13306(12) 0.89535(14)
O10 O 0.5360(7) 0.1947(3) 0.9467(4)
O11 O 0.3446(7) 0.1453(3) 0.8733(4)
O12 O 0.5852(7) 0.1217(4) 0.8270(4)
C15 C 0.5053(10) 0.0588(5) 0.9549(6)
C16 C 0.4872(11) 0.4985(5) 1.0783(6)
H12 H 0.4800 0.4970 1.1328
C17 C 0.4984(11) 0.0634(6) 1.0364(6)
H13 H 0.4965 0.1069 1.0606
C18 C 0.5054(11) -0.0055(6) 0.9199(6)
H14 H 0.5082 -0.0089 0.8654
P3 P 0.9617(3) 0.14567(13) 0.91634(15)
O13 O 1.0886(7) 0.1895(3) 0.9203(4)
O14 O 0.9263(7) 0.1246(4) 0.8323(4)
O15 O 0.8412(7) 0.1805(3) 0.9514(4)
C19 C 0.9866(9) 0.0660(5) 0.9677(5)
C20 C 1.1117(11) 0.0318(5) 0.9697(6)
H15 H 1.1886 0.0528 0.9477
C21 C 0.8741(9) 0.0330(5) 0.9964(6)
H16 H 0.7870 0.0543 0.9931
P4 P 1.0458(3) 0.34712(13) 1.06297(15)
O16 O 1.0892(8) 0.3564(4) 1.1478(4)
O17 O 0.9191(7) 0.3038(4) 1.0555(4)
O18 O 1.1629(7) 0.3175(4) 1.0196(5)
C22 C 1.0145(10) 0.4323(5) 1.0257(6)
C23 C 1.1266(11) 0.4698(5) 0.9994(6)
H17 H 1.2138 0.4488 0.9980
C24 C 0.8893(12) 0.4625(6) 1.0246(7)
H18 H 0.8122 0.4373 1.0403
U1B U 0.28578(3) 0.741632(18) 0.98803(2)
U1B_2 U 0.28578(3) -0.258368(18) 0.98803(2)
U1B_3 U 1.28578(3) -0.258368(18) 0.98803(2)
U1B_4 U 1.28578(3) 0.741632(18) 0.98803(2)
O1B O 0.2980(7) 0.7974(4) 0.9078(4)
O2B O 0.2831(7) 0.6837(3) 1.0666(4)
U2B U 0.70780(3) 0.762927(18) 1.03594(2)
U2_2 U 1.29220(3) 0.237073(18) 0.96406(2)
U2B_2 U 0.70780(3) -0.237073(18) 1.03594(2)
O3B O 0.6926(7) 0.7075(4) 1.1170(4)
O4B O 0.7149(7) 0.8171(3) 0.9558(4)
U3B U 0.74713(3) 0.634290(19) 0.75765(2)
U3C U 0.75287(3) 0.134290(19) 0.74235(2)
U3_2 U 1.25287(3) 0.365710(19) 1.24235(2)
U3A U 0.24713(3) -0.134290(19) 1.25765(2)
U3A_2 U 1.24713(3) -0.134290(19) 1.25765(2)
O5B O 0.7491(7) 0.7250(4) 0.7454(4)
O6B O 0.7452(7) 0.5437(4) 0.7697(4)
P1B P 0.4915(3) 0.64231(13) 0.91313(15)
O7B O 0.3400(6) 0.6536(3) 0.8933(4)
O8B O 0.5290(7) 0.6996(3) 0.9709(4)
O9B O 0.5790(7) 0.6416(4) 0.8434(4)
C13B C 0.5057(10) 0.5626(5) 0.9629(6)
C14B C 0.4905(11) 0.5600(5) 1.0425(6)
H11B H 0.4825 0.6010 1.0713
P2B P 0.5048(2) -0.13306(12) 1.10465(14)
O10B O 0.4640(7) -0.1947(3) 1.0533(4)
O10B_2 O 0.4640(7) 0.8053(3) 1.0533(4)
O11B O 0.6554(7) -0.1453(3) 1.1267(4)
O11B_2 O 0.6554(7) 0.8547(3) 1.1267(4)
O12B O 0.4148(7) -0.1217(4) 1.1730(4)
O12C O 0.0852(7) 0.3783(4) 1.3270(4)
O12A O 0.9148(7) 0.6217(4) 0.6730(4)
C15B C 0.4947(10) -0.0588(5) 1.0451(6)
C16B C 0.5128(11) 0.5015(5) 0.9217(6)
H12B H 0.5200 0.5030 0.8672
C17B C 0.5016(11) -0.0634(6) 0.9636(6)
H13B H 0.5035 -0.1069 0.9394
C18B C 0.4946(11) 0.0055(6) 1.0801(6)
H14B H 0.4918 0.0089 1.1346
P3B P 1.0383(3) -0.14567(13) 1.08366(15)
O13B O 0.9114(7) -0.1895(3) 1.0797(4)
O13_2 O 0.0886(7) 0.1895(3) 0.9203(4)
O13B_2 O 0.9114(7) 0.8105(3) 1.0797(4)
O14B O 1.0737(7) -0.1246(4) 1.1677(4)
O14C O 0.4263(7) 0.3754(4) 1.3323(4)
O14A O 0.5737(7) 0.6246(4) 0.6677(4)
O15B O 1.1588(7) -0.1805(3) 1.0486(4)
O15B_2 O 0.1588(7) 0.8195(3) 1.0486(4)
C19B C 1.0134(9) -0.0660(5) 1.0323(5)
C20B C 0.8883(11) -0.0318(5) 1.0303(6)
H15B H 0.8114 -0.0528 1.0523
C21B C 1.1259(9) -0.0330(5) 1.0036(6)
H16B H 1.2130 -0.0543 1.0069
P4B P 0.9542(3) 0.65288(13) 0.93703(15)
O16B O 0.9108(8) 0.6436(4) 0.8522(4)
O16_2 O 0.0892(8) 0.3564(4) 1.1478(4)
O17B O 1.0809(7) 0.6962(4) 0.9445(4)
O17B_2 O 0.0809(7) 0.6962(4) 0.9445(4)
O18B O 0.8371(7) 0.6825(4) 0.9804(5)
O18_2 O 0.1629(7) 0.3175(4) 1.0196(5)
C22B C 0.9855(10) 0.5677(5) 0.9743(6)
C23B C 0.8734(11) 0.5302(5) 1.0006(6)
H17B H 0.7862 0.5512 1.0020
C24B C 1.1107(12) 0.5375(6) 0.9754(7)
H18B H 1.1878 0.5627 0.9597
O19 O 0.7507(8) 0.2928(4) 1.2399(4)
loop_
_geom_bond_atom_site_label_1
_geom_bond_atom_site_label_2
_geom_bond_site_symmetry_1
_geom_bond_site_symmetry_2
N1 H1 1_555 1_555
C1 N1 1_555 1_555
H2 C1 1_555 1_555
C2 C1 1_555 1_555
H3 C2 1_555 1_555
C3 C2 1_555 1_555
H4 C3 1_555 1_555
C4 C3 1_555 1_555
C5 C4 1_555 1_555
H5 C5 1_555 1_555
C6 C5 1_555 1_555
H6 C6 1_555 1_555
C7 C6 1_555 1_555
C8 C7 1_555 1_555
H7 C8 1_555 1_555
C9 C8 1_555 1_555
H8 C9 1_555 1_555
C10 C9 1_555 1_555
H9 C10 1_555 1_555
N2 C10 1_555 1_555
H10 N2 1_555 1_555
C11 C7 1_555 1_555
C12 N1 1_555 1_555
U1 O1 1_555 1_555
O2 U1 1_555 1_555
U2 O3 1_555 1_555
O4 U2 1_555 1_555
U3 O5 1_555 1_555
O6 U3 1_555 1_555
P1 O7 1_555 1_555
O7 U1 1_555 1_555
O8 U1 1_555 1_555
O9 U3 1_555 1_555
C13 P1 1_555 1_555
C14 C13 1_555 1_555
H11 C14 1_555 1_555
P2 O10 1_555 1_555
O10 U1 1_555 1_555
O11 U2 1_555 1_555
O12 P2 1_555 1_555
C15 P2 1_555 1_555
C16 C13 1_555 1_555
H12 C16 1_555 1_555
C17 C15 1_555 1_555
H13 C17 1_555 1_555
C18 C15 1_555 1_555
H14 C18 1_555 1_555
P3 O13 1_555 1_555
O13 U2_2 1_555 1_555
O14 P3 1_555 1_555
O15 U1 1_555 1_555
C19 P3 1_555 1_555
C20 C19 1_555 1_555
H15 C20 1_555 1_555
C21 C19 1_555 1_555
H16 C21 1_555 1_555
P4 O16 1_555 1_555
O16 U3_2 1_555 1_555
O17 U1 1_555 1_555
O18 P4 1_555 1_555
C22 P4 1_555 1_555
C23 C22 1_555 1_555
H17 C23 1_555 1_555
C24 C22 1_555 1_555
H18 C24 1_555 1_555
U1B O1B 1_555 1_555
U1B_2 O10B 1_555 1_555
U1B_3 O15B 1_555 1_555
U1B_4 O17B 1_555 1_555
O2B U1B 1_555 1_555
U2B O3B 1_555 1_555
U2_2 O18 1_555 1_555
U2B_2 O10B 1_555 1_555
O4B U2B 1_555 1_555
U3B O5B 1_555 1_555
U3C O12 1_555 1_555
U3A O12B 1_555 1_555
U3A_2 O14B 1_555 1_555
O6B U3B 1_555 1_555
P1B O7B 1_555 1_555
O7B U1B 1_555 1_555
O8B U1B 1_555 1_555
O9B U3B 1_555 1_555
C13B P1B 1_555 1_555
C14B C16 1_555 1_555
H11B C14B 1_555 1_555
P2B O10B 1_555 1_555
O10B_2 U1B 1_555 1_555
O11B U2B_2 1_555 1_555
O11B_2 U2B 1_555 1_555
O12B P2B 1_555 1_555
O12C U3 1_555 1_555
O12A U3B 1_555 1_555
C15B P2B 1_555 1_555
C16B C14 1_555 1_555
H12B C16B 1_555 1_555
C17B C18 1_555 1_555
H13B C17B 1_555 1_555
C18B C17 1_555 1_555
H14B C18B 1_555 1_555
P3B O13B 1_555 1_555
O13B U2B_2 1_555 1_555
O13_2 U2 1_555 1_555
O13B_2 U2B 1_555 1_555
O14B P3B 1_555 1_555
O14C U3 1_555 1_555
O14A U3B 1_555 1_555
O15B P3B 1_555 1_555
O15B_2 U1B 1_555 1_555
C19B P3B 1_555 1_555
C20B C21 1_555 1_555
H15B C20B 1_555 1_555
C21B C20 1_555 1_555
H16B C21B 1_555 1_555
P4B O16B 1_555 1_555
O16B U3B 1_555 1_555
O16_2 U3 1_555 1_555
O17B P4B 1_555 1_555
O17B_2 U1B 1_555 1_555
O18B U2B 1_555 1_555
O18_2 U2 1_555 1_555
C22B P4B 1_555 1_555
C23B C24 1_555 1_555
H17B C23B 1_555 1_555
C24B C23 1_555 1_555
H18B C24B 1_555 1_555
C4 C12 1_555 1_555
N2 C11 1_555 1_555
C11 C12 1_555 1_555
U2 O8 1_555 1_555
U2 O10 1_555 1_555
P1 O8 1_555 1_555
P1 O9 1_555 1_555
P2 O11 1_555 1_555
P3 O15 1_555 1_555
O14 U3C 1_555 1_555
P4 O17 1_555 1_555
U2B O8B 1_555 1_555
U2B O10B_2 1_555 1_555
P1B O8B 1_555 1_555
P1B O9B 1_555 1_555
C13B C14B 1_555 1_555
C13B C16B 1_555 1_555
P2B O11B 1_555 1_555
C15B C17B 1_555 1_555
C15B C18B 1_555 1_555
C19B C20B 1_555 1_555
C19B C21B 1_555 1_555
P4B O18B 1_555 1_555
C22B C23B 1_555 1_555
C22B C24B 1_555 1_555

#END
