
#######################################################################
#
#                 Cambridge Crystallographic Data Centre
#                                CCDC 
#
#######################################################################
#
# If this CIF has been generated from an entry in the Cambridge 
# Structural Database, then it will include bibliographic, chemical, 
# crystal, experimental, refinement or atomic coordinate data resulting 
# from the CCDC's data processing and validation procedures.
#
#######################################################################

data_HAFVOB
_symmetry_cell_setting           orthorhombic
_symmetry_space_group_name_H-M   'P c c a'
_symmetry_Int_Tables_number      54
_space_group_name_Hall           '-P 2a 2ac'
loop_
_symmetry_equiv_pos_site_id
_symmetry_equiv_pos_as_xyz
1 x,y,z
2 1/2-x,-y,z
3 -x,y,1/2-z
4 1/2+x,-y,1/2-z
5 -x,-y,-z
6 1/2+x,y,-z
7 x,-y,1/2+z
8 1/2-x,y,1/2+z
_cell_length_a                   23.476(5)
_cell_length_b                   9.5054(19)
_cell_length_c                   27.629(6)
_cell_angle_alpha                90
_cell_angle_beta                 90
_cell_angle_gamma                90
_cell_volume                     6165.38
loop_
_atom_site_label
_atom_site_type_symbol
_atom_site_fract_x
_atom_site_fract_y
_atom_site_fract_z
Ca1 Ca 0.29856(5) -0.34928(14) 0.12792(4)
Ca2 Ca 0.2500 0.0000 0.10670(5)
P1 P -0.08372(7) -0.3116(2) 0.16110(5)
O1 O 0.20221(17) -0.2140(5) 0.12372(15)
O2 O 0.20095(16) -0.4181(5) 0.16123(13)
O3 O -0.1836(2) 0.0309(6) -0.03907(15)
O4 O -0.19751(18) -0.1888(5) -0.06219(14)
O5 O -0.19655(19) 0.1123(5) 0.33417(14)
O6 O -0.1360(2) 0.2635(6) 0.30495(18)
O7 O 0.2500 -0.5000 0.06696(17)
C1 C -0.0063(2) -0.2991(7) 0.15542(18)
C2 C 0.0251(2) -0.3873(7) 0.18388(19)
H1 H 0.0061 -0.4479 0.2060
C3 C 0.0847(2) -0.3899(7) 0.18111(19)
H2 H 0.1057 -0.4537 0.2006
C4 C 0.1127(2) -0.2996(6) 0.14992(17)
C5 C 0.0813(3) -0.2097(8) 0.1222(2)
H3 H 0.1004 -0.1453 0.1015
C6 C 0.0233(3) -0.2098(8) 0.1234(2)
H4 H 0.0026 -0.1492 0.1024
C7 C 0.1756(2) -0.3108(7) 0.14510(19)
C8 C -0.1100(2) -0.2386(8) 0.10331(19)
C9 C -0.1301(3) -0.3354(7) 0.0699(2)
H5 H -0.1296 -0.4329 0.0775
C10 C -0.1509(3) -0.2917(7) 0.0257(2)
H6 H -0.1635 -0.3594 0.0028
C11 C -0.1536(2) -0.1480(7) 0.01429(18)
C12 C -0.1330(3) -0.0510(8) 0.0478(2)
H7 H -0.1331 0.0466 0.0405
C13 C -0.1121(3) -0.0985(8) 0.0919(2)
H8 H -0.0988 -0.0317 0.1149
C14 C -0.1795(3) -0.0994(8) -0.0313(2)
C15 C -0.1008(2) -0.1709(7) 0.20466(18)
C16 C -0.1534(3) -0.1815(7) 0.2278(2)
H9 H -0.1776 -0.2590 0.2208
C17 C -0.1708(3) -0.0813(7) 0.26065(19)
H10 H -0.2068 -0.0906 0.2761
C18 C -0.1367(2) 0.0318(7) 0.27132(18)
C19 C -0.0839(3) 0.0451(8) 0.2493(2)
H11 H -0.0602 0.1234 0.2562
C20 C -0.0659(3) -0.0607(8) 0.2160(2)
H12 H -0.0292 -0.0545 0.2016
C21 C -0.1574(3) 0.1424(9) 0.30541(19)
N1 N 0.4743(4) -0.3258(15) 0.0749(6)
C22 C 0.4652(10) -0.186(2) 0.0880(13)
H13 H 0.4244 -0.1699 0.0931
H14 H 0.4788 -0.1238 0.0621
H15 H 0.4859 -0.1651 0.1179
C23 C 0.5286(9) -0.360(3) 0.0599(14)
H16 H 0.5282 -0.4524 0.0443
H17 H 0.5541 -0.3623 0.0880
H18 H 0.5421 -0.2890 0.0369
C24 C 0.4307(5) -0.4190(13) 0.0770(4)
H19 H 0.4382 -0.5087 0.0632
O8 O 0.3851(2) -0.4042(7) 0.09344(18)
Ca1A Ca 0.20144(5) 0.34928(14) 0.12792(4)
Ca1A_2 Ca 0.20144(5) -0.65072(14) 0.12792(4)
Ca1E Ca -0.20144(5) -0.34928(14) -0.12792(4)
Ca1C Ca -0.20144(5) 0.34928(14) 0.37208(4)
Ca1_2 Ca 0.29856(5) 0.65072(14) 0.12792(4)
Ca1D Ca 0.70144(5) 0.34928(14) -0.12792(4)
Ca1B Ca 0.70144(5) -0.34928(14) 0.37208(4)
Ca2D Ca -0.2500 0.0000 -0.10670(5)
Ca2B Ca -0.2500 0.0000 0.39330(5)
Ca2D_2 Ca 0.7500 0.0000 -0.10670(5)
Ca2B_2 Ca 0.7500 0.0000 0.39330(5)
P1A P 0.58372(7) 0.3116(2) 0.16110(5)
O1A O 0.29779(17) 0.2140(5) 0.12372(15)
O2A O 0.29905(16) 0.4181(5) 0.16123(13)
O2A_2 O 0.29905(16) -0.5819(5) 0.16123(13)
O2_2 O 0.20095(16) 0.5819(5) 0.16123(13)
O3A O 0.6836(2) -0.0309(6) -0.03907(15)
O3D O 0.1836(2) -0.0309(6) 0.03907(15)
O3E O 0.3164(2) 0.0309(6) 0.03907(15)
O4A O 0.69751(18) 0.1888(5) -0.06219(14)
O4E O 0.30249(18) -0.1888(5) 0.06219(14)
O4D O 0.19751(18) 0.1888(5) 0.06219(14)
O5A O 0.69655(19) -0.1123(5) 0.33417(14)
O5C O 0.30345(19) -0.1123(5) 0.16583(14)
O5B O 0.19655(19) 0.1123(5) 0.16583(14)
O6A O 0.6360(2) -0.2635(6) 0.30495(18)
O6C O 0.3640(2) -0.2635(6) 0.19505(18)
O6B O 0.1360(2) 0.2635(6) 0.19505(18)
O7_2 O 0.2500 0.5000 0.06696(17)
C1A C 0.5063(2) 0.2991(7) 0.15542(18)
C2A C 0.4749(2) 0.3873(7) 0.18388(19)
H1A H 0.4939 0.4479 0.2060
C3A C 0.4153(2) 0.3899(7) 0.18111(19)
H2A H 0.3943 0.4537 0.2006
C4A C 0.3873(2) 0.2996(6) 0.14992(17)
C5A C 0.4187(3) 0.2097(8) 0.1222(2)
H3A H 0.3996 0.1453 0.1015
C6A C 0.4767(3) 0.2098(8) 0.1234(2)
H4A H 0.4974 0.1492 0.1024
C7A C 0.3244(2) 0.3108(7) 0.14510(19)
C8A C 0.6100(2) 0.2386(8) 0.10331(19)
C9A C 0.6301(3) 0.3354(7) 0.0699(2)
H5A H 0.6296 0.4329 0.0775
C10A C 0.6509(3) 0.2917(7) 0.0257(2)
H6A H 0.6635 0.3594 0.0028
C11A C 0.6536(2) 0.1480(7) 0.01429(18)
C12A C 0.6330(3) 0.0510(8) 0.0478(2)
H7A H 0.6331 -0.0466 0.0405
C13A C 0.6121(3) 0.0985(8) 0.0919(2)
H8A H 0.5988 0.0317 0.1149
C14A C 0.6795(3) 0.0994(8) -0.0313(2)
C15A C 0.6008(2) 0.1709(7) 0.20466(18)
C16A C 0.6534(3) 0.1815(7) 0.2278(2)
H9A H 0.6776 0.2590 0.2208
C17A C 0.6708(3) 0.0813(7) 0.26065(19)
H10A H 0.7068 0.0906 0.2761
C18A C 0.6367(2) -0.0318(7) 0.27132(18)
C19A C 0.5839(3) -0.0451(8) 0.2493(2)
H11A H 0.5602 -0.1234 0.2562
C20A C 0.5659(3) 0.0607(8) 0.2160(2)
H12A H 0.5292 0.0545 0.2016
C21A C 0.6574(3) -0.1424(9) 0.30541(19)
N1A N 0.0257(4) 0.3258(15) 0.0749(6)
C22A C 0.0348(10) 0.186(2) 0.0880(13)
H13A H 0.0756 0.1699 0.0931
H14A H 0.0212 0.1238 0.0621
H15A H 0.0141 0.1651 0.1179
C23A C -0.0286(9) 0.360(3) 0.0599(14)
H16A H -0.0282 0.4524 0.0443
H17A H -0.0541 0.3623 0.0880
H18A H -0.0421 0.2890 0.0369
C24A C 0.0693(5) 0.4190(13) 0.0770(4)
H19A H 0.0618 0.5087 0.0632
O8A O 0.1149(2) 0.4042(7) 0.09344(18)
loop_
_geom_bond_atom_site_label_1
_geom_bond_atom_site_label_2
_geom_bond_site_symmetry_1
_geom_bond_site_symmetry_2
Ca1 O1 1_555 1_555
Ca2 O1 1_555 1_555
P1 C1 1_555 1_555
O1 C7 1_555 1_555
O2 Ca1 1_555 1_555
O3 C14 1_555 1_555
O4 C14 1_555 1_555
O5 C21 1_555 1_555
O6 C21 1_555 1_555
O7 Ca1 1_555 1_555
C1 C2 1_555 1_555
C2 H1 1_555 1_555
C3 C2 1_555 1_555
H2 C3 1_555 1_555
C4 C3 1_555 1_555
C5 C4 1_555 1_555
H3 C5 1_555 1_555
C6 C1 1_555 1_555
H4 C6 1_555 1_555
C7 O2 1_555 1_555
C8 P1 1_555 1_555
C9 C8 1_555 1_555
H5 C9 1_555 1_555
C10 C9 1_555 1_555
H6 C10 1_555 1_555
C11 C10 1_555 1_555
C12 C11 1_555 1_555
H7 C12 1_555 1_555
C13 C8 1_555 1_555
H8 C13 1_555 1_555
C14 C11 1_555 1_555
C15 P1 1_555 1_555
C16 C15 1_555 1_555
H9 C16 1_555 1_555
C17 C16 1_555 1_555
H10 C17 1_555 1_555
C18 C17 1_555 1_555
C19 C18 1_555 1_555
H11 C19 1_555 1_555
C20 C15 1_555 1_555
H12 C20 1_555 1_555
C21 C18 1_555 1_555
N1 C22 1_555 1_555
C22 H13 1_555 1_555
H14 C22 1_555 1_555
H15 C22 1_555 1_555
C23 N1 1_555 1_555
H16 C23 1_555 1_555
H17 C23 1_555 1_555
H18 C23 1_555 1_555
C24 N1 1_555 1_555
H19 C24 1_555 1_555
O8 Ca1 1_555 1_555
Ca1A O1A 1_555 1_555
Ca1A_2 O2 1_555 1_555
Ca1E O4 1_555 1_555
Ca1C O5 1_555 1_555
Ca1_2 O2A 1_555 1_555
Ca1D O4A 1_555 1_555
Ca1B O5A 1_555 1_555
Ca2D O3 1_555 1_555
Ca2B O5 1_555 1_555
Ca2D_2 O3A 1_555 1_555
Ca2B_2 O5A 1_555 1_555
P1A C1A 1_555 1_555
O1A Ca2 1_555 1_555
O2A Ca1A 1_555 1_555
O2A_2 Ca1 1_555 1_555
O2_2 Ca1A 1_555 1_555
O3A C14A 1_555 1_555
O3D Ca2 1_555 1_555
O3E Ca2 1_555 1_555
O4A Ca2D_2 1_555 1_555
O4E Ca1 1_555 1_555
O4D Ca2 1_555 1_555
O5A C21A 1_555 1_555
O5C Ca1 1_555 1_555
O5B Ca2 1_555 1_555
O6A Ca1B 1_555 1_555
O6C Ca1 1_555 1_555
O6B Ca1A 1_555 1_555
O7_2 Ca1A 1_555 1_555
C1A C2A 1_555 1_555
C2A H1A 1_555 1_555
C3A C2A 1_555 1_555
H2A C3A 1_555 1_555
C4A C3A 1_555 1_555
C5A C4A 1_555 1_555
H3A C5A 1_555 1_555
C6A C1A 1_555 1_555
H4A C6A 1_555 1_555
C7A O1A 1_555 1_555
C8A P1A 1_555 1_555
C9A C8A 1_555 1_555
H5A C9A 1_555 1_555
C10A C9A 1_555 1_555
H6A C10A 1_555 1_555
C11A C10A 1_555 1_555
C12A C11A 1_555 1_555
H7A C12A 1_555 1_555
C13A C8A 1_555 1_555
H8A C13A 1_555 1_555
C14A O4A 1_555 1_555
C15A P1A 1_555 1_555
C16A C15A 1_555 1_555
H9A C16A 1_555 1_555
C17A C16A 1_555 1_555
H10A C17A 1_555 1_555
C18A C17A 1_555 1_555
C19A C18A 1_555 1_555
H11A C19A 1_555 1_555
C20A C15A 1_555 1_555
H12A C20A 1_555 1_555
C21A O6A 1_555 1_555
N1A C22A 1_555 1_555
C22A H13A 1_555 1_555
H14A C22A 1_555 1_555
H15A C22A 1_555 1_555
C23A N1A 1_555 1_555
H16A C23A 1_555 1_555
H17A C23A 1_555 1_555
H18A C23A 1_555 1_555
C24A N1A 1_555 1_555
H19A C24A 1_555 1_555
O8A Ca1A 1_555 1_555
Ca2 O4E 1_555 1_555
Ca2 O5C 1_555 1_555
O4 Ca2D 1_555 1_555
O6 Ca1C 1_555 1_555
O7 Ca1A_2 1_555 1_555
C4 C7 1_555 1_555
C5 C6 1_555 1_555
C12 C13 1_555 1_555
C19 C20 1_555 1_555
C24 O8 1_555 1_555
Ca1A O4D 1_555 1_555
Ca1A O5B 1_555 1_555
Ca1A_2 O2A_2 1_555 1_555
Ca1_2 O2_2 1_555 1_555
Ca1_2 O7_2 1_555 1_555
O2A C7A 1_555 1_555
C4A C7A 1_555 1_555
C5A C6A 1_555 1_555
C11A C14A 1_555 1_555
C12A C13A 1_555 1_555
C18A C21A 1_555 1_555
C19A C20A 1_555 1_555
C24A O8A 1_555 1_555

#END
