
#######################################################################
#
#                 Cambridge Crystallographic Data Centre
#                                CCDC 
#
#######################################################################
#
# If this CIF has been generated from an entry in the Cambridge 
# Structural Database, then it will include bibliographic, chemical, 
# crystal, experimental, refinement or atomic coordinate data resulting 
# from the CCDC's data processing and validation procedures.
#
#######################################################################

data_HAJKIO
_symmetry_cell_setting           orthorhombic
_symmetry_space_group_name_H-M   'F d d d'
_symmetry_Int_Tables_number      70
_space_group_name_Hall           '-F 2uv 2vw'
loop_
_symmetry_equiv_pos_site_id
_symmetry_equiv_pos_as_xyz
1 x,y,z
2 1/4-x,1/4-y,z
3 x,1/4-y,1/4-z
4 1/4-x,y,1/4-z
5 x,1/2+y,1/2+z
6 1/4-x,3/4-y,1/2+z
7 x,3/4-y,3/4-z
8 1/4-x,1/2+y,3/4-z
9 1/2+x,y,1/2+z
10 3/4-x,1/4-y,1/2+z
11 1/2+x,1/4-y,3/4-z
12 3/4-x,y,3/4-z
13 1/2+x,1/2+y,z
14 3/4-x,3/4-y,z
15 1/2+x,3/4-y,1/4-z
16 3/4-x,1/2+y,1/4-z
17 -x,-y,-z
18 3/4+x,3/4+y,-z
19 -x,3/4+y,3/4+z
20 3/4+x,-y,3/4+z
21 -x,1/2-y,1/2-z
22 3/4+x,1/4+y,1/2-z
23 -x,1/4+y,1/4+z
24 3/4+x,1/2-y,1/4+z
25 1/2-x,-y,1/2-z
26 1/4+x,3/4+y,1/2-z
27 1/2-x,3/4+y,1/4+z
28 1/4+x,-y,1/4+z
29 1/2-x,1/2-y,-z
30 1/4+x,1/4+y,-z
31 1/2-x,1/4+y,3/4+z
32 1/4+x,1/2-y,3/4+z
_cell_length_a                   12.869(5)
_cell_length_b                   23.643(10)
_cell_length_c                   24.900(11)
_cell_angle_alpha                90
_cell_angle_beta                 90
_cell_angle_gamma                90
_cell_volume                     7576.12
loop_
_atom_site_label
_atom_site_type_symbol
_atom_site_fract_x
_atom_site_fract_y
_atom_site_fract_z
C1 C 0.4329(3) 0.16316(18) -0.0468(2)
C2 C 0.4733(3) 0.20260(18) -0.00430(17)
C3 C 0.5794(4) 0.2053(2) 0.0068(2)
H1 H 0.6270 0.1827 -0.0113
C4 C 0.6102(3) 0.2429(3) 0.0454(3)
H2 H 0.6811 0.2464 0.0519
C5 C 0.4429(3) 0.27088(18) 0.06552(19)
C6 C 0.4051(3) 0.2345(2) 0.0251(2)
H3 H 0.3341 0.2321 0.0185
Cd1 Cd 0.6250 0.342120(16) 0.1250
N1 N 0.5449(3) 0.27523(15) 0.07489(16)
N2 N 0.3780(3) 0.3014(3) 0.0967(3)
H4 H 0.4025 0.3410 0.0987
H5 H 0.3170 0.3025 0.0840
O1 O 0.3386(3) 0.16495(17) -0.05967(17)
O2 O 0.4960(3) 0.12917(13) -0.06815(15)
C1C C 0.8171(3) 0.16316(18) 0.2968(2)
C2C C 0.7767(3) 0.20260(18) 0.25430(17)
C3C C 0.6706(4) 0.2053(2) 0.2432(2)
H1C H 0.6230 0.1827 0.2613
C4C C 0.6398(3) 0.2429(3) 0.2046(3)
H2C H 0.5689 0.2464 0.1981
C5C C 0.8071(3) 0.27088(18) 0.18448(19)
C6C C 0.8449(3) 0.2345(2) 0.2249(2)
H3C H 0.9159 0.2321 0.2315
Cd1Q Cd 0.3750 0.092120(16) -0.1250
Cd1Y Cd 0.8750 0.092120(16) 0.3750
N1C N 0.7051(3) 0.27523(15) 0.17511(16)
N2C N 0.8720(3) 0.3014(3) 0.1533(3)
H4C H 0.8475 0.3410 0.1513
H5C H 0.9330 0.3025 0.1660
O1C O 0.9114(3) 0.16495(17) 0.30967(17)
O1CA O 0.5886(3) 0.41495(17) 0.05967(17)
O1V O 0.6614(3) 0.41495(17) 0.19033(17)
O2C O 0.7540(3) 0.12917(13) 0.31815(15)
O2CA O 0.7460(3) 0.37917(13) 0.06815(15)
O2V O 0.5040(3) 0.37917(13) 0.18185(15)
loop_
_geom_bond_atom_site_label_1
_geom_bond_atom_site_label_2
_geom_bond_site_symmetry_1
_geom_bond_site_symmetry_2
C1 C2 1_555 1_555
C2 C3 1_555 1_555
C3 H1 1_555 1_555
C4 C3 1_555 1_555
H2 C4 1_555 1_555
C5 C6 1_555 1_555
C6 C2 1_555 1_555
H3 C6 1_555 1_555
Cd1 N1 1_555 1_555
N1 C4 1_555 1_555
N2 C5 1_555 1_555
H4 N2 1_555 1_555
H5 N2 1_555 1_555
O1 C1 1_555 1_555
O2 C1 1_555 1_555
C1C C2C 1_555 1_555
C2C C3C 1_555 1_555
C3C H1C 1_555 1_555
C4C C3C 1_555 1_555
H2C C4C 1_555 1_555
C5C C6C 1_555 1_555
C6C C2C 1_555 1_555
H3C C6C 1_555 1_555
Cd1Q O1 1_555 1_555
Cd1Y O1C 1_555 1_555
N1C Cd1 1_555 1_555
N2C C5C 1_555 1_555
H4C N2C 1_555 1_555
H5C N2C 1_555 1_555
O1C C1C 1_555 1_555
O1CA Cd1 1_555 1_555
O1V Cd1 1_555 1_555
O2C C1C 1_555 1_555
O2CA Cd1 1_555 1_555
O2V Cd1 1_555 1_555
C5 N1 1_555 1_555
O2 Cd1Q 1_555 1_555
C4C N1C 1_555 1_555
C5C N1C 1_555 1_555
Cd1Y O2C 1_555 1_555

#END
