
#######################################################################
#
#                 Cambridge Crystallographic Data Centre
#                                CCDC 
#
#######################################################################
#
# If this CIF has been generated from an entry in the Cambridge 
# Structural Database, then it will include bibliographic, chemical, 
# crystal, experimental, refinement or atomic coordinate data resulting 
# from the CCDC's data processing and validation procedures.
#
#######################################################################

data_HAKCIG
_symmetry_cell_setting           monoclinic
_symmetry_space_group_name_H-M   'C 2/c'
_symmetry_Int_Tables_number      15
_space_group_name_Hall           '-C 2yn'
loop_
_symmetry_equiv_pos_site_id
_symmetry_equiv_pos_as_xyz
1 x,y,z
2 1/2+x,1/2+y,z
3 -x,y,1/2-z
4 1/2-x,1/2+y,1/2-z
5 -x,-y,-z
6 1/2-x,1/2-y,-z
7 x,-y,1/2+z
8 1/2+x,1/2-y,1/2+z
_cell_length_a                   24.9202(10)
_cell_length_b                   18.7433(7)
_cell_length_c                   14.6524(6)
_cell_angle_alpha                90
_cell_angle_beta                 95.7400(10)
_cell_angle_gamma                90
_cell_volume                     6809.63
loop_
_atom_site_label
_atom_site_type_symbol
_atom_site_fract_x
_atom_site_fract_y
_atom_site_fract_z
Cu1 Cu -0.198130(16) 0.44630(2) -0.02188(3)
Cu2 Cu 0.0000 0.14103(3) 0.2500
C1 C -0.13643(16) 0.5365(2) -0.1366(3)
C2 C -0.08878(14) 0.4901(2) -0.1067(3)
C3 C -0.04142(16) 0.4927(2) -0.1441(3)
H1 H -0.0330 0.5259 -0.1895
C4 C -0.04787(15) 0.4019(2) -0.0285(3)
C5 C -0.03840(14) 0.3416(2) 0.0349(3)
C6 C -0.00187(16) 0.2887(2) 0.0194(3)
H2 H 0.0184 0.2916 -0.0319
C7 C 0.00510(16) 0.2316(2) 0.0786(3)
H3 H 0.0305 0.1958 0.0666
C8 C -0.05743(14) 0.2754(2) 0.1675(3)
H4 H -0.0772 0.2708 0.2194
C9 C -0.06669(14) 0.3344(2) 0.1123(3)
H5 H -0.0919 0.3698 0.1265
N1 N -0.09180(12) 0.43911(17) -0.0395(2)
N2 N -0.02201(12) 0.22407(16) 0.1520(2)
O1 O -0.18080(10) 0.52249(13) -0.10610(16)
O2 O -0.12950(12) 0.58493(16) -0.19096(19)
S1 S 0.00093(4) 0.42819(7) -0.09842(8)
C10 C -0.19662(13) 0.3074(2) 0.0484(3)
C11 C -0.18377(12) 0.29873(18) -0.0482(2)
C12 C -0.16603(14) 0.2399(2) -0.0894(3)
H6 H -0.1594 0.1951 -0.0602
C13 C -0.17793(13) 0.34378(19) -0.1875(3)
C14 C -0.18185(13) 0.39343(18) -0.2653(2)
C15 C -0.22313(14) 0.44232(19) -0.2792(2)
H7 H -0.2494 0.4457 -0.2366
C16 C -0.22634(13) 0.48592(18) -0.3542(2)
H8 H -0.2552 0.5191 -0.3626
C17 C -0.15037(14) 0.4363(2) -0.4031(3)
H9 H -0.1249 0.4338 -0.4471
C18 C -0.14428(14) 0.3910(2) -0.3292(3)
H10 H -0.1149 0.3586 -0.3218
N3 N -0.19051(10) 0.35800(15) -0.1039(2)
N4 N -0.19077(11) 0.48392(15) -0.4161(2)
O3 O -0.20801(9) 0.37138(13) 0.06958(16)
O4 O -0.19536(10) 0.25562(13) 0.10009(17)
S2 S -0.15716(4) 0.25719(5) -0.20063(7)
C19 C -0.08816(14) 0.0716(2) 0.3129(2)
C20 C -0.04343(14) 0.0222(2) 0.3491(2)
C21 C -0.04822(15) -0.0456(2) 0.3790(2)
H11 H -0.0814 -0.0704 0.3802
C22 C 0.04349(14) -0.0003(2) 0.3874(2)
C23 C 0.10190(13) 0.0106(2) 0.4063(2)
C24 C 0.13717(15) -0.0464(2) 0.4206(3)
H12 H 0.1240 -0.0940 0.4187
C25 C 0.19198(15) -0.0330(2) 0.4378(3)
H13 H 0.2158 -0.0726 0.4466
C26 C 0.17869(13) 0.08698(19) 0.4296(2)
H14 H 0.1929 0.1340 0.4331
C27 C 0.12342(13) 0.0788(2) 0.4112(2)
H15 H 0.1006 0.1193 0.4021
N5 N 0.00852(11) 0.04778(16) 0.3540(2)
N6 N 0.21308(11) 0.03244(15) 0.44273(19)
O5 O -0.07324(8) 0.13125(13) 0.28170(16)
O6 O -0.13585(9) 0.05342(15) 0.31527(18)
S3 S 0.01366(4) -0.07982(6) 0.41403(7)
C1B C 0.13643(16) 0.5365(2) 0.6366(3)
C2B C 0.08878(14) 0.4901(2) 0.6067(3)
C3B C 0.04142(16) 0.4927(2) 0.6441(3)
H1B H 0.0330 0.5259 0.6895
C4B C 0.04787(15) 0.4019(2) 0.5285(3)
C5B C 0.03840(14) 0.3416(2) 0.4651(3)
C6B C 0.00187(16) 0.2887(2) 0.4806(3)
H2B H -0.0184 0.2916 0.5319
C7B C -0.00510(16) 0.2316(2) 0.4214(3)
H3B H -0.0305 0.1958 0.4334
C8B C 0.05743(14) 0.2754(2) 0.3325(3)
H4B H 0.0772 0.2708 0.2806
C9B C 0.06669(14) 0.3344(2) 0.3877(3)
H5B H 0.0919 0.3698 0.3735
N1B N 0.09180(12) 0.43911(17) 0.5395(2)
N2B N 0.02201(12) 0.22407(16) 0.3480(2)
O1B O 0.18080(10) 0.52249(13) 0.60610(16)
O2B O 0.12950(12) 0.58493(16) 0.69096(19)
S1B S -0.00093(4) 0.42819(7) 0.59842(8)
C19B C 0.08816(14) 0.0716(2) 0.1871(2)
C20B C 0.04343(14) 0.0222(2) 0.1509(2)
C21B C 0.04822(15) -0.0456(2) 0.1210(2)
H11B H 0.0814 -0.0704 0.1198
C22B C -0.04349(14) -0.0003(2) 0.1126(2)
C23B C -0.10190(13) 0.0106(2) 0.0937(2)
C24B C -0.13717(15) -0.0464(2) 0.0794(3)
H12B H -0.1240 -0.0940 0.0813
C25B C -0.19198(15) -0.0330(2) 0.0622(3)
H13B H -0.2158 -0.0726 0.0534
C26B C -0.17869(13) 0.08698(19) 0.0704(2)
H14B H -0.1929 0.1340 0.0669
C27B C -0.12342(13) 0.0788(2) 0.0888(2)
H15B H -0.1006 0.1193 0.0979
N5B N -0.00852(11) 0.04778(16) 0.1460(2)
N6B N -0.21308(11) 0.03244(15) 0.05727(19)
O5B O 0.07324(8) 0.13125(13) 0.21830(16)
O6B O 0.13585(9) 0.05342(15) 0.18473(18)
S3B S -0.01366(4) -0.07982(6) 0.08597(7)
Cu1B Cu 0.198130(16) 0.44630(2) 0.52188(3)
C10F C -0.19662(13) 0.6926(2) 0.5484(3)
C11F C -0.18377(12) 0.70127(18) 0.4518(2)
C12F C -0.16603(14) 0.7601(2) 0.4106(3)
H6F H -0.1594 0.8049 0.4398
C13F C -0.17793(13) 0.65622(19) 0.3125(3)
C14F C -0.18185(13) 0.60657(18) 0.2347(2)
C15F C -0.22313(14) 0.55768(19) 0.2208(2)
H7F H -0.2494 0.5543 0.2634
C16F C -0.22634(13) 0.51408(18) 0.1458(2)
H8F H -0.2552 0.4809 0.1374
C17F C -0.15037(14) 0.5637(2) 0.0969(3)
H9F H -0.1249 0.5662 0.0529
C18F C -0.14428(14) 0.6090(2) 0.1708(3)
H10F H -0.1149 0.6414 0.1782
N3F N -0.19051(10) 0.64200(15) 0.3961(2)
N4F N -0.19077(11) 0.51608(15) 0.0839(2)
O3F O -0.20801(9) 0.62862(13) 0.56958(16)
O4F O -0.19536(10) 0.74438(13) 0.60009(17)
S2F S -0.15716(4) 0.74281(5) 0.29937(7)
N6G N -0.28692(11) 0.46756(15) -0.05727(19)
Cu1F Cu -0.198130(16) 0.55370(2) -0.52188(3)
Cu1G Cu 0.301870(16) 0.05370(2) 0.47812(3)
Cu1E Cu -0.301870(16) 0.05370(2) 0.02188(3)
N3B N 0.19051(10) 0.35800(15) 0.6039(2)
N4D N 0.19077(11) 0.51608(15) 0.4161(2)
O3B O 0.20801(9) 0.37138(13) 0.43042(16)
N6E N 0.28692(11) 0.46756(15) 0.55727(19)
Cu1F_2 Cu -0.198130(16) 0.55370(2) 0.47812(3)
O7 O 0.16295(12) 0.90674(17) 0.1924(3)
H16 H 0.1591(13) 0.9506(10) 0.195(3)
H17 H 0.1936(9) 0.9004(17) 0.218(2)
O8 O 0.26387(11) 0.85963(18) 0.2654(2)
O9 O 0.37523(14) 0.77835(19) 0.3866(2)
O10 O 0.19424(11) 0.18881(16) 0.2226(2)
O11 O 0.27116(14) 0.2692(2) 0.0960(3)
O12 O 0.38133(12) 0.26806(17) 0.0659(2)
O13 O 0.4382(6) 0.3172(9) 0.2162(11)
O14 O 0.5000 0.2636(7) 0.2500
O15? O 0.1699(15) 0.187(2) 0.120(3)
O16? O 0.5362(3) 0.2244(4) 0.3065(4)
loop_
_geom_bond_atom_site_label_1
_geom_bond_atom_site_label_2
_geom_bond_site_symmetry_1
_geom_bond_site_symmetry_2
Cu1 N1 1_555 1_555
Cu2 N2 1_555 1_555
C1 C2 1_555 1_555
C2 C3 1_555 1_555
C3 H1 1_555 1_555
C4 C5 1_555 1_555
C5 C6 1_555 1_555
C6 H2 1_555 1_555
C7 C6 1_555 1_555
H3 C7 1_555 1_555
C8 H4 1_555 1_555
C9 C5 1_555 1_555
H5 C9 1_555 1_555
N1 C2 1_555 1_555
N2 C7 1_555 1_555
O1 Cu1 1_555 1_555
O2 C1 1_555 1_555
S1 C3 1_555 1_555
C10 C11 1_555 1_555
C11 C12 1_555 1_555
C12 H6 1_555 1_555
C13 C14 1_555 1_555
C14 C15 1_555 1_555
C15 H7 1_555 1_555
C16 C15 1_555 1_555
H8 C16 1_555 1_555
C17 H9 1_555 1_555
C18 C14 1_555 1_555
H10 C18 1_555 1_555
N3 Cu1 1_555 1_555
N4 C16 1_555 1_555
O3 Cu1 1_555 1_555
O4 C10 1_555 1_555
S2 C12 1_555 1_555
C19 C20 1_555 1_555
C20 C21 1_555 1_555
C21 H11 1_555 1_555
C22 C23 1_555 1_555
C23 C24 1_555 1_555
C24 H12 1_555 1_555
C25 C24 1_555 1_555
H13 C25 1_555 1_555
C26 H14 1_555 1_555
C27 C23 1_555 1_555
H15 C27 1_555 1_555
N5 Cu2 1_555 1_555
N6 C25 1_555 1_555
O5 Cu2 1_555 1_555
O6 C19 1_555 1_555
S3 C21 1_555 1_555
O7 H16 1_555 1_555
H17 O7 1_555 1_555
C1B C2B 1_555 1_555
C2B C3B 1_555 1_555
C3B H1B 1_555 1_555
C4B C5B 1_555 1_555
C5B C6B 1_555 1_555
C6B H2B 1_555 1_555
C7B C6B 1_555 1_555
H3B C7B 1_555 1_555
C8B H4B 1_555 1_555
C9B C5B 1_555 1_555
H5B C9B 1_555 1_555
N1B C2B 1_555 1_555
N2B Cu2 1_555 1_555
O1B C1B 1_555 1_555
O2B C1B 1_555 1_555
S1B C3B 1_555 1_555
C19B C20B 1_555 1_555
C20B C21B 1_555 1_555
C21B H11B 1_555 1_555
C22B C23B 1_555 1_555
C23B C24B 1_555 1_555
C24B H12B 1_555 1_555
C25B C24B 1_555 1_555
H13B C25B 1_555 1_555
C26B H14B 1_555 1_555
C27B C23B 1_555 1_555
H15B C27B 1_555 1_555
N5B Cu2 1_555 1_555
N6B C25B 1_555 1_555
O5B Cu2 1_555 1_555
O6B C19B 1_555 1_555
S3B C21B 1_555 1_555
Cu1B N1B 1_555 1_555
C10F C11F 1_555 1_555
C11F C12F 1_555 1_555
C12F H6F 1_555 1_555
C13F C14F 1_555 1_555
C14F C15F 1_555 1_555
C15F H7F 1_555 1_555
C16F C15F 1_555 1_555
H8F C16F 1_555 1_555
C17F H9F 1_555 1_555
C18F C14F 1_555 1_555
H10F C18F 1_555 1_555
N3F C11F 1_555 1_555
N4F Cu1 1_555 1_555
O3F C10F 1_555 1_555
O4F C10F 1_555 1_555
S2F C12F 1_555 1_555
N6G Cu1 1_555 1_555
Cu1F N4 1_555 1_555
Cu1G N6 1_555 1_555
Cu1E N6B 1_555 1_555
N3B Cu1B 1_555 1_555
N4D Cu1B 1_555 1_555
O3B Cu1B 1_555 1_555
N6E Cu1B 1_555 1_555
Cu1F_2 N3F 1_555 1_555
C1 O1 1_555 1_555
C4 N1 1_555 1_555
C4 S1 1_555 1_555
C8 C9 1_555 1_555
C8 N2 1_555 1_555
C10 O3 1_555 1_555
C11 N3 1_555 1_555
C13 N3 1_555 1_555
C13 S2 1_555 1_555
C17 C18 1_555 1_555
C17 N4 1_555 1_555
C19 O5 1_555 1_555
C20 N5 1_555 1_555
C22 N5 1_555 1_555
C22 S3 1_555 1_555
C26 C27 1_555 1_555
C26 N6 1_555 1_555
C4B N1B 1_555 1_555
C4B S1B 1_555 1_555
C7B N2B 1_555 1_555
C8B C9B 1_555 1_555
C8B N2B 1_555 1_555
O1B Cu1B 1_555 1_555
C19B O5B 1_555 1_555
C20B N5B 1_555 1_555
C22B N5B 1_555 1_555
C22B S3B 1_555 1_555
C26B C27B 1_555 1_555
C26B N6B 1_555 1_555
C13F N3F 1_555 1_555
C13F S2F 1_555 1_555
C16F N4F 1_555 1_555
C17F C18F 1_555 1_555
C17F N4F 1_555 1_555
O3F Cu1F_2 1_555 1_555

#END
