
#######################################################################
#
#                 Cambridge Crystallographic Data Centre
#                                CCDC 
#
#######################################################################
#
# If this CIF has been generated from an entry in the Cambridge 
# Structural Database, then it will include bibliographic, chemical, 
# crystal, experimental, refinement or atomic coordinate data resulting 
# from the CCDC's data processing and validation procedures.
#
#######################################################################

data_HAPVEB
_symmetry_cell_setting           orthorhombic
_symmetry_space_group_name_H-M   'P n m a'
_symmetry_Int_Tables_number      62
_space_group_name_Hall           '-P 2ac 2n'
loop_
_symmetry_equiv_pos_site_id
_symmetry_equiv_pos_as_xyz
1 x,y,z
2 1/2-x,-y,1/2+z
3 -x,1/2+y,-z
4 1/2+x,1/2-y,1/2-z
5 -x,-y,-z
6 1/2+x,y,1/2-z
7 x,1/2-y,z
8 1/2-x,1/2+y,1/2+z
_cell_length_a                   15.578(3)
_cell_length_b                   11.628(2)
_cell_length_c                   13.065(3)
_cell_angle_alpha                90
_cell_angle_beta                 90
_cell_angle_gamma                90
_cell_volume                     2366.61
loop_
_atom_site_label
_atom_site_type_symbol
_atom_site_fract_x
_atom_site_fract_y
_atom_site_fract_z
U1 U 0.246066(18) 0.2500 0.65944(2)
Nd1 Nd 0.28570(3) 0.2500 0.93986(3)
U2 U 0.0000 0.0000 0.0000
O1 O 0.0776(3) 0.0739(4) 0.1422(3)
O2 O 0.1749(3) 0.1305(4) 0.0310(3)
O3 O 0.0049(3) 0.1294(4) -0.0701(4)
O4 O 0.3872(3) 0.0697(3) 0.3963(3)
O5 O 0.3403(4) 0.2500 0.7363(5)
O6 O 0.1774(4) 0.2500 0.8116(4)
O7 O 0.3146(3) 0.1318(4) 0.5301(3)
O8 O 0.3533(3) 0.1167(4) 1.0692(4)
O9 O 0.4428(5) 0.2500 0.9162(6)
O10 O 0.2620(3) -0.0470(4) 0.2014(3)
O11 O 0.2089(3) -0.0521(3) 0.3612(3)
C1 C 0.2305(3) 0.1295(5) 0.2830(4)
C2 C 0.2338(3) -0.0012(4) 0.2829(4)
C3 C 0.1906(3) 0.1899(4) 0.2047(4)
C4 C 0.1456(3) 0.1270(4) 0.1189(4)
C5 C 0.3268(3) 0.1252(4) 0.4364(4)
C6 C 0.2714(3) 0.1902(4) 0.3617(4)
O13 O 0.1510(4) 0.2500 0.5880(5)
U1A U 0.253934(18) -0.2500 0.15944(2)
U1A_2 U 0.253934(18) 0.7500 0.15944(2)
Nd1_2 Nd 0.28570(3) 0.2500 -0.06014(3)
Nd1A Nd 0.21430(3) -0.2500 0.43986(3)
Nd1A_2 Nd 0.21430(3) 0.7500 0.43986(3)
U2A U 0.5000 0.0000 0.5000
U2B U 0.0000 0.5000 0.0000
U2C U 0.5000 0.5000 0.5000
O1F O 0.0776(3) 0.4261(4) 0.1422(3)
O1D O -0.0776(3) -0.0739(4) -0.1422(3)
O2F O 0.1749(3) 0.3695(4) 0.0310(3)
O2_2 O 0.1749(3) 0.1305(4) 1.0310(3)
O2F_2 O 0.1749(3) 0.3695(4) 1.0310(3)
O3D O -0.0049(3) -0.1294(4) 0.0701(4)
O4F O 0.3872(3) 0.4303(3) 0.3963(3)
O4A O 0.1128(3) -0.0697(3) -0.1037(3)
O4E O -0.1128(3) 0.0697(3) 0.1037(3)
O7F O 0.3146(3) 0.3682(4) 0.5301(3)
O8F O 0.3533(3) 0.3833(4) 1.0692(4)
O10F O 0.2620(3) 0.5470(4) 0.2014(3)
O10A O 0.2380(3) 0.0470(4) 0.7014(3)
O10G O 0.2380(3) 0.4530(4) 0.7014(3)
O11F O 0.2089(3) 0.5521(3) 0.3612(3)
O11A O 0.2911(3) 0.0521(3) 0.8612(3)
O11G O 0.2911(3) 0.4479(3) 0.8612(3)
C1F C 0.2305(3) 0.3705(5) 0.2830(4)
C2F C 0.2338(3) 0.5012(4) 0.2829(4)
C3F C 0.1906(3) 0.3101(4) 0.2047(4)
C4F C 0.1456(3) 0.3730(4) 0.1189(4)
C5F C 0.3268(3) 0.3748(4) 0.4364(4)
C6F C 0.2714(3) 0.3098(4) 0.3617(4)
O12 O 0.5428(14) 0.104(2) 0.0807(17)
O14 O 0.5164(9) 0.0807(15) 0.7989(12)
O15 O 0.462(2) 0.2500 0.209(3)
loop_
_geom_bond_atom_site_label_1
_geom_bond_atom_site_label_2
_geom_bond_site_symmetry_1
_geom_bond_site_symmetry_2
U1 O5 1_555 1_555
Nd1 O5 1_555 1_555
U2 O1 1_555 1_555
O1 C4 1_555 1_555
O2 C4 1_555 1_555
O3 U2 1_555 1_555
O4 C5 1_555 1_555
O6 U1 1_555 1_555
O7 U1 1_555 1_555
O8 Nd1 1_555 1_555
O9 Nd1 1_555 1_555
O10 C2 1_555 1_555
O11 C2 1_555 1_555
C1 C2 1_555 1_555
C3 C1 1_555 1_555
C4 C3 1_555 1_555
C5 O7 1_555 1_555
C6 C1 1_555 1_555
O13 U1 1_555 1_555
U1A O10 1_555 1_555
U1A_2 O10F 1_555 1_555
Nd1_2 O2 1_555 1_555
Nd1A O11 1_555 1_555
Nd1A_2 O11F 1_555 1_555
U2A O4 1_555 1_555
U2B O1F 1_555 1_555
U2C O4F 1_555 1_555
O1F C4F 1_555 1_555
O1D U2 1_555 1_555
O2F Nd1_2 1_555 1_555
O2_2 Nd1 1_555 1_555
O2F_2 Nd1 1_555 1_555
O3D U2 1_555 1_555
O4F C5F 1_555 1_555
O4A U2 1_555 1_555
O4E U2 1_555 1_555
O7F U1 1_555 1_555
O8F Nd1 1_555 1_555
O10F C2F 1_555 1_555
O10A U1 1_555 1_555
O10G U1 1_555 1_555
O11F C2F 1_555 1_555
O11A Nd1 1_555 1_555
O11G Nd1 1_555 1_555
C1F C2F 1_555 1_555
C3F C3 1_555 1_555
C4F O2F 1_555 1_555
C5F O7F 1_555 1_555
C6F C6 1_555 1_555
Nd1 O6 1_555 1_555
C5 C6 1_555 1_555
C1F C3F 1_555 1_555
C1F C6F 1_555 1_555
C3F C4F 1_555 1_555
C5F C6F 1_555 1_555

#END
