
#######################################################################
#
#                 Cambridge Crystallographic Data Centre
#                                CCDC 
#
#######################################################################
#
# If this CIF has been generated from an entry in the Cambridge 
# Structural Database, then it will include bibliographic, chemical, 
# crystal, experimental, refinement or atomic coordinate data resulting 
# from the CCDC's data processing and validation procedures.
#
#######################################################################

data_HARNAR
_symmetry_cell_setting           monoclinic
_symmetry_space_group_name_H-M   'P 21/n'
_symmetry_Int_Tables_number      14
_space_group_name_Hall           '-P 2yn'
loop_
_symmetry_equiv_pos_site_id
_symmetry_equiv_pos_as_xyz
1 x,y,z
2 1/2-x,1/2+y,1/2-z
3 -x,-y,-z
4 1/2+x,1/2-y,1/2+z
_cell_length_a                   12.3937(7)
_cell_length_b                   19.3300(9)
_cell_length_c                   17.2992(7)
_cell_angle_alpha                90
_cell_angle_beta                 95.7500(10)
_cell_angle_gamma                90
_cell_volume                     4123.52
loop_
_atom_site_label
_atom_site_type_symbol
_atom_site_fract_x
_atom_site_fract_y
_atom_site_fract_z
C1 C 0.5833(5) 0.7172(3) 2.0687(3)
H1 H 0.5506 0.7220 2.0170
C2 C 0.5227(5) 0.7313(3) 2.1284(3)
H2 H 0.4494 0.7456 2.1174
C3 C 0.5668(5) 0.7250(3) 2.2044(3)
C4 C 0.6733(6) 0.7035(3) 2.2175(3)
H3 H 0.7066 0.6979 2.2690
C5 C 0.7305(6) 0.6901(3) 2.1546(3)
H4 H 0.8038 0.6755 2.1644
C6 C 0.5327(5) 0.5004(3) 1.9103(4)
C7 C 0.4299(5) 0.5237(3) 1.8641(3)
H5 H 0.3681 0.5221 1.8970
C8 C 0.4034(5) 0.4805(3) 1.7904(4)
H6 H 0.3914 0.4307 1.8028
C9 C 0.3004(5) 0.5139(3) 1.7475(3)
H7 H 0.2397 0.5127 1.7814
C10 C 0.2652(5) 0.4806(3) 1.6704(4)
C11 C 0.3031(5) 0.5899(3) 1.6382(3)
C12 C 0.3250(5) 0.5885(3) 1.7266(3)
H8 H 0.2746 0.6208 1.7504
C13 C 0.4438(5) 0.6068(3) 1.7542(3)
H9 H 0.4630 0.6547 1.7384
C14 C 0.4543(5) 0.5983(3) 1.8434(3)
H10 H 0.4026 0.6302 1.8664
C15 C 0.5680(5) 0.6099(3) 1.8818(3)
C16 C 0.4939(5) 0.4894(4) 1.7387(4)
H11 H 0.5330 0.4514 1.7205
C17 C 0.5139(5) 0.5532(3) 1.7213(3)
H12 H 0.5695 0.5652 1.6897
N1 N 0.6880(4) 0.6966(3) 2.0802(3)
N2 N 0.6075(4) 0.5526(3) 1.9197(3)
N3 N 0.2707(4) 0.5270(3) 1.6103(3)
O1 O 0.0369(4) 0.3957(3) 1.5238(4)
O2 O 0.5266(4) 0.3948(3) 1.5270(4)
O4 O 0.3189(4) 0.6410(2) 1.5984(2)
O6 O 0.2346(4) 0.4214(3) 1.6611(3)
O8 O 0.5472(4) 0.4425(3) 1.9380(3)
O10 O 0.6171(4) 0.6647(2) 1.8787(2)
H13 H 0.563(6) 0.378(5) 1.492(4)
H14 H 0.467(4) 0.372(4) 1.526(5)
H19 H 0.092(4) 0.393(5) 1.558(3)
H20 H 0.056(6) 0.376(4) 1.483(3)
C18 C 0.3326(5) 0.7585(3) 2.3215(3)
H25 H 0.2556 0.7582 2.3138
C19 C 0.3894(5) 0.7396(3) 2.2609(3)
H26 H 0.3519 0.7257 2.2128
C20 C 0.5015(5) 0.7409(3) 2.2698(3)
C21 C 0.5535(5) 0.7597(3) 2.3418(3)
H27 H 0.6304 0.7600 2.3507
C22 C 0.4895(6) 0.7783(3) 2.4007(3)
H28 H 0.5249 0.7920 2.4495
C23 C -0.0262(5) 0.5733(3) 1.0841(3)
C24 C 0.0720(4) 0.5374(3) 1.1257(3)
H29 H 0.1344 0.5396 1.0933
C25 C 0.1062(4) 0.5669(3) 1.2079(3)
H30 H 0.1269 0.6168 1.2057
C26 C 0.2035(4) 0.5212(3) 1.2399(3)
H31 H 0.2634 0.5242 1.2054
C27 C 0.2443(4) 0.5416(3) 1.3229(3)
C28 C 0.1845(5) 0.4333(3) 1.3350(4)
C29 C 0.1674(4) 0.4467(3) 1.2480(3)
H32 H 0.2127 0.4147 1.2192
C30 C 0.0467(4) 0.4399(3) 1.2183(3)
H33 H 0.0200 0.3916 1.2246
C31 C 0.0347(4) 0.4621(3) 1.1329(3)
H34 H 0.0786 0.4310 1.1021
C32 C -0.0812(5) 0.4636(3) 1.0972(3)
C33 C 0.0158(4) 0.5557(3) 1.2579(3)
H35 H -0.0171 0.5925 1.2835
C34 C -0.0141(5) 0.4910(3) 1.2636(3)
H36 H -0.0700 0.4772 1.2941
N4 N 0.3811(4) 0.7776(2) 2.3917(3)
N5 N -0.1092(4) 0.5273(2) 1.0670(3)
N6 N 0.2305(4) 0.4892(3) 1.3730(3)
O14 O -0.1429(3) 0.4142(2) 1.0952(2)
O15 O -0.0314(3) 0.6345(2) 1.0661(2)
O16 O 0.2820(3) 0.5984(2) 1.3419(2)
O17 O 0.1592(4) 0.3794(2) 1.3655(2)
Ag1 Ag 0.78316(4) 0.69839(3) 1.98331(3)
Ag2 Ag 0.74766(3) 0.54583(2) 1.99591(2)
Ag3 Ag 0.5000 0.5000 1.5000
Ag4 Ag 0.0000 0.5000 1.5000
Ag5 Ag 0.25017(4) 0.50182(2) 1.49331(3)
C1C C 1.0833(5) 0.7828(3) 1.5687(3)
H1C H 1.0506 0.7780 1.5170
C2C C 1.0227(5) 0.7687(3) 1.6284(3)
H2C H 0.9494 0.7544 1.6174
C3C C 1.0668(5) 0.7750(3) 1.7044(3)
C4C C 1.1733(6) 0.7965(3) 1.7175(3)
H3C H 1.2066 0.8021 1.7690
C5C C 1.2305(6) 0.8099(3) 1.6546(3)
H4C H 1.3038 0.8245 1.6644
C6B C 0.4673(5) 0.4996(3) 1.0897(4)
C7B C 0.5701(5) 0.4763(3) 1.1359(3)
H5B H 0.6319 0.4779 1.1030
C8B C 0.5966(5) 0.5195(3) 1.2096(4)
H6B H 0.6086 0.5693 1.1972
C9B C 0.6996(5) 0.4861(3) 1.2525(3)
H7B H 0.7603 0.4873 1.2186
C10B C 0.7348(5) 0.5194(3) 1.3296(4)
C11B C 0.6969(5) 0.4101(3) 1.3618(3)
C12B C 0.6750(5) 0.4115(3) 1.2734(3)
H8B H 0.7254 0.3792 1.2496
C13B C 0.5562(5) 0.3932(3) 1.2458(3)
H9B H 0.5370 0.3453 1.2616
C14B C 0.5457(5) 0.4017(3) 1.1566(3)
H10B H 0.5974 0.3698 1.1336
C15B C 0.4320(5) 0.3901(3) 1.1182(3)
C16B C 0.5061(5) 0.5106(4) 1.2613(4)
H11B H 0.4670 0.5486 1.2795
C17B C 0.4861(5) 0.4468(3) 1.2787(3)
H12B H 0.4305 0.4348 1.3103
N1C N 1.1880(4) 0.8034(3) 1.5802(3)
N1B N 0.3120(4) 0.3034(3) 0.9198(3)
N2B N 0.3925(4) 0.4474(3) 1.0803(3)
N3B N 0.7293(4) 0.4730(3) 1.3897(3)
O1B O -0.0369(4) 0.6043(3) 1.4762(4)
O2B O 0.4734(4) 0.6052(3) 1.4730(4)
O4B O 0.6811(4) 0.3590(2) 1.4016(2)
O6B O 0.7654(4) 0.5786(3) 1.3389(3)
O8B O 0.4528(4) 0.5575(3) 1.0620(3)
O10B O 0.3829(4) 0.3353(2) 1.1213(2)
H13B H 0.437(6) 0.622(5) 1.508(4)
H14B H 0.533(4) 0.628(4) 1.474(5)
H19B H -0.092(4) 0.607(5) 1.442(3)
H20B H -0.056(6) 0.624(4) 1.517(3)
C18C C 0.8326(5) 0.7415(3) 1.8215(3)
H25C H 0.7556 0.7418 1.8138
C19C C 0.8894(5) 0.7604(3) 1.7609(3)
H26C H 0.8519 0.7743 1.7128
C20C C 1.0015(5) 0.7591(3) 1.7698(3)
C21C C 1.0535(5) 0.7403(3) 1.8418(3)
H27C H 1.1304 0.7400 1.8507
C22C C 0.9895(6) 0.7217(3) 1.9007(3)
H28C H 1.0249 0.7080 1.9495
C23B C 1.0262(5) 0.4267(3) 1.9159(3)
C24B C 0.9280(4) 0.4626(3) 1.8743(3)
H29B H 0.8656 0.4604 1.9067
C25B C 0.8938(4) 0.4331(3) 1.7921(3)
H30B H 0.8731 0.3832 1.7943
C26B C 0.7965(4) 0.4788(3) 1.7601(3)
H31B H 0.7366 0.4758 1.7946
C27B C 0.7557(4) 0.4584(3) 1.6771(3)
C28B C 0.8155(5) 0.5667(3) 1.6650(4)
C29B C 0.8326(4) 0.5533(3) 1.7520(3)
H32B H 0.7873 0.5853 1.7808
C30B C 0.9533(4) 0.5601(3) 1.7817(3)
H33B H 0.9800 0.6084 1.7754
C31B C 0.9653(4) 0.5379(3) 1.8671(3)
H34B H 0.9214 0.5690 1.8979
C32B C 1.0812(5) 0.5364(3) 1.9028(3)
C33B C 0.9842(4) 0.4443(3) 1.7421(3)
H35B H 1.0171 0.4075 1.7165
C34B C 1.0141(5) 0.5090(3) 1.7364(3)
H36B H 1.0700 0.5228 1.7059
N4C N 0.8811(4) 0.7224(2) 1.8917(3)
N4A N 0.1189(4) 0.2776(2) 1.1083(3)
N5B N 1.1092(4) 0.4727(2) 1.9330(3)
N5_2 N 0.8908(4) 0.5273(2) 2.0670(3)
N5B_2 N 0.1092(4) 0.4727(2) 0.9330(3)
N6B N 0.7695(4) 0.5108(3) 1.6270(3)
O14B O 1.1429(3) 0.5858(2) 1.9048(2)
O15B O 1.0314(3) 0.3655(2) 1.9339(2)
O16B O 0.7180(3) 0.4016(2) 1.6581(2)
O17B O 0.8408(4) 0.6206(2) 1.6345(2)
Ag1B Ag 0.21684(4) 0.30161(3) 1.01669(3)
Ag1C Ag 0.28316(4) 0.80161(3) 2.48331(3)
Ag1C_2 Ag 1.28316(4) 0.80161(3) 1.48331(3)
Ag2B Ag 0.25234(3) 0.45417(2) 1.00409(2)
Ag2_2 Ag -0.25234(3) 0.54583(2) 0.99591(2)
Ag2B_2 Ag 1.25234(3) 0.45417(2) 2.00409(2)
Ag4_2 Ag 1.0000 0.5000 1.5000
Ag5B Ag 0.74983(4) 0.49818(2) 1.50669(3)
Ag5B_2 Ag -0.25017(4) 0.49818(2) 1.50669(3)
O3 O 0.3200(3) 0.1681(2) 0.0389(3)
H21 H 0.293(6) 0.156(4) 0.080(2)
H22 H 0.279(5) 0.149(4) 0.003(3)
O5 O 0.7981(4) 0.8535(3) 0.5049(3)
H15 H 0.763(5) 0.846(4) 0.544(3)
H16 H 0.761(5) 0.885(3) 0.480(4)
O7 O 0.0113(5) 0.2788(3) 0.6810(3)
H23 H 0.072(3) 0.288(5) 0.664(4)
H24 H 0.022(6) 0.277(5) 0.7301(7)
O9 O 0.8171(5) 0.7378(4) 0.4102(4)
H17 H 0.794(7) 0.715(4) 0.448(3)
H18 H 0.853(6) 0.771(3) 0.434(3)
O11 O 0.8104(5) 0.1619(4) 0.9923(5)
O12 O 0.8205(9) 0.2845(6) 0.8946(5)
O13 O 1.0152(9) 0.2482(5) 0.8456(5)
loop_
_geom_bond_atom_site_label_1
_geom_bond_atom_site_label_2
_geom_bond_site_symmetry_1
_geom_bond_site_symmetry_2
C1 H1 1_555 1_555
C2 C1 1_555 1_555
H2 C2 1_555 1_555
C3 C2 1_555 1_555
C4 C3 1_555 1_555
H3 C4 1_555 1_555
C5 C4 1_555 1_555
H4 C5 1_555 1_555
C6 C7 1_555 1_555
C7 H5 1_555 1_555
C8 C7 1_555 1_555
H6 C8 1_555 1_555
C9 C8 1_555 1_555
H7 C9 1_555 1_555
C10 C9 1_555 1_555
C11 C12 1_555 1_555
C12 C9 1_555 1_555
H8 C12 1_555 1_555
C13 C12 1_555 1_555
H9 C13 1_555 1_555
C14 C7 1_555 1_555
H10 C14 1_555 1_555
C15 C14 1_555 1_555
C16 C8 1_555 1_555
H11 C16 1_555 1_555
C17 C13 1_555 1_555
H12 C17 1_555 1_555
N1 C1 1_555 1_555
N2 C6 1_555 1_555
N3 C10 1_555 1_555
O1 H19 1_555 1_555
O2 H13 1_555 1_555
O3 H21 1_555 1_555
O4 C11 1_555 1_555
O5 H15 1_555 1_555
O6 C10 1_555 1_555
O7 H23 1_555 1_555
O8 C6 1_555 1_555
O9 H17 1_555 1_555
O10 C15 1_555 1_555
H14 O2 1_555 1_555
H16 O5 1_555 1_555
H18 O9 1_555 1_555
H20 O1 1_555 1_555
H22 O3 1_555 1_555
H24 O7 1_555 1_555
C18 H25 1_555 1_555
C19 C18 1_555 1_555
H26 C19 1_555 1_555
C20 C3 1_555 1_555
C21 C20 1_555 1_555
H27 C21 1_555 1_555
C22 C21 1_555 1_555
H28 C22 1_555 1_555
C23 C24 1_555 1_555
C24 H29 1_555 1_555
C25 C24 1_555 1_555
H30 C25 1_555 1_555
C26 C25 1_555 1_555
H31 C26 1_555 1_555
C27 C26 1_555 1_555
C28 C29 1_555 1_555
C29 C26 1_555 1_555
H32 C29 1_555 1_555
C30 C29 1_555 1_555
H33 C30 1_555 1_555
C31 C24 1_555 1_555
H34 C31 1_555 1_555
C32 C31 1_555 1_555
C33 C25 1_555 1_555
H35 C33 1_555 1_555
C34 C30 1_555 1_555
H36 C34 1_555 1_555
N4 C18 1_555 1_555
N5 C23 1_555 1_555
N6 C27 1_555 1_555
O14 C32 1_555 1_555
O15 C23 1_555 1_555
O16 C27 1_555 1_555
O17 C28 1_555 1_555
Ag1 N1 1_555 1_555
Ag2 N2 1_555 1_555
Ag3 O2 1_555 1_555
Ag4 O1 1_555 1_555
Ag5 N3 1_555 1_555
C1C H1C 1_555 1_555
C2C C1C 1_555 1_555
H2C C2C 1_555 1_555
C3C C2C 1_555 1_555
C4C C3C 1_555 1_555
H3C C4C 1_555 1_555
C5C C4C 1_555 1_555
H4C C5C 1_555 1_555
C6B C7B 1_555 1_555
C7B H5B 1_555 1_555
C8B C7B 1_555 1_555
H6B C8B 1_555 1_555
C9B C8B 1_555 1_555
H7B C9B 1_555 1_555
C10B C9B 1_555 1_555
C11B C12B 1_555 1_555
C12B C9B 1_555 1_555
H8B C12B 1_555 1_555
C13B C12B 1_555 1_555
H9B C13B 1_555 1_555
C14B C7B 1_555 1_555
H10B C14B 1_555 1_555
C15B C14B 1_555 1_555
C16B C8B 1_555 1_555
H11B C16B 1_555 1_555
C17B C13B 1_555 1_555
H12B C17B 1_555 1_555
N1C C1C 1_555 1_555
N1B Ag1B 1_555 1_555
N2B C6B 1_555 1_555
N3B C10B 1_555 1_555
O1B Ag4 1_555 1_555
O2B Ag3 1_555 1_555
O4B C11B 1_555 1_555
O6B C10B 1_555 1_555
O8B C6B 1_555 1_555
O10B C15B 1_555 1_555
H13B O2B 1_555 1_555
H14B O2B 1_555 1_555
H19B O1B 1_555 1_555
H20B O1B 1_555 1_555
C18C H25C 1_555 1_555
C19C C18C 1_555 1_555
H26C C19C 1_555 1_555
C20C C3C 1_555 1_555
C21C C20C 1_555 1_555
H27C C21C 1_555 1_555
C22C C21C 1_555 1_555
H28C C22C 1_555 1_555
C23B C24B 1_555 1_555
C24B H29B 1_555 1_555
C25B C24B 1_555 1_555
H30B C25B 1_555 1_555
C26B C25B 1_555 1_555
H31B C26B 1_555 1_555
C27B C26B 1_555 1_555
C28B C29B 1_555 1_555
C29B C26B 1_555 1_555
H32B C29B 1_555 1_555
C30B C29B 1_555 1_555
H33B C30B 1_555 1_555
C31B C24B 1_555 1_555
H34B C31B 1_555 1_555
C32B C31B 1_555 1_555
C33B C25B 1_555 1_555
H35B C33B 1_555 1_555
C34B C30B 1_555 1_555
H36B C34B 1_555 1_555
N4C Ag1 1_555 1_555
N4A Ag1B 1_555 1_555
N5B C23B 1_555 1_555
N5_2 Ag2 1_555 1_555
N5B_2 Ag2B 1_555 1_555
N6B C27B 1_555 1_555
O14B C32B 1_555 1_555
O15B C23B 1_555 1_555
O16B C27B 1_555 1_555
O17B C28B 1_555 1_555
Ag1B Ag2B 1_555 1_555
Ag1C N4 1_555 1_555
Ag1C_2 N1C 1_555 1_555
Ag2B N2B 1_555 1_555
Ag2_2 N5 1_555 1_555
Ag2B_2 N5B 1_555 1_555
Ag4_2 Ag5B 1_555 1_555
Ag5B Ag3 1_555 1_555
Ag5B_2 Ag4 1_555 1_555
C5 N1 1_555 1_555
C11 N3 1_555 1_555
C13 C14 1_555 1_555
C15 N2 1_555 1_555
C16 C17 1_555 1_555
C19 C20 1_555 1_555
C22 N4 1_555 1_555
C28 N6 1_555 1_555
C30 C31 1_555 1_555
C32 N5 1_555 1_555
C33 C34 1_555 1_555
N6 Ag5 1_555 1_555
Ag1 Ag2 1_555 1_555
Ag3 Ag5 1_555 1_555
Ag4 Ag5 1_555 1_555
C5C N1C 1_555 1_555
C11B N3B 1_555 1_555
C13B C14B 1_555 1_555
C15B N2B 1_555 1_555
C16B C17B 1_555 1_555
N3B Ag5B 1_555 1_555
C18C N4C 1_555 1_555
C19C C20C 1_555 1_555
C22C N4C 1_555 1_555
C28B N6B 1_555 1_555
C30B C31B 1_555 1_555
C32B N5B 1_555 1_555
C33B C34B 1_555 1_555
N6B Ag5B 1_555 1_555

#END
