
#######################################################################
#
#                 Cambridge Crystallographic Data Centre
#                                CCDC 
#
#######################################################################
#
# If this CIF has been generated from an entry in the Cambridge 
# Structural Database, then it will include bibliographic, chemical, 
# crystal, experimental, refinement or atomic coordinate data resulting 
# from the CCDC's data processing and validation procedures.
#
#######################################################################

data_HAYLIE
_symmetry_cell_setting           monoclinic
_symmetry_space_group_name_H-M   'P 21'
_symmetry_Int_Tables_number      4
_space_group_name_Hall           'P 2yb'
loop_
_symmetry_equiv_pos_site_id
_symmetry_equiv_pos_as_xyz
1 x,y,z
2 -x,1/2+y,-z
_cell_length_a                   10.3039(4)
_cell_length_b                   24.9425(10)
_cell_length_c                   11.5740(4)
_cell_angle_alpha                90
_cell_angle_beta                 93.1970(10)
_cell_angle_gamma                90
_cell_volume                     2969.95
loop_
_atom_site_label
_atom_site_type_symbol
_atom_site_fract_x
_atom_site_fract_y
_atom_site_fract_z
Zn1 Zn 0.56823(4) 0.220094(14) 0.41441(3)
Zn2 Zn 0.06993(3) 0.146780(14) 0.43502(3)
O1 O 0.7620(2) 0.19164(10) 0.4199(2)
O2 O 0.8839(2) 0.11711(10) 0.4272(2)
O3 O 0.2628(2) 0.17874(10) 0.4451(2)
O4 O 0.3796(2) 0.25003(10) 0.4005(2)
N1 N 0.6347(3) 0.30147(14) 0.4389(3)
N2 N 0.8485(3) 0.56755(12) 0.5548(2)
N3 N 0.5749(3) 0.23036(15) 0.2219(3)
N4 N 0.5693(3) 0.21814(15) -0.3919(2)
N5 N 0.0646(3) 0.13940(14) 0.2394(2)
N6 N 0.0663(3) 0.14466(16) -0.3743(2)
N7 N 0.5354(3) 0.13638(14) 0.4023(3)
H1 H 0.4746 0.1266 0.4537
H2 H 0.5024 0.1281 0.3290
N8 N 0.7276(5) -0.09001(18) 0.1681(4)
H3 H 0.6545 -0.1075 0.1411
H4 H 0.7932 -0.1141 0.1809
H5 H 0.7509 -0.0655 0.1148
N9 N 0.0375(3) 0.23065(13) 0.4242(3)
H6 H -0.0364 0.2373 0.3781
H7 H 0.0250 0.2441 0.4968
N10 N 0.1894(4) 0.44545(17) 0.2257(4)
H8 H 0.1985 0.4123 0.1942
H9 H 0.2636 0.4646 0.2181
H10 H 0.1214 0.4627 0.1884
C1 C 0.5721(4) 0.34315(16) 0.3901(3)
H11 H 0.5006 0.3366 0.3365
C2 C 0.6079(4) 0.39617(16) 0.4148(3)
H12 H 0.5605 0.4249 0.3790
C3 C 0.7122(4) 0.40660(15) 0.4913(3)
C4 C 0.7785(4) 0.36297(16) 0.5417(3)
H13 H 0.8515 0.3684 0.5942
C5 C 0.7360(3) 0.31163(15) 0.5139(3)
H14 H 0.7807 0.2821 0.5496
C6 C 0.7558(4) 0.55603(16) 0.4730(3)
H15 H 0.7195 0.5847 0.4280
C7 C 0.7106(4) 0.50566(15) 0.4503(3)
H16 H 0.6470 0.4998 0.3890
C8 C 0.7575(3) 0.46277(15) 0.5168(3)
C9 C 0.8495(4) 0.47439(16) 0.6051(3)
H17 H 0.8823 0.4467 0.6549
C10 C 0.8935(4) 0.52661(17) 0.6205(3)
H18 H 0.9583 0.5337 0.6801
C11 C 0.4679(4) 0.24046(18) 0.1545(3)
H19 H 0.3899 0.2483 0.1912
C12 C 0.4639(4) 0.24026(17) 0.0350(3)
H20 H 0.3845 0.2469 -0.0084
C13 C 0.5770(4) 0.23018(17) -0.0211(3)
C14 C 0.6897(4) 0.2229(2) 0.0483(3)
H21 H 0.7709 0.2186 0.0143
C15 C 0.6835(4) 0.2221(2) 0.1664(3)
H22 H 0.7615 0.2152 0.2117
C16 C 0.4819(4) 0.24829(18) -0.3386(3)
H23 H 0.4180 0.2670 -0.3851
C17 C 0.4805(4) 0.25351(17) -0.2188(3)
H24 H 0.4164 0.2748 -0.1848
C18 C 0.5756(4) 0.22671(19) -0.1495(3)
C19 C 0.6641(4) 0.19624(18) -0.2039(3)
H25 H 0.7296 0.1772 -0.1599
C20 C 0.6575(4) 0.19326(18) -0.3237(3)
H26 H 0.7205 0.1720 -0.3592
C21 C 0.1705(4) 0.1508(2) 0.1826(3)
H27 H 0.2486 0.1586 0.2269
C22 C 0.1735(4) 0.1521(2) 0.0637(3)
H28 H 0.2512 0.1619 0.0286
C23 C 0.0629(4) 0.13896(17) -0.0046(3)
C24 C -0.0445(4) 0.12388(17) 0.0540(3)
H29 H -0.1211 0.1121 0.0120
C25 C -0.0411(4) 0.12576(17) 0.1723(3)
H30 H -0.1181 0.1169 0.2094
C26 C 0.1414(4) 0.17658(18) -0.3066(3)
H31 H 0.1968 0.2011 -0.3428
C27 C 0.1437(4) 0.17624(19) -0.1882(3)
H32 H 0.1990 0.2001 -0.1445
C28 C 0.0632(4) 0.14021(18) -0.1321(3)
C29 C -0.0147(4) 0.10713(18) -0.2027(3)
H33 H -0.0700 0.0817 -0.1694
C30 C -0.0119(4) 0.11110(17) -0.3200(3)
H34 H -0.0687 0.0888 -0.3661
C31 C 0.7762(3) 0.14177(17) 0.4243(3)
C32 C 0.6570(3) 0.10546(16) 0.4278(3)
H35 H 0.6540 0.0922 0.5091
C33 C 0.6704(4) 0.05621(17) 0.3512(4)
H36 H 0.6645 0.0680 0.2694
H37 H 0.7583 0.0409 0.3670
C34 C 0.5725(5) 0.0125(2) 0.3652(5)
H38 H 0.4840 0.0281 0.3616
H39 H 0.5881 -0.0046 0.4419
C35 C 0.5818(6) -0.0303(2) 0.2692(6)
H40 H 0.5065 -0.0548 0.2719
H41 H 0.5765 -0.0122 0.1929
C36 C 0.7015(6) -0.0617(3) 0.2801(6)
H42 H 0.6945 -0.0886 0.3423
H43 H 0.7754 -0.0378 0.3021
C37 C 0.2738(3) 0.22627(15) 0.4116(2)
C38 C 0.1500(3) 0.25806(14) 0.3751(3)
H44 H 0.1378 0.2542 0.2892
C39 C 0.1606(4) 0.31792(16) 0.3992(4)
H45 H 0.1613 0.3239 0.4838
H46 H 0.2441 0.3312 0.3721
C40 C 0.0507(5) 0.34975(19) 0.3410(5)
H47 H -0.0329 0.3332 0.3599
H48 H 0.0572 0.3475 0.2561
C41 C 0.0497(5) 0.40914(19) 0.3768(5)
H49 H -0.0274 0.4265 0.3380
H50 H 0.0394 0.4110 0.4613
C42 C 0.1645(6) 0.4400(2) 0.3504(5)
H51 H 0.2414 0.4230 0.3902
H52 H 0.1561 0.4764 0.3834
Zn1_2 Zn 0.56823(4) 0.220094(14) -0.58559(3)
Zn2_2 Zn 1.06993(3) 0.146780(14) 0.43502(3)
Zn2A Zn 0.93007(3) 0.646780(14) 0.56498(3)
Zn2_3 Zn 0.06993(3) 0.146780(14) -0.56498(3)
O2_2 O -0.1161(2) 0.11711(10) 0.4272(2)
N2A N 0.1515(3) 0.06755(12) 0.4452(2)
N4_2 N 0.5693(3) 0.21814(15) 0.6081(2)
N6_2 N 0.0663(3) 0.14466(16) 0.6257(2)
O5 O 1.0534(7) 0.7542(3) 1.0804(7)
H53 H 0.9869 0.7577 1.0201
H54 H 1.0386 0.7803 1.1317
N11 N 0.9419(6) 0.9875(2) 0.0281(5)
O6 O 0.8211(5) 0.9923(2) 0.0153(4)
O7 O 0.9935(6) 0.9850(2) 0.1267(4)
O8 O 1.0058(5) 0.9887(2) -0.0591(5)
N12 N 0.9215(4) 0.81777(17) 0.3054(3)
O9 O 0.9535(4) 0.86466(16) 0.2816(4)
O10 O 0.8025(4) 0.80580(18) 0.2939(4)
O11 O 1.0025(3) 0.78428(14) 0.3412(3)
N13 N 0.5965(4) 0.04442(16) 0.7044(3)
O12 O 0.5668(3) -0.00369(14) 0.7245(3)
O13 O 0.7113(3) 0.05824(15) 0.7120(3)
O14 O 0.5102(3) 0.07704(15) 0.6750(3)
N14 N 0.8082(6) 0.8281(2) 0.9323(6)
O15 O 0.7168(5) 0.8458(2) 0.8613(5)
O16 O 0.8287(5) 0.7804(2) 0.9411(7)
O17 O 0.8814(6) 0.8622(2) 0.9766(6)
O18 O 0.4854(5) 0.8717(2) 0.0970(5)
N15 N 0.2865(5) 0.8676(2) 0.0072(4)
C43 C 0.4144(5) 0.8691(3) 0.0078(6)
H55 H 0.4541 0.8680 -0.0644
C44 C 0.2217(8) 0.8683(4) 0.1147(6)
H56 H 0.2559 0.8392 0.1647
H57 H 0.1281 0.8632 0.0988
H58 H 0.2373 0.9027 0.1536
C45 C 0.2102(7) 0.8662(3) -0.1010(5)
H59 H 0.2651 0.8547 -0.1628
H60 H 0.1756 0.9020 -0.1187
H61 H 0.1381 0.8409 -0.0950
O19 O 0.4301(14) 0.0931(6) 0.1802(10)
N16 N 0.4160(12) 0.0515(5) 0.0087(9)
C46 C 0.3757(11) 0.0613(4) 0.1123(9)
H62 H 0.3009 0.0430 0.1359
C47 C 0.5301(11) 0.0789(5) -0.0281(10)
H63 H 0.5649 0.1022 0.0344
H64 H 0.5067 0.1007 -0.0967
H65 H 0.5960 0.0525 -0.0469
C48 C 0.340(2) 0.0177(10) -0.0733(13)
H66 H 0.2504 0.0154 -0.0499
H67 H 0.3784 -0.0183 -0.0739
H68 H 0.3411 0.0333 -0.1509
C49? C 0.4563(13) 0.0842(6) 0.0395(14)
C50? C 0.3019(16) 0.0244(8) 0.1188(13)
C51? C 0.331(3) 0.0274(14) -0.0941(14)
H69? H 0.5023 0.0960 -0.0247
H70? H 0.3278 0.0440 0.1897
H71? H 0.3262 -0.0134 0.1280
H72? H 0.2075 0.0272 0.1038
H73? H 0.3640 0.0521 -0.1516
H74? H 0.2365 0.0249 -0.1045
H75? H 0.3696 -0.0082 -0.1042
N17? N 0.367(2) 0.0472(9) 0.0221(11)
O20? O 0.484(2) 0.1047(8) 0.1345(15)
loop_
_geom_bond_atom_site_label_1
_geom_bond_atom_site_label_2
_geom_bond_site_symmetry_1
_geom_bond_site_symmetry_2
Zn1 O1 1_555 1_555
Zn2 O3 1_555 1_555
O1 C31 1_555 1_555
O2 C31 1_555 1_555
O3 C37 1_555 1_555
O4 Zn1 1_555 1_555
N1 Zn1 1_555 1_555
N2 C6 1_555 1_555
N3 Zn1 1_555 1_555
N4 C16 1_555 1_555
N5 Zn2 1_555 1_555
N6 C26 1_555 1_555
N7 Zn1 1_555 1_555
H1 N7 1_555 1_555
H2 N7 1_555 1_555
N8 H3 1_555 1_555
H4 N8 1_555 1_555
H5 N8 1_555 1_555
N9 Zn2 1_555 1_555
H6 N9 1_555 1_555
H7 N9 1_555 1_555
N10 H8 1_555 1_555
H9 N10 1_555 1_555
H10 N10 1_555 1_555
C1 N1 1_555 1_555
H11 C1 1_555 1_555
C2 C1 1_555 1_555
H12 C2 1_555 1_555
C3 C2 1_555 1_555
C4 C3 1_555 1_555
H13 C4 1_555 1_555
C5 N1 1_555 1_555
H14 C5 1_555 1_555
C6 H15 1_555 1_555
C7 C6 1_555 1_555
H16 C7 1_555 1_555
C8 C3 1_555 1_555
C9 C8 1_555 1_555
H17 C9 1_555 1_555
C10 N2 1_555 1_555
H18 C10 1_555 1_555
C11 N3 1_555 1_555
H19 C11 1_555 1_555
C12 C11 1_555 1_555
H20 C12 1_555 1_555
C13 C12 1_555 1_555
C14 C13 1_555 1_555
H21 C14 1_555 1_555
C15 N3 1_555 1_555
H22 C15 1_555 1_555
C16 H23 1_555 1_555
C17 C16 1_555 1_555
H24 C17 1_555 1_555
C18 C13 1_555 1_555
C19 C18 1_555 1_555
H25 C19 1_555 1_555
C20 N4 1_555 1_555
H26 C20 1_555 1_555
C21 N5 1_555 1_555
H27 C21 1_555 1_555
C22 C21 1_555 1_555
H28 C22 1_555 1_555
C23 C22 1_555 1_555
C24 C23 1_555 1_555
H29 C24 1_555 1_555
C25 N5 1_555 1_555
H30 C25 1_555 1_555
C26 H31 1_555 1_555
C27 C26 1_555 1_555
H32 C27 1_555 1_555
C28 C23 1_555 1_555
C29 C28 1_555 1_555
H33 C29 1_555 1_555
C30 N6 1_555 1_555
H34 C30 1_555 1_555
C31 C32 1_555 1_555
C32 N7 1_555 1_555
H35 C32 1_555 1_555
C33 C32 1_555 1_555
H36 C33 1_555 1_555
H37 C33 1_555 1_555
C34 C33 1_555 1_555
H38 C34 1_555 1_555
H39 C34 1_555 1_555
C35 C34 1_555 1_555
H40 C35 1_555 1_555
H41 C35 1_555 1_555
C36 N8 1_555 1_555
H42 C36 1_555 1_555
H43 C36 1_555 1_555
C37 O4 1_555 1_555
C38 N9 1_555 1_555
H44 C38 1_555 1_555
C39 C38 1_555 1_555
H45 C39 1_555 1_555
H46 C39 1_555 1_555
C40 C39 1_555 1_555
H47 C40 1_555 1_555
H48 C40 1_555 1_555
C41 C40 1_555 1_555
H49 C41 1_555 1_555
H50 C41 1_555 1_555
C42 N10 1_555 1_555
H51 C42 1_555 1_555
H52 C42 1_555 1_555
O5 H53 1_555 1_555
H54 O5 1_555 1_555
N11 O6 1_555 1_555
O7 N11 1_555 1_555
O8 N11 1_555 1_555
N12 O9 1_555 1_555
O10 N12 1_555 1_555
O11 N12 1_555 1_555
N13 O12 1_555 1_555
O13 N13 1_555 1_555
O14 N13 1_555 1_555
N14 O15 1_555 1_555
O16 N14 1_555 1_555
O17 N14 1_555 1_555
O18 C43 1_555 1_555
N15 C43 1_555 1_555
C43 H55 1_555 1_555
C44 N15 1_555 1_555
H56 C44 1_555 1_555
H57 C44 1_555 1_555
H58 C44 1_555 1_555
C45 N15 1_555 1_555
H59 C45 1_555 1_555
H60 C45 1_555 1_555
H61 C45 1_555 1_555
O19 C46 1_555 1_555
N16 C46 1_555 1_555
C46 H62 1_555 1_555
C47 N16 1_555 1_555
H63 C47 1_555 1_555
H64 C47 1_555 1_555
H65 C47 1_555 1_555
C48 N16 1_555 1_555
H66 C48 1_555 1_555
H67 C48 1_555 1_555
H68 C48 1_555 1_555
Zn1_2 N4 1_555 1_555
Zn2_2 O2 1_555 1_555
Zn2A N2 1_555 1_555
Zn2_3 N6 1_555 1_555
O2_2 Zn2 1_555 1_555
N2A Zn2 1_555 1_555
N4_2 Zn1 1_555 1_555
N6_2 Zn2 1_555 1_555
C4 C5 1_555 1_555
C7 C8 1_555 1_555
C9 C10 1_555 1_555
C14 C15 1_555 1_555
C17 C18 1_555 1_555
C19 C20 1_555 1_555
C24 C25 1_555 1_555
C27 C28 1_555 1_555
C29 C30 1_555 1_555
C35 C36 1_555 1_555
C37 C38 1_555 1_555
C41 C42 1_555 1_555

#END
