
#######################################################################
#
#                 Cambridge Crystallographic Data Centre
#                                CCDC 
#
#######################################################################
#
# If this CIF has been generated from an entry in the Cambridge 
# Structural Database, then it will include bibliographic, chemical, 
# crystal, experimental, refinement or atomic coordinate data resulting 
# from the CCDC's data processing and validation procedures.
#
#######################################################################

data_HAZGOF11
_symmetry_cell_setting           orthorhombic
_symmetry_space_group_name_H-M   'F d d d'
_symmetry_Int_Tables_number      70
_space_group_name_Hall           '-F 2uv 2vw'
loop_
_symmetry_equiv_pos_site_id
_symmetry_equiv_pos_as_xyz
1 x,y,z
2 x,1/2+y,1/2+z
3 1/2+x,y,1/2+z
4 1/2+x,1/2+y,z
5 x,1/4-y,1/4-z
6 x,3/4-y,3/4-z
7 1/2+x,1/4-y,3/4-z
8 1/2+x,3/4-y,1/4-z
9 1/4-x,y,1/4-z
10 1/4-x,1/2+y,3/4-z
11 3/4-x,y,3/4-z
12 3/4-x,1/2+y,1/4-z
13 1/4-x,3/4-y,1/2+z
14 1/4-x,1/4-y,z
15 3/4-x,3/4-y,z
16 3/4-x,1/4-y,1/2+z
17 -x,-y,-z
18 -x,1/2-y,1/2-z
19 1/2-x,-y,1/2-z
20 1/2-x,1/2-y,-z
21 -x,3/4+y,3/4+z
22 -x,1/4+y,1/4+z
23 1/2-x,3/4+y,1/4+z
24 1/2-x,1/4+y,3/4+z
25 3/4+x,-y,3/4+z
26 3/4+x,1/2-y,1/4+z
27 1/4+x,-y,1/4+z
28 1/4+x,1/2-y,3/4+z
29 3/4+x,1/4+y,1/2-z
30 3/4+x,3/4+y,-z
31 1/4+x,1/4+y,-z
32 1/4+x,3/4+y,1/2-z
_cell_length_a                   8.7316(5)
_cell_length_b                   20.7231(7)
_cell_length_c                   34.3055(14)
_cell_angle_alpha                90
_cell_angle_beta                 90
_cell_angle_gamma                90
_cell_volume                     6207.44
loop_
_atom_site_label
_atom_site_type_symbol
_atom_site_fract_x
_atom_site_fract_y
_atom_site_fract_z
Sc1 Sc 0.3750 0.3750 0.63569(3)
O1 O 0.2418(5) 0.33313(12) 0.67920(9)
C1 C 0.1041(7) 0.32000(17) 0.68219(13)
O2 O 0.0044(4) 0.33409(14) 0.65723(10)
C2 C 0.0490(7) 0.28389(18) 0.71759(12)
C3 C 0.1541(7) 0.2642(3) 0.74521(15)
C4 C 0.1013(8) 0.2300(2) 0.77757(14)
O3 O 0.2447(4) 0.45794(10) 0.63518(10)
C5 C 0.1250 0.4860(2) 0.6250
C6 C 0.1250 0.5587(2) 0.6250
C7 C 0.2600(7) 0.59126(15) 0.62555(19)
H1 H 0.2596 0.2739 0.7423
H2 H 0.1725 0.2159 0.7966
H3 H 0.3539 0.5683 0.6267
O1Q O -0.2418(5) 0.16687(12) 0.82080(9)
C1Q C -0.1041(7) 0.18000(17) 0.81781(13)
O2Q O -0.0044(4) 0.16591(14) 0.84277(10)
C2Q C -0.0490(7) 0.21611(18) 0.78241(12)
C3Q C -0.1541(7) 0.2358(3) 0.75479(15)
C4Q C -0.1013(8) 0.2700(2) 0.72243(14)
H1Q H -0.2596 0.2261 0.7577
H2Q H -0.1725 0.2841 0.7034
O3D O 0.2447(4) 0.79206(10) 0.61482(10)
C5D C 0.1250 0.7640(2) 0.6250
C6D C 0.1250 0.6913(2) 0.6250
C7D C 0.2600(7) 0.65874(15) 0.62445(19)
H3D H 0.3539 0.6817 0.6233
O3H O 0.0053(4) 0.45794(10) 0.61482(10)
C7H C -0.0100(7) 0.59126(15) 0.62445(19)
H3H H -0.1039 0.5683 0.6233
O3M O 0.0053(4) 0.79206(10) 0.63518(10)
C7M C -0.0100(7) 0.65874(15) 0.62555(19)
H3M H -0.1039 0.6817 0.6267
Sc1Q Sc -0.3750 0.1250 0.86431(3)
O1N O 0.5082(5) 0.41687(12) 0.67920(9)
C1N C 0.6459(7) 0.43000(17) 0.68219(13)
O2N O 0.7456(4) 0.41591(14) 0.65723(10)
C2N C 0.7010(7) 0.46611(18) 0.71759(12)
C3N C 0.5959(7) 0.4858(3) 0.74521(15)
C4N C 0.6487(8) 0.5200(2) 0.77757(14)
H1N H 0.4904 0.4761 0.7423
H2N H 0.5775 0.5341 0.7966
O1BA O 0.9918(5) 0.58313(12) 0.82080(9)
C1BA C 0.8541(7) 0.57000(17) 0.81781(13)
O2BA O 0.7544(4) 0.58409(14) 0.84277(10)
C2BA C 0.7990(7) 0.53389(18) 0.78241(12)
C3BA C 0.9041(7) 0.5142(3) 0.75479(15)
C4BA C 0.8513(8) 0.4800(2) 0.72243(14)
H1BA H 1.0096 0.5239 0.7577
H2BA H 0.9225 0.4659 0.7034
Sc1R Sc 1.1250 0.6250 0.86431(3)
Sc1C Sc -0.1250 0.8750 0.63569(3)
Sc1U Sc 0.6250 0.6250 0.88569(3)
Sc1D Sc 0.3750 0.8750 0.61431(3)
Sc1V Sc 0.1250 0.1250 0.88569(3)
Sc1G Sc -0.1250 0.3750 0.61431(3)
Sc1G_2 Sc 0.8750 0.3750 0.61431(3)
O1EA O -0.5082(5) 0.08313(12) 0.82080(9)
O2V O -0.5044(4) 0.08409(14) 0.90723(10)
O2G O 0.5044(4) 0.41591(14) 0.59277(10)
O2H O 0.2456(4) 0.33409(14) 0.59277(10)
O2Y O -0.2456(4) 0.16591(14) 0.90723(10)
O3Q O -0.2447(4) 0.04206(10) 0.86482(10)
O3EA O -0.5053(4) 0.20794(10) 0.86482(10)
O3N O 0.5053(4) 0.29206(10) 0.63518(10)
loop_
_geom_bond_atom_site_label_1
_geom_bond_atom_site_label_2
_geom_bond_site_symmetry_1
_geom_bond_site_symmetry_2
Sc1 O1 1_555 1_555
O1 C1 1_555 1_555
C1 O2 1_555 1_555
O2 Sc1G 1_555 1_555
C2 C1 1_555 1_555
C3 C2 1_555 1_555
C4 C3 1_555 1_555
O3 Sc1 1_555 1_555
C5 O3 1_555 1_555
C6 C5 1_555 1_555
C7 C6 1_555 1_555
H1 C3 1_555 1_555
H2 C4 1_555 1_555
H3 C7 1_555 1_555
O1Q C1Q 1_555 1_555
C1Q O2Q 1_555 1_555
O2Q Sc1V 1_555 1_555
C2Q C4 1_555 1_555
C3Q C2Q 1_555 1_555
C4Q C2 1_555 1_555
H1Q C3Q 1_555 1_555
H2Q C4Q 1_555 1_555
O3D C5D 1_555 1_555
C5D C6D 1_555 1_555
C6D C7D 1_555 1_555
C7D C7 1_555 1_555
H3D C7D 1_555 1_555
O3H C5 1_555 1_555
C7H C6 1_555 1_555
H3H C7H 1_555 1_555
O3M C5D 1_555 1_555
C7M C6D 1_555 1_555
H3M C7M 1_555 1_555
Sc1Q O1Q 1_555 1_555
O1N Sc1 1_555 1_555
C1N O1N 1_555 1_555
O2N C1N 1_555 1_555
C2N C1N 1_555 1_555
C3N C2N 1_555 1_555
C4N C3N 1_555 1_555
H1N C3N 1_555 1_555
H2N C4N 1_555 1_555
O1BA C1BA 1_555 1_555
C1BA O2BA 1_555 1_555
O2BA Sc1U 1_555 1_555
C2BA C4N 1_555 1_555
C3BA C2BA 1_555 1_555
C4BA C2N 1_555 1_555
H1BA C3BA 1_555 1_555
H2BA C4BA 1_555 1_555
Sc1R O1BA 1_555 1_555
Sc1C O3M 1_555 1_555
Sc1D O3D 1_555 1_555
Sc1G O3H 1_555 1_555
Sc1G_2 O2N 1_555 1_555
O1EA Sc1Q 1_555 1_555
O2V Sc1Q 1_555 1_555
O2G Sc1 1_555 1_555
O2H Sc1 1_555 1_555
O2Y Sc1Q 1_555 1_555
O3Q Sc1Q 1_555 1_555
O3EA Sc1Q 1_555 1_555
O3N Sc1 1_555 1_555
C1Q C2Q 1_555 1_555
C3Q C4Q 1_555 1_555
C7H C7M 1_555 1_555
C1BA C2BA 1_555 1_555
C3BA C4BA 1_555 1_555

#END
