
#######################################################################
#
#                 Cambridge Crystallographic Data Centre
#                                CCDC 
#
#######################################################################
#
# If this CIF has been generated from an entry in the Cambridge 
# Structural Database, then it will include bibliographic, chemical, 
# crystal, experimental, refinement or atomic coordinate data resulting 
# from the CCDC's data processing and validation procedures.
#
#######################################################################

data_HAZGOF08
_symmetry_cell_setting           orthorhombic
_symmetry_space_group_name_H-M   'F d d d'
_symmetry_Int_Tables_number      70
_space_group_name_Hall           '-F 2uv 2vw'
loop_
_symmetry_equiv_pos_site_id
_symmetry_equiv_pos_as_xyz
1 x,y,z
2 3/4-x,1/4-y,1/2+z
3 x,3/4-y,3/4-z
4 3/4-x,y,3/4-z
5 x,1/2+y,1/2+z
6 3/4-x,3/4-y,z
7 x,1/4-y,1/4-z
8 3/4-x,1/2+y,1/4-z
9 1/2+x,y,1/2+z
10 1/4-x,1/4-y,z
11 1/2+x,3/4-y,1/4-z
12 1/4-x,y,1/4-z
13 1/2+x,1/2+y,z
14 1/4-x,3/4-y,1/2+z
15 1/2+x,1/4-y,3/4-z
16 1/4-x,1/2+y,3/4-z
17 -x,-y,-z
18 1/4+x,3/4+y,1/2-z
19 -x,1/4+y,1/4+z
20 1/4+x,-y,1/4+z
21 -x,1/2-y,1/2-z
22 1/4+x,1/4+y,-z
23 -x,3/4+y,3/4+z
24 1/4+x,1/2-y,3/4+z
25 1/2-x,-y,1/2-z
26 3/4+x,3/4+y,-z
27 1/2-x,1/4+y,3/4+z
28 3/4+x,-y,3/4+z
29 1/2-x,1/2-y,-z
30 3/4+x,1/4+y,1/2-z
31 1/2-x,3/4+y,1/4+z
32 3/4+x,1/2-y,1/4+z
_cell_length_a                   8.704711(32)
_cell_length_b                   20.718870(31)
_cell_length_c                   34.37361(6)
_cell_angle_alpha                90
_cell_angle_beta                 90
_cell_angle_gamma                90
_cell_volume                     6199.34
loop_
_atom_site_label
_atom_site_type_symbol
_atom_site_fract_x
_atom_site_fract_y
_atom_site_fract_z
Sc1 Sc 0.125 0.125 0.36427(4)
O1 O -0.0068(4) 0.20822(12) 0.36454(8)
O2 O 0.2640(4) 0.16546(14) 0.32085(8)
O3 O 0.4944(4) 0.16570(14) 0.34217(8)
C1 C -0.125 0.23766(23) 0.375
C2 C -0.125 0.30885(18) 0.375
C3 C -0.26406(34) 0.34119(9) 0.37519(16)
C4 C 0.3971(6) 0.17985(21) 0.31648(12)
C5 C 0.4522(6) 0.21759(23) 0.28204(11)
C6 C 0.3433(5) 0.23407(22) 0.25426(14)
C7 C 0.6058(5) 0.22985(22) 0.27753(12)
Sc1C Sc -0.375 0.125 0.38573(4)
Sc1C_2 Sc 0.625 0.125 0.38573(4)
Sc1B Sc 0.125 0.625 0.38573(4)
Sc1E Sc -0.375 0.625 0.36427(4)
Sc1T Sc 0.875 0.375 0.13573(4)
Sc1W Sc 0.375 0.375 0.11427(4)
Sc1Q Sc -0.625 -0.125 0.13573(4)
Sc1V Sc -0.125 -0.125 0.11427(4)
O1C O -0.2432(4) 0.20822(12) 0.38546(8)
O1B O -0.0068(4) 0.54178(12) 0.38546(8)
O1E O -0.2432(4) 0.54178(12) 0.36454(8)
O1I O 0.2568(4) 0.04178(12) 0.36454(8)
O1N O -0.5068(4) 0.04178(12) 0.38546(8)
O2T O 0.7360(4) 0.33454(14) 0.17915(8)
O2I O -0.0140(4) 0.08454(14) 0.32085(8)
O2Q O -0.4860(4) -0.08454(14) 0.17915(8)
O2C O -0.5140(4) 0.16546(14) 0.42915(8)
O2N O -0.2360(4) 0.08454(14) 0.42915(8)
O3T O 0.5056(4) 0.33430(14) 0.15783(8)
O3I O -0.2444(4) 0.08430(14) 0.34217(8)
O3Q O -0.2556(4) -0.08430(14) 0.15783(8)
O3C O 0.2556(4) 0.16570(14) 0.40783(8)
O3N O -0.0056(4) 0.08430(14) 0.40783(8)
O3_2 O -0.5056(4) 0.16570(14) 0.34217(8)
C1B C -0.125 0.51234(23) 0.375
C2B C -0.125 0.44115(18) 0.375
C3B C -0.26406(34) 0.40881(9) 0.37481(16)
C3E C 0.01406(34) 0.40881(9) 0.37519(16)
C3C C 0.01406(34) 0.34119(9) 0.37481(16)
C4T C 0.6029(6) 0.32015(21) 0.18352(12)
C4I C -0.1471(6) 0.07015(21) 0.31648(12)
C4Q C -0.3529(6) -0.07015(21) 0.18352(12)
C5T C 0.5478(6) 0.28241(23) 0.21796(11)
C5I C -0.2022(6) 0.03241(23) 0.28204(11)
C5Q C -0.2978(6) -0.03241(23) 0.21796(11)
C6T C 0.6567(5) 0.26593(22) 0.24574(14)
C6I C -0.0933(5) 0.01593(22) 0.25426(14)
C6Q C -0.4067(5) -0.01593(22) 0.24574(14)
C7T C 0.3942(5) 0.27015(22) 0.22247(12)
C7I C -0.3558(5) 0.02015(22) 0.27753(12)
C7Q C -0.1442(5) -0.02015(22) 0.22247(12)
loop_
_geom_bond_atom_site_label_1
_geom_bond_atom_site_label_2
_geom_bond_site_symmetry_1
_geom_bond_site_symmetry_2
Sc1 O1 1_555 1_555
O1 C1 1_555 1_555
O2 Sc1 1_555 1_555
O3 C4 1_555 1_555
C1 C2 1_555 1_555
C2 C3 1_555 1_555
C3 C3B 1_555 1_555
C4 O2 1_555 1_555
C5 C4 1_555 1_555
C6 C5 1_555 1_555
C7 C5 1_555 1_555
Sc1C O1C 1_555 1_555
Sc1C_2 O3 1_555 1_555
Sc1B O1B 1_555 1_555
Sc1E O1E 1_555 1_555
Sc1T O2T 1_555 1_555
Sc1W O3T 1_555 1_555
Sc1Q O2Q 1_555 1_555
Sc1V O3Q 1_555 1_555
O1C C1 1_555 1_555
O1B C1B 1_555 1_555
O1E C1B 1_555 1_555
O1I Sc1 1_555 1_555
O1N Sc1C 1_555 1_555
O2T C4T 1_555 1_555
O2I Sc1 1_555 1_555
O2Q C4Q 1_555 1_555
O2C Sc1C 1_555 1_555
O2N Sc1C 1_555 1_555
O3T C4T 1_555 1_555
O3I Sc1C 1_555 1_555
O3Q C4Q 1_555 1_555
O3C Sc1 1_555 1_555
O3N Sc1 1_555 1_555
O3_2 Sc1C 1_555 1_555
C1B C2B 1_555 1_555
C2B C3B 1_555 1_555
C3E C2B 1_555 1_555
C3C C2 1_555 1_555
C4T C5T 1_555 1_555
C4I O2I 1_555 1_555
C4Q C5Q 1_555 1_555
C5T C6T 1_555 1_555
C5I C4I 1_555 1_555
C5Q C6Q 1_555 1_555
C6T C7 1_555 1_555
C6I C5I 1_555 1_555
C6Q C7I 1_555 1_555
C7T C6 1_555 1_555
C7I C5I 1_555 1_555
C7Q C5Q 1_555 1_555
O3I C4I 1_555 1_555
C3E C3C 1_555 1_555
C5T C7T 1_555 1_555
C6I C7Q 1_555 1_555

#END
