
#######################################################################
#
#                 Cambridge Crystallographic Data Centre
#                                CCDC 
#
#######################################################################
#
# If this CIF has been generated from an entry in the Cambridge 
# Structural Database, then it will include bibliographic, chemical, 
# crystal, experimental, refinement or atomic coordinate data resulting 
# from the CCDC's data processing and validation procedures.
#
#######################################################################

data_HAZGOF10
_symmetry_cell_setting           orthorhombic
_symmetry_space_group_name_H-M   'F d d d'
_symmetry_Int_Tables_number      70
_space_group_name_Hall           '-F 2uv 2vw'
loop_
_symmetry_equiv_pos_site_id
_symmetry_equiv_pos_as_xyz
1 x,y,z
2 x,1/2+y,1/2+z
3 1/2+x,y,1/2+z
4 1/2+x,1/2+y,z
5 x,1/4-y,1/4-z
6 x,3/4-y,3/4-z
7 1/2+x,1/4-y,3/4-z
8 1/2+x,3/4-y,1/4-z
9 1/4-x,y,1/4-z
10 1/4-x,1/2+y,3/4-z
11 3/4-x,y,3/4-z
12 3/4-x,1/2+y,1/4-z
13 1/4-x,3/4-y,1/2+z
14 1/4-x,1/4-y,z
15 3/4-x,3/4-y,z
16 3/4-x,1/4-y,1/2+z
17 -x,-y,-z
18 -x,1/2-y,1/2-z
19 1/2-x,-y,1/2-z
20 1/2-x,1/2-y,-z
21 -x,3/4+y,3/4+z
22 -x,1/4+y,1/4+z
23 1/2-x,3/4+y,1/4+z
24 1/2-x,1/4+y,3/4+z
25 3/4+x,-y,3/4+z
26 3/4+x,1/2-y,1/4+z
27 1/4+x,-y,1/4+z
28 1/4+x,1/2-y,3/4+z
29 3/4+x,1/4+y,1/2-z
30 3/4+x,3/4+y,-z
31 1/4+x,1/4+y,-z
32 1/4+x,3/4+y,1/2-z
_cell_length_a                   8.7467(2)
_cell_length_b                   20.7505(4)
_cell_length_c                   34.3708(6)
_cell_angle_alpha                90
_cell_angle_beta                 90
_cell_angle_gamma                90
_cell_volume                     6238.25
loop_
_atom_site_label
_atom_site_type_symbol
_atom_site_fract_x
_atom_site_fract_y
_atom_site_fract_z
Sc1 Sc 0.3750 0.3750 0.635715(16)
O1 O 0.24135(19) 0.33337(10) 0.67948(5)
C1 C 0.1019(3) 0.31972(13) 0.68228(7)
O2 O 0.0044(2) 0.33428(11) 0.65733(5)
C2 C 0.0495(3) 0.28372(14) 0.71756(7)
C3 C 0.1522(3) 0.26426(17) 0.74524(8)
C4 C 0.1030(3) 0.23067(17) 0.77771(8)
O3 O 0.2447(2) 0.45817(8) 0.63543(6)
C5 C 0.1250 0.48632(15) 0.6250
C6 C 0.1250 0.55825(16) 0.6250
C7 C 0.2603(3) 0.59165(12) 0.62541(12)
H1 H 0.2577 0.2737 0.7421
H2 H 0.1748 0.2175 0.7969
H3 H 0.3545 0.5689 0.6263
O1Q O -0.24135(19) 0.16663(10) 0.82052(5)
C1Q C -0.1019(3) 0.18028(13) 0.81772(7)
O2Q O -0.0044(2) 0.16572(11) 0.84267(5)
C2Q C -0.0495(3) 0.21628(14) 0.78244(7)
C3Q C -0.1522(3) 0.23574(17) 0.75476(8)
C4Q C -0.1030(3) 0.26933(17) 0.72229(8)
H1Q H -0.2577 0.2263 0.7579
H2Q H -0.1748 0.2825 0.7031
O3D O 0.2447(2) 0.79183(8) 0.61457(6)
C5D C 0.1250 0.76368(15) 0.6250
C6D C 0.1250 0.69175(16) 0.6250
C7D C 0.2603(3) 0.65835(12) 0.62459(12)
H3D H 0.3545 0.6811 0.6237
O3H O 0.0053(2) 0.45817(8) 0.61457(6)
C7H C -0.0103(3) 0.59165(12) 0.62459(12)
H3H H -0.1045 0.5689 0.6237
O3M O 0.0053(2) 0.79183(8) 0.63543(6)
C7M C -0.0103(3) 0.65835(12) 0.62541(12)
H3M H -0.1045 0.6811 0.6263
Sc1Q Sc -0.3750 0.1250 0.864285(16)
O1N O 0.50865(19) 0.41663(10) 0.67948(5)
C1N C 0.6481(3) 0.43028(13) 0.68228(7)
O2N O 0.7456(2) 0.41572(11) 0.65733(5)
C2N C 0.7005(3) 0.46628(14) 0.71756(7)
C3N C 0.5978(3) 0.48574(17) 0.74524(8)
C4N C 0.6470(3) 0.51933(17) 0.77771(8)
H1N H 0.4923 0.4763 0.7421
H2N H 0.5752 0.5325 0.7969
O1BA O 0.99135(19) 0.58337(10) 0.82052(5)
C1BA C 0.8519(3) 0.56972(13) 0.81772(7)
O2BA O 0.7544(2) 0.58428(11) 0.84267(5)
C2BA C 0.7995(3) 0.53372(14) 0.78244(7)
C3BA C 0.9022(3) 0.51426(17) 0.75476(8)
C4BA C 0.8530(3) 0.48067(17) 0.72229(8)
H1BA H 1.0077 0.5237 0.7579
H2BA H 0.9248 0.4675 0.7031
Sc1R Sc 1.1250 0.6250 0.864285(16)
Sc1C Sc -0.1250 0.8750 0.635715(16)
Sc1U Sc 0.6250 0.6250 0.885715(16)
Sc1D Sc 0.3750 0.8750 0.614285(16)
Sc1V Sc 0.1250 0.1250 0.885715(16)
Sc1G Sc -0.1250 0.3750 0.614285(16)
Sc1G_2 Sc 0.8750 0.3750 0.614285(16)
O1EA O -0.50865(19) 0.08337(10) 0.82052(5)
O2V O -0.5044(2) 0.08428(11) 0.90733(5)
O2G O 0.5044(2) 0.41572(11) 0.59267(5)
O2H O 0.2456(2) 0.33428(11) 0.59267(5)
O2Y O -0.2456(2) 0.16572(11) 0.90733(5)
O3Q O -0.2447(2) 0.04183(8) 0.86457(6)
O3EA O -0.5053(2) 0.20817(8) 0.86457(6)
O3N O 0.5053(2) 0.29183(8) 0.63543(6)
loop_
_geom_bond_atom_site_label_1
_geom_bond_atom_site_label_2
_geom_bond_site_symmetry_1
_geom_bond_site_symmetry_2
Sc1 O1 1_555 1_555
O1 C1 1_555 1_555
C1 O2 1_555 1_555
O2 Sc1G 1_555 1_555
C2 C1 1_555 1_555
C3 C2 1_555 1_555
C4 C3 1_555 1_555
O3 Sc1 1_555 1_555
C5 O3 1_555 1_555
C6 C5 1_555 1_555
C7 C6 1_555 1_555
H1 C3 1_555 1_555
H2 C4 1_555 1_555
H3 C7 1_555 1_555
O1Q C1Q 1_555 1_555
C1Q O2Q 1_555 1_555
O2Q Sc1V 1_555 1_555
C2Q C4 1_555 1_555
C3Q C2Q 1_555 1_555
C4Q C2 1_555 1_555
H1Q C3Q 1_555 1_555
H2Q C4Q 1_555 1_555
O3D C5D 1_555 1_555
C5D C6D 1_555 1_555
C6D C7D 1_555 1_555
C7D C7 1_555 1_555
H3D C7D 1_555 1_555
O3H C5 1_555 1_555
C7H C6 1_555 1_555
H3H C7H 1_555 1_555
O3M C5D 1_555 1_555
C7M C6D 1_555 1_555
H3M C7M 1_555 1_555
Sc1Q O1Q 1_555 1_555
O1N Sc1 1_555 1_555
C1N O1N 1_555 1_555
O2N C1N 1_555 1_555
C2N C1N 1_555 1_555
C3N C2N 1_555 1_555
C4N C3N 1_555 1_555
H1N C3N 1_555 1_555
H2N C4N 1_555 1_555
O1BA C1BA 1_555 1_555
C1BA O2BA 1_555 1_555
O2BA Sc1U 1_555 1_555
C2BA C4N 1_555 1_555
C3BA C2BA 1_555 1_555
C4BA C2N 1_555 1_555
H1BA C3BA 1_555 1_555
H2BA C4BA 1_555 1_555
Sc1R O1BA 1_555 1_555
Sc1C O3M 1_555 1_555
Sc1D O3D 1_555 1_555
Sc1G O3H 1_555 1_555
Sc1G_2 O2N 1_555 1_555
O1EA Sc1Q 1_555 1_555
O2V Sc1Q 1_555 1_555
O2G Sc1 1_555 1_555
O2H Sc1 1_555 1_555
O2Y Sc1Q 1_555 1_555
O3Q Sc1Q 1_555 1_555
O3EA Sc1Q 1_555 1_555
O3N Sc1 1_555 1_555
C1Q C2Q 1_555 1_555
C3Q C4Q 1_555 1_555
C7H C7M 1_555 1_555
C1BA C2BA 1_555 1_555
C3BA C4BA 1_555 1_555

#END
