
#######################################################################
#
#                 Cambridge Crystallographic Data Centre
#                                CCDC 
#
#######################################################################
#
# If this CIF has been generated from an entry in the Cambridge 
# Structural Database, then it will include bibliographic, chemical, 
# crystal, experimental, refinement or atomic coordinate data resulting 
# from the CCDC's data processing and validation procedures.
#
#######################################################################

data_HAZGOF03
_symmetry_cell_setting           orthorhombic
_symmetry_space_group_name_H-M   'F d d d'
_symmetry_Int_Tables_number      70
_space_group_name_Hall           '-F 2uv 2vw'
loop_
_symmetry_equiv_pos_site_id
_symmetry_equiv_pos_as_xyz
1 x,y,z
2 3/4-x,1/4-y,1/2+z
3 x,3/4-y,3/4-z
4 3/4-x,y,3/4-z
5 x,1/2+y,1/2+z
6 3/4-x,3/4-y,z
7 x,1/4-y,1/4-z
8 3/4-x,1/2+y,1/4-z
9 1/2+x,y,1/2+z
10 1/4-x,1/4-y,z
11 1/2+x,3/4-y,1/4-z
12 1/4-x,y,1/4-z
13 1/2+x,1/2+y,z
14 1/4-x,3/4-y,1/2+z
15 1/2+x,1/4-y,3/4-z
16 1/4-x,1/2+y,3/4-z
17 -x,-y,-z
18 1/4+x,3/4+y,1/2-z
19 -x,1/4+y,1/4+z
20 1/4+x,-y,1/4+z
21 -x,1/2-y,1/2-z
22 1/4+x,1/4+y,-z
23 -x,3/4+y,3/4+z
24 1/4+x,1/2-y,3/4+z
25 1/2-x,-y,1/2-z
26 3/4+x,3/4+y,-z
27 1/2-x,1/4+y,3/4+z
28 3/4+x,-y,3/4+z
29 1/2-x,1/2-y,-z
30 3/4+x,1/4+y,1/2-z
31 1/2-x,3/4+y,1/4+z
32 3/4+x,1/2-y,1/4+z
_cell_length_a                   8.75292(4)
_cell_length_b                   20.75510(5)
_cell_length_c                   34.35779(8)
_cell_angle_alpha                90
_cell_angle_beta                 90
_cell_angle_gamma                90
_cell_volume                     6241.7
loop_
_atom_site_label
_atom_site_type_symbol
_atom_site_fract_x
_atom_site_fract_y
_atom_site_fract_z
Sc1 Sc 0.125 0.125 0.36422(6)
O1 O -0.0068(5) 0.20820(18) 0.36454(13)
O2 O 0.2610(5) 0.16519(23) 0.31999(12)
O3 O 0.4939(5) 0.16628(24) 0.34219(11)
C1 C -0.125 0.23899(25) 0.375
C2 C -0.125 0.30838(12) 0.375
C3 C -0.26268(21) 0.34154(5) 0.37461(24)
C4 C 0.4003(6) 0.17954(30) 0.31514(15)
C5 C 0.4518(4) 0.21690(26) 0.28225(10)
C6 C 0.34627(30) 0.23317(24) 0.25369(11)
C7 C 0.60608(34) 0.23055(25) 0.27789(10)
Sc1C Sc -0.375 0.125 0.38578(6)
Sc1C_2 Sc 0.625 0.125 0.38578(6)
Sc1B Sc 0.125 0.625 0.38578(6)
Sc1E Sc -0.375 0.625 0.36422(6)
Sc1T Sc 0.875 0.375 0.13578(6)
Sc1W Sc 0.375 0.375 0.11422(6)
Sc1Q Sc -0.625 -0.125 0.13578(6)
Sc1V Sc -0.125 -0.125 0.11422(6)
O1C O -0.2432(5) 0.20820(18) 0.38546(13)
O1B O -0.0068(5) 0.54180(18) 0.38546(13)
O1E O -0.2432(5) 0.54180(18) 0.36454(13)
O1I O 0.2568(5) 0.04180(18) 0.36454(13)
O1N O -0.5068(5) 0.04180(18) 0.38546(13)
O2T O 0.7390(5) 0.33481(23) 0.18001(12)
O2I O -0.0110(5) 0.08481(23) 0.31999(12)
O2Q O -0.4890(5) -0.08481(23) 0.18001(12)
O2C O -0.5110(5) 0.16519(23) 0.43001(12)
O2N O -0.2390(5) 0.08481(23) 0.43001(12)
O3T O 0.5061(5) 0.33372(24) 0.15781(11)
O3I O -0.2439(5) 0.08372(24) 0.34219(11)
O3Q O -0.2561(5) -0.08372(24) 0.15781(11)
O3C O 0.2561(5) 0.16628(24) 0.40781(11)
O3N O -0.0061(5) 0.08372(24) 0.40781(11)
O3_2 O -0.5061(5) 0.16628(24) 0.34219(11)
C1B C -0.125 0.51101(25) 0.375
C2B C -0.125 0.44162(12) 0.375
C3B C -0.26268(21) 0.40846(5) 0.37539(24)
C3E C 0.01268(21) 0.40846(5) 0.37461(24)
C3C C 0.01268(21) 0.34154(5) 0.37539(24)
C4T C 0.5997(6) 0.32046(30) 0.18486(15)
C4I C -0.1503(6) 0.07046(30) 0.31514(15)
C4Q C -0.3497(6) -0.07046(30) 0.18486(15)
C5T C 0.5482(4) 0.28310(26) 0.21775(10)
C5I C -0.2018(4) 0.03310(26) 0.28225(10)
C5Q C -0.2982(4) -0.03310(26) 0.21775(10)
C6T C 0.65373(30) 0.26683(24) 0.24631(11)
C6I C -0.09627(30) 0.01683(24) 0.25369(11)
C6Q C -0.40373(30) -0.01683(24) 0.24631(11)
C7T C 0.39392(34) 0.26945(25) 0.22211(10)
C7I C -0.35608(34) 0.01945(25) 0.27789(10)
C7Q C -0.14392(34) -0.01945(25) 0.22211(10)
loop_
_geom_bond_atom_site_label_1
_geom_bond_atom_site_label_2
_geom_bond_site_symmetry_1
_geom_bond_site_symmetry_2
Sc1 O1 1_555 1_555
O1 C1 1_555 1_555
O2 Sc1 1_555 1_555
O3 C4 1_555 1_555
C1 C2 1_555 1_555
C2 C3 1_555 1_555
C3 C3B 1_555 1_555
C4 O2 1_555 1_555
C5 C4 1_555 1_555
C6 C5 1_555 1_555
C7 C5 1_555 1_555
Sc1C O1C 1_555 1_555
Sc1C_2 O3 1_555 1_555
Sc1B O1B 1_555 1_555
Sc1E O1E 1_555 1_555
Sc1T O2T 1_555 1_555
Sc1W O3T 1_555 1_555
Sc1Q O2Q 1_555 1_555
Sc1V O3Q 1_555 1_555
O1C C1 1_555 1_555
O1B C1B 1_555 1_555
O1E C1B 1_555 1_555
O1I Sc1 1_555 1_555
O1N Sc1C 1_555 1_555
O2T C4T 1_555 1_555
O2I Sc1 1_555 1_555
O2Q C4Q 1_555 1_555
O2C Sc1C 1_555 1_555
O2N Sc1C 1_555 1_555
O3T C4T 1_555 1_555
O3I Sc1C 1_555 1_555
O3Q C4Q 1_555 1_555
O3C Sc1 1_555 1_555
O3N Sc1 1_555 1_555
O3_2 Sc1C 1_555 1_555
C1B C2B 1_555 1_555
C2B C3B 1_555 1_555
C3E C2B 1_555 1_555
C3C C2 1_555 1_555
C4T C5T 1_555 1_555
C4I O2I 1_555 1_555
C4Q C5Q 1_555 1_555
C5T C6T 1_555 1_555
C5I C4I 1_555 1_555
C5Q C6Q 1_555 1_555
C6T C7 1_555 1_555
C6I C5I 1_555 1_555
C6Q C7I 1_555 1_555
C7T C6 1_555 1_555
C7I C5I 1_555 1_555
C7Q C5Q 1_555 1_555
O3I C4I 1_555 1_555
C3E C3C 1_555 1_555
C5T C7T 1_555 1_555
C6I C7Q 1_555 1_555

#END
