
#######################################################################
#
#                 Cambridge Crystallographic Data Centre
#                                CCDC 
#
#######################################################################
#
# If this CIF has been generated from an entry in the Cambridge 
# Structural Database, then it will include bibliographic, chemical, 
# crystal, experimental, refinement or atomic coordinate data resulting 
# from the CCDC's data processing and validation procedures.
#
#######################################################################

data_HEBJAB
_symmetry_cell_setting           triclinic
_symmetry_space_group_name_H-M   'P -1'
_symmetry_Int_Tables_number      2
_space_group_name_Hall           '-P 1'
loop_
_symmetry_equiv_pos_site_id
_symmetry_equiv_pos_as_xyz
1 x,y,z
2 -x,-y,-z
_cell_length_a                   9.730(7)
_cell_length_b                   10.190(5)
_cell_length_c                   19.529(6)
_cell_angle_alpha                78.011(5)
_cell_angle_beta                 80.400(8)
_cell_angle_gamma                87.705(7)
_cell_volume                     1867.49
loop_
_atom_site_label
_atom_site_type_symbol
_atom_site_fract_x
_atom_site_fract_y
_atom_site_fract_z
Co1 Co 0.68611(6) 0.39561(5) 0.72257(3)
Co2 Co 1.0000 1.0000 0.0000
O1 O 0.6978(3) 0.5941(3) 0.67626(15)
O2 O 0.7687(3) 0.6745(3) 0.76271(16)
O3 O 0.6782(3) 1.1772(3) 0.74247(14)
O4 O 0.6794(3) 1.2996(3) 0.63532(14)
O5 O 0.9153(3) 1.0055(3) 0.10389(15)
O6 O 0.7140(3) 1.1172(4) 0.09466(17)
O7 O 0.7749(3) 0.9756(3) 0.46749(15)
N1 N 0.4647(3) 0.4093(3) 0.75711(18)
N2 N 0.0362(3) 0.4411(3) 0.93735(17)
N3 N 0.9067(4) 0.3809(3) 0.68717(19)
N4 N 1.3870(3) 0.4114(3) 0.53542(19)
C1 C 0.7348(4) 0.6881(4) 0.7025(2)
C2 C 0.7361(4) 0.8258(4) 0.6559(2)
C3 C 0.7168(4) 0.9380(4) 0.6873(2)
H1 H 0.7057 0.9282 0.7364
C4 C 0.7147(4) 1.0641(4) 0.6439(2)
C5 C 0.6888(4) 1.1870(4) 0.6759(2)
C6 C 0.7356(4) 1.0812(4) 0.5711(2)
H2 H 0.7362 1.1670 0.5430
C7 C 0.7558(4) 0.9693(4) 0.5394(2)
C8 C 0.7538(4) 0.8419(4) 0.5830(2)
H3 H 0.7645 0.7666 0.5626
C9 C 0.7685(5) 1.1079(4) 0.4239(2)
H4 H 0.8448 1.1619 0.4287
H5 H 0.6815 1.1516 0.4389
C10 C 0.7782(4) 1.0949(4) 0.3477(2)
C11 C 0.6585(4) 1.0880(4) 0.3183(2)
H6 H 0.5716 1.0884 0.3465
C12 C 0.6669(4) 1.0806(4) 0.2477(2)
H7 H 0.5861 1.0781 0.2284
C13 C 0.7973(4) 1.0768(4) 0.2055(2)
C14 C 0.9175(4) 1.0827(4) 0.2344(2)
H8 H 1.0046 1.0798 0.2067
C15 C 0.9071(4) 1.0928(4) 0.3049(2)
H9 H 0.9878 1.0982 0.3238
C16 C 0.8084(4) 1.0673(4) 0.1284(2)
C17 C 0.3913(4) 0.3042(4) 0.7959(2)
H10 H 0.4341 0.2203 0.8008
C18 C 0.2551(4) 0.3126(4) 0.8295(2)
H11 H 0.2090 0.2359 0.8563
C19 C 0.1875(4) 0.4365(4) 0.8229(2)
C20 C 0.2622(4) 0.5449(4) 0.7805(2)
H12 H 0.2207 0.6294 0.7731
C21 C 0.3976(4) 0.5283(4) 0.7493(2)
H13 H 0.4452 0.6032 0.7214
C22 C 0.0419(4) 0.4523(4) 0.8603(2)
H14 H 0.0054 0.5392 0.8402
H15 H -0.0169 0.3840 0.8524
C23 C 0.1203(4) 0.5485(4) 0.9508(2)
H16 H 0.0876 0.6352 0.9281
H17 H 0.2170 0.5383 0.9303
C24 C -0.1102(4) 0.4565(4) 0.9709(2)
H18 H -0.1471 0.5416 0.9485
H19 H -0.1661 0.3854 0.9637
C25 C 0.9864(4) 0.2854(4) 0.7192(2)
H20 H 0.9495 0.2343 0.7632
C26 C 1.1224(4) 0.2594(4) 0.6895(2)
H21 H 1.1745 0.1925 0.7139
C27 C 1.1801(4) 0.3324(4) 0.6241(2)
C28 C 1.0982(4) 0.4319(4) 0.5903(2)
H22 H 1.1329 0.4843 0.5463
C29 C 0.9627(4) 0.4517(4) 0.6237(2)
H23 H 0.9082 0.5178 0.6005
C30 C 1.3264(4) 0.3004(4) 0.5895(2)
H24 H 1.3856 0.2779 0.6257
H25 H 1.3226 0.2226 0.5685
C31 C 1.4332(4) 0.5176(4) 0.5674(2)
H26 H 1.5031 0.4817 0.5964
H27 H 1.3547 0.5485 0.5978
C32 C 1.5070(4) 0.3666(4) 0.4892(2)
H28 H 1.4778 0.2974 0.4674
H29 H 1.5778 0.3287 0.5173
O8 O 0.7248(3) 0.4152(3) 0.82135(16)
O9 O 1.1158(3) 1.1754(3) -0.00021(17)
O10 O 0.8444(3) 1.1271(3) -0.03938(17)
H30 H 0.7314 0.4984 0.8038
H31 H 0.6646 0.4001 0.8594
H32 H 0.811(5) 1.111(6) -0.074(2)
H33 H 0.785(5) 1.125(6) -0.0015(19)
H34 H 1.079(6) 1.250(4) -0.019(3)
H35 H 1.140(5) 1.193(5) 0.0364(18)
Co1A Co 1.31389(6) 1.60439(5) -0.72257(3)
Co1_2 Co 0.68611(6) 1.39561(5) 0.72257(3)
Co1A_2 Co -0.68611(6) 0.60439(5) 1.27743(3)
Co1A_3 Co 2.31389(6) 0.60439(5) 0.27743(3)
Co1A_4 Co 1.31389(6) 0.60439(5) -0.72257(3)
O1A O 1.3022(3) 1.4059(3) -0.67626(15)
O2A O 1.2313(3) 1.3255(3) -0.76271(16)
O3A O 1.3218(3) 0.8228(3) -0.74247(14)
O3_2 O 0.6782(3) 0.1772(3) 0.74247(14)
O3A_2 O 1.3218(3) 1.8228(3) -0.74247(14)
O4A O 1.3206(3) 0.7004(3) -0.63532(14)
O4_2 O 0.6794(3) 0.2996(3) 0.63532(14)
O4A_2 O 1.3206(3) 1.7004(3) -0.63532(14)
O5A O 1.0847(3) 0.9945(3) -0.10389(15)
O6A O 1.2860(3) 0.8828(4) -0.09466(17)
O7A O 1.2251(3) 1.0244(3) -0.46749(15)
N1A N -0.4647(3) 0.5907(3) 1.24289(18)
N1A_2 N 1.5353(3) 1.5907(3) -0.75711(18)
N2A N -0.0362(3) 0.5589(3) 1.06265(17)
N3A N 2.0933(4) 0.6191(3) 0.31283(19)
N3A_2 N 1.0933(4) 1.6191(3) -0.68717(19)
N4A N 1.6130(3) 0.5886(3) 0.46458(19)
C1A C 1.2652(4) 1.3119(4) -0.7025(2)
C2A C 1.2639(4) 1.1742(4) -0.6559(2)
C3A C 1.2832(4) 1.0620(4) -0.6873(2)
H1A H 1.2943 1.0718 -0.7364
C4A C 1.2853(4) 0.9359(4) -0.6439(2)
C5A C 1.3112(4) 0.8130(4) -0.6759(2)
C6A C 1.2644(4) 0.9188(4) -0.5711(2)
H2A H 1.2638 0.8330 -0.5430
C7A C 1.2442(4) 1.0307(4) -0.5394(2)
C8A C 1.2462(4) 1.1581(4) -0.5830(2)
H3A H 1.2355 1.2334 -0.5626
C9A C 1.2315(5) 0.8921(4) -0.4239(2)
H4A H 1.1552 0.8381 -0.4287
H5A H 1.3185 0.8484 -0.4389
C10A C 1.2218(4) 0.9051(4) -0.3477(2)
C11A C 1.3415(4) 0.9120(4) -0.3183(2)
H6A H 1.4284 0.9116 -0.3465
C12A C 1.3331(4) 0.9194(4) -0.2477(2)
H7A H 1.4139 0.9219 -0.2284
C13A C 1.2027(4) 0.9232(4) -0.2055(2)
C14A C 1.0825(4) 0.9173(4) -0.2344(2)
H8A H 0.9954 0.9202 -0.2067
C15A C 1.0929(4) 0.9072(4) -0.3049(2)
H9A H 1.0122 0.9018 -0.3238
C16A C 1.1916(4) 0.9327(4) -0.1284(2)
C17A C -0.3913(4) 0.6958(4) 1.2041(2)
H10A H -0.4341 0.7797 1.1992
C18A C -0.2551(4) 0.6874(4) 1.1705(2)
H11A H -0.2090 0.7641 1.1437
C19A C -0.1875(4) 0.5635(4) 1.1771(2)
C20A C -0.2622(4) 0.4551(4) 1.2195(2)
H12A H -0.2207 0.3706 1.2269
C21A C -0.3976(4) 0.4717(4) 1.2507(2)
H13A H -0.4452 0.3968 1.2786
C22A C -0.0419(4) 0.5477(4) 1.1397(2)
H14A H -0.0054 0.4608 1.1598
H15A H 0.0169 0.6160 1.1476
C23A C -0.1203(4) 0.4515(4) 1.0492(2)
H16A H -0.0876 0.3648 1.0719
H17A H -0.2170 0.4617 1.0697
C24A C 0.1102(4) 0.5435(4) 1.0291(2)
H18A H 0.1471 0.4584 1.0515
H19A H 0.1661 0.6146 1.0363
C25A C 2.0136(4) 0.7146(4) 0.2808(2)
H20A H 2.0505 0.7657 0.2368
C26A C 1.8776(4) 0.7406(4) 0.3105(2)
H21A H 1.8255 0.8075 0.2861
C27A C 1.8199(4) 0.6676(4) 0.3759(2)
C28A C 1.9018(4) 0.5681(4) 0.4097(2)
H22A H 1.8671 0.5157 0.4537
C29A C 2.0373(4) 0.5483(4) 0.3763(2)
H23A H 2.0918 0.4822 0.3995
C30A C 1.6736(4) 0.6996(4) 0.4105(2)
H24A H 1.6144 0.7221 0.3743
H25A H 1.6774 0.7774 0.4315
C31A C 1.5668(4) 0.4824(4) 0.4326(2)
H26A H 1.4969 0.5183 0.4036
H27A H 1.6453 0.4515 0.4022
C32A C 1.4930(4) 0.6334(4) 0.5108(2)
H28A H 1.5222 0.7026 0.5326
H29A H 1.4222 0.6713 0.4827
O8A O 1.2752(3) 1.5848(3) -0.82135(16)
O9A O 0.8842(3) 0.8246(3) 0.00021(17)
O10A O 1.1556(3) 0.8729(3) 0.03938(17)
H30A H 1.2686 1.5016 -0.8038
H31A H 1.3354 1.5999 -0.8594
H32A H 1.189(5) 0.889(6) 0.074(2)
H33A H 1.215(5) 0.875(6) 0.0015(19)
H34A H 0.921(6) 0.750(4) 0.019(3)
H35A H 0.860(5) 0.807(5) -0.0364(18)
O11 O 0.7402(3) 0.7774(3) 0.88516(17)
O12 O 0.6807(4) 1.0441(3) 0.87750(17)
O13 O 0.5290(3) 1.3294(3) 0.07553(17)
O14 O 0.5041(3) 0.3901(4) 0.93201(18)
O15 O 0.4283(4) 0.1248(4) 0.9540(2)
loop_
_geom_bond_atom_site_label_1
_geom_bond_atom_site_label_2
_geom_bond_site_symmetry_1
_geom_bond_site_symmetry_2
Co1 O1 1_555 1_555
Co2 O5 1_555 1_555
O1 C1 1_555 1_555
O2 C1 1_555 1_555
O3 C5 1_555 1_555
O4 C5 1_555 1_555
O5 C16 1_555 1_555
O6 C16 1_555 1_555
O7 C7 1_555 1_555
N1 Co1 1_555 1_555
N2 C22 1_555 1_555
N3 Co1 1_555 1_555
N4 C30 1_555 1_555
C1 C2 1_555 1_555
C2 C3 1_555 1_555
C3 H1 1_555 1_555
C4 C3 1_555 1_555
C5 C4 1_555 1_555
C6 C4 1_555 1_555
H2 C6 1_555 1_555
C7 C6 1_555 1_555
C8 C2 1_555 1_555
H3 C8 1_555 1_555
C9 O7 1_555 1_555
H4 C9 1_555 1_555
H5 C9 1_555 1_555
C10 C9 1_555 1_555
C11 C10 1_555 1_555
H6 C11 1_555 1_555
C12 C11 1_555 1_555
H7 C12 1_555 1_555
C13 C12 1_555 1_555
C14 C13 1_555 1_555
H8 C14 1_555 1_555
C15 C10 1_555 1_555
H9 C15 1_555 1_555
C16 C13 1_555 1_555
C17 N1 1_555 1_555
H10 C17 1_555 1_555
C18 C17 1_555 1_555
H11 C18 1_555 1_555
C19 C18 1_555 1_555
C20 C19 1_555 1_555
H12 C20 1_555 1_555
C21 N1 1_555 1_555
H13 C21 1_555 1_555
C22 C19 1_555 1_555
H14 C22 1_555 1_555
H15 C22 1_555 1_555
C23 N2 1_555 1_555
H16 C23 1_555 1_555
H17 C23 1_555 1_555
C24 N2 1_555 1_555
H18 C24 1_555 1_555
H19 C24 1_555 1_555
C25 N3 1_555 1_555
H20 C25 1_555 1_555
C26 C25 1_555 1_555
H21 C26 1_555 1_555
C27 C26 1_555 1_555
C28 C27 1_555 1_555
H22 C28 1_555 1_555
C29 N3 1_555 1_555
H23 C29 1_555 1_555
C30 C27 1_555 1_555
H24 C30 1_555 1_555
H25 C30 1_555 1_555
C31 N4 1_555 1_555
H26 C31 1_555 1_555
H27 C31 1_555 1_555
C32 N4 1_555 1_555
H28 C32 1_555 1_555
H29 C32 1_555 1_555
O8 Co1 1_555 1_555
O9 Co2 1_555 1_555
O10 Co2 1_555 1_555
H30 O8 1_555 1_555
H31 O8 1_555 1_555
H32 O10 1_555 1_555
H33 O10 1_555 1_555
H34 O9 1_555 1_555
H35 O9 1_555 1_555
Co1A O1A 1_555 1_555
Co1_2 O3 1_555 1_555
Co1A_2 N1A 1_555 1_555
Co1A_3 N3A 1_555 1_555
Co1A_4 O3A 1_555 1_555
O1A C1A 1_555 1_555
O2A C1A 1_555 1_555
O3A C5A 1_555 1_555
O3_2 Co1 1_555 1_555
O3A_2 Co1A 1_555 1_555
O4A Co1A_4 1_555 1_555
O4_2 Co1 1_555 1_555
O4A_2 Co1A 1_555 1_555
O5A Co2 1_555 1_555
O6A C16A 1_555 1_555
O7A C7A 1_555 1_555
N1A C17A 1_555 1_555
N1A_2 Co1A 1_555 1_555
N2A C22A 1_555 1_555
N3A C25A 1_555 1_555
N3A_2 Co1A 1_555 1_555
N4A C30A 1_555 1_555
C1A C2A 1_555 1_555
C2A C3A 1_555 1_555
C3A H1A 1_555 1_555
C4A C3A 1_555 1_555
C5A O4A 1_555 1_555
C6A C4A 1_555 1_555
H2A C6A 1_555 1_555
C7A C6A 1_555 1_555
C8A C2A 1_555 1_555
H3A C8A 1_555 1_555
C9A O7A 1_555 1_555
H4A C9A 1_555 1_555
H5A C9A 1_555 1_555
C10A C9A 1_555 1_555
C11A C10A 1_555 1_555
H6A C11A 1_555 1_555
C12A C11A 1_555 1_555
H7A C12A 1_555 1_555
C13A C12A 1_555 1_555
C14A C13A 1_555 1_555
H8A C14A 1_555 1_555
C15A C10A 1_555 1_555
H9A C15A 1_555 1_555
C16A O5A 1_555 1_555
C17A H10A 1_555 1_555
C18A C17A 1_555 1_555
H11A C18A 1_555 1_555
C19A C18A 1_555 1_555
C20A C19A 1_555 1_555
H12A C20A 1_555 1_555
C21A N1A 1_555 1_555
H13A C21A 1_555 1_555
C22A C19A 1_555 1_555
H14A C22A 1_555 1_555
H15A C22A 1_555 1_555
C23A C24 1_555 1_555
H16A C23A 1_555 1_555
H17A C23A 1_555 1_555
C24A C23 1_555 1_555
H18A C24A 1_555 1_555
H19A C24A 1_555 1_555
C25A H20A 1_555 1_555
C26A C25A 1_555 1_555
H21A C26A 1_555 1_555
C27A C26A 1_555 1_555
C28A C27A 1_555 1_555
H22A C28A 1_555 1_555
C29A N3A 1_555 1_555
H23A C29A 1_555 1_555
C30A C27A 1_555 1_555
H24A C30A 1_555 1_555
H25A C30A 1_555 1_555
C31A C32 1_555 1_555
H26A C31A 1_555 1_555
H27A C31A 1_555 1_555
C32A C31 1_555 1_555
H28A C32A 1_555 1_555
H29A C32A 1_555 1_555
O8A Co1A 1_555 1_555
O9A Co2 1_555 1_555
O10A Co2 1_555 1_555
H30A O8A 1_555 1_555
H31A O8A 1_555 1_555
H32A O10A 1_555 1_555
H33A O10A 1_555 1_555
H34A O9A 1_555 1_555
H35A O9A 1_555 1_555
O4 Co1_2 1_555 1_555
C7 C8 1_555 1_555
C14 C15 1_555 1_555
C20 C21 1_555 1_555
C28 C29 1_555 1_555
N2A C23A 1_555 1_555
N2A C24A 1_555 1_555
N4A C31A 1_555 1_555
N4A C32A 1_555 1_555
C4A C5A 1_555 1_555
C7A C8A 1_555 1_555
C13A C16A 1_555 1_555
C14A C15A 1_555 1_555
C20A C21A 1_555 1_555
C28A C29A 1_555 1_555

#END
