
#######################################################################
#
#                 Cambridge Crystallographic Data Centre
#                                CCDC 
#
#######################################################################
#
# If this CIF has been generated from an entry in the Cambridge 
# Structural Database, then it will include bibliographic, chemical, 
# crystal, experimental, refinement or atomic coordinate data resulting 
# from the CCDC's data processing and validation procedures.
#
#######################################################################

data_HEBTEP
_symmetry_cell_setting           monoclinic
_symmetry_space_group_name_H-M   'P 21/c'
_symmetry_Int_Tables_number      14
_space_group_name_Hall           '-P 2ybc'
loop_
_symmetry_equiv_pos_site_id
_symmetry_equiv_pos_as_xyz
1 x,y,z
2 -x,1/2+y,1/2-z
3 -x,-y,-z
4 x,1/2-y,1/2+z
_cell_length_a                   7.336(3)
_cell_length_b                   11.316(4)
_cell_length_c                   17.653(7)
_cell_angle_alpha                90
_cell_angle_beta                 90.594(7)
_cell_angle_gamma                90
_cell_volume                     1465.37
loop_
_atom_site_label
_atom_site_type_symbol
_atom_site_fract_x
_atom_site_fract_y
_atom_site_fract_z
Zn1 Zn 0.5000 0.5000 0.0000
Zn2 Zn 0.0000 0.5000 0.0000
N1 N 0.3918(3) 0.78638(17) 0.04021(14)
H1 H 0.4838 0.7750 0.0113
N2 N 0.1365(3) 0.75334(19) 0.09528(15)
H2 H 0.0366 0.7182 0.1067
O1 O -0.13195(18) 0.58222(12) 0.09154(8)
O2 O -0.42596(18) 0.53657(14) 0.10802(8)
O3 O -0.37568(18) 0.84611(12) 0.45297(8)
O4 O 0.25293(16) 0.60624(12) 0.02080(8)
O5 O -0.08289(18) 0.87932(12) 0.42565(8)
C1 C -0.2635(3) 0.62251(16) 0.21054(10)
C2 C -0.0922(2) 0.67439(16) 0.32659(10)
C3 C -0.1018(2) 0.61149(17) 0.25676(11)
C4 C -0.4005(3) 0.74641(19) 0.30606(12)
C5 C -0.2336(2) 0.82936(16) 0.41552(10)
C6 C -0.2737(2) 0.57475(16) 0.13072(11)
C7 C -0.2439(2) 0.74567(16) 0.34887(11)
C8 C 0.0672(3) 0.6605(2) 0.37261(13)
C9 C -0.4097(3) 0.68446(19) 0.23703(11)
C10 C 0.0453(3) 0.5362(2) 0.23674(12)
C11 C 0.2603(3) 0.70754(17) 0.05030(12)
C12 C 0.2057(3) 0.5891(2) 0.35069(14)
C13 C 0.1950(3) 0.5257(2) 0.28261(14)
C14 C 0.1864(4) 0.8685(2) 0.1233(2)
H3 H 0.2042 0.8675 0.1779
H4 H 0.0946 0.9269 0.1103
C15 C 0.3636(4) 0.8928(2) 0.08293(19)
H5 H 0.3526 0.9609 0.0498
H6 H 0.4626 0.9060 0.1188
H7 H -0.518(3) 0.688(2) 0.2062(14)
H8 H -0.503(3) 0.797(2) 0.3223(13)
H9 H 0.038(3) 0.4897(19) 0.1911(16)
H10 H 0.288(4) 0.475(2) 0.2682(16)
H11 H 0.316(3) 0.5892(18) 0.3805(13)
H12 H 0.072(3) 0.702(2) 0.4180(14)
Zn1_2 Zn -0.5000 0.5000 0.0000
Zn1A Zn -0.5000 1.0000 0.5000
Zn1A_2 Zn 0.5000 0.0000 -0.5000
Zn2A Zn 0.0000 0.0000 -0.5000
Zn2A_2 Zn 0.0000 1.0000 0.5000
N1B N -0.3918(3) 0.21362(17) -0.04021(14)
H1B H -0.4838 0.2250 -0.0113
N2B N -0.1365(3) 0.24666(19) -0.09528(15)
H2B H -0.0366 0.2818 -0.1067
O1B O 0.13195(18) 0.41778(12) -0.09154(8)
O2B O 0.42596(18) 0.46343(14) -0.10802(8)
O2_2 O 0.57404(18) 0.53657(14) 0.10802(8)
O3B O 0.37568(18) 0.15389(12) -0.45297(8)
O3A O 0.37568(18) 0.34611(12) 0.04703(8)
O3C O 0.62432(18) 0.65389(12) -0.04703(8)
O4B O -0.25293(16) 0.39376(12) -0.02080(8)
O4B_2 O 0.74707(16) 0.39376(12) -0.02080(8)
O5B O 0.08289(18) 0.12068(12) -0.42565(8)
O5A O 0.08289(18) 0.37932(12) 0.07435(8)
O5C O -0.08289(18) 0.62068(12) -0.07435(8)
C1B C 0.2635(3) 0.37749(16) -0.21054(10)
C2B C 0.0922(2) 0.32561(16) -0.32659(10)
C3B C 0.1018(2) 0.38851(17) -0.25676(11)
C4B C 0.4005(3) 0.25359(19) -0.30606(12)
C5B C 0.2336(2) 0.17064(16) -0.41552(10)
C6B C 0.2737(2) 0.42525(16) -0.13072(11)
C7B C 0.2439(2) 0.25433(16) -0.34887(11)
C8B C -0.0672(3) 0.3395(2) -0.37261(13)
C9B C 0.4097(3) 0.31554(19) -0.23703(11)
C10B C -0.0453(3) 0.4638(2) -0.23674(12)
C11B C -0.2603(3) 0.29246(17) -0.05030(12)
C12B C -0.2057(3) 0.4109(2) -0.35069(14)
C13B C -0.1950(3) 0.4743(2) -0.28261(14)
C14B C -0.1864(4) 0.1315(2) -0.1233(2)
H3B H -0.2042 0.1325 -0.1779
H4B H -0.0946 0.0731 -0.1103
C15B C -0.3636(4) 0.1072(2) -0.08293(19)
H5B H -0.3526 0.0391 -0.0498
H6B H -0.4626 0.0940 -0.1188
H7B H 0.518(3) 0.312(2) -0.2062(14)
H8B H 0.503(3) 0.203(2) -0.3223(13)
H9B H -0.038(3) 0.5103(19) -0.1911(16)
H10B H -0.288(4) 0.525(2) -0.2682(16)
H11B H -0.316(3) 0.4108(18) -0.3805(13)
H12B H -0.072(3) 0.298(2) -0.4180(14)
loop_
_geom_bond_atom_site_label_1
_geom_bond_atom_site_label_2
_geom_bond_site_symmetry_1
_geom_bond_site_symmetry_2
Zn1 O4 1_555 1_555
Zn2 O1 1_555 1_555
N1 H1 1_555 1_555
N2 H2 1_555 1_555
O1 C6 1_555 1_555
O2 C6 1_555 1_555
O3 C5 1_555 1_555
O4 Zn2 1_555 1_555
O5 C5 1_555 1_555
C1 C3 1_555 1_555
C2 C3 1_555 1_555
C3 C10 1_555 1_555
C4 C7 1_555 1_555
C5 C7 1_555 1_555
C6 C1 1_555 1_555
C7 C2 1_555 1_555
C8 C2 1_555 1_555
C9 C1 1_555 1_555
C10 C13 1_555 1_555
C11 N1 1_555 1_555
C12 C8 1_555 1_555
C13 C12 1_555 1_555
C14 N2 1_555 1_555
H3 C14 1_555 1_555
H4 C14 1_555 1_555
C15 N1 1_555 1_555
H5 C15 1_555 1_555
H6 C15 1_555 1_555
H7 C9 1_555 1_555
H8 C4 1_555 1_555
H9 C10 1_555 1_555
H10 C13 1_555 1_555
H11 C12 1_555 1_555
H12 C8 1_555 1_555
Zn1_2 O2 1_555 1_555
Zn1A O3 1_555 1_555
Zn1A_2 O3B 1_555 1_555
Zn2A O5B 1_555 1_555
Zn2A_2 O5 1_555 1_555
N1B H1B 1_555 1_555
N2B H2B 1_555 1_555
O1B Zn2 1_555 1_555
O2B Zn1 1_555 1_555
O2_2 Zn1 1_555 1_555
O3B C5B 1_555 1_555
O3A Zn1 1_555 1_555
O3C Zn1 1_555 1_555
O4B Zn2 1_555 1_555
O4B_2 Zn1 1_555 1_555
O5B C5B 1_555 1_555
O5A Zn2 1_555 1_555
O5C Zn2 1_555 1_555
C1B C3B 1_555 1_555
C2B C3B 1_555 1_555
C3B C10B 1_555 1_555
C4B C7B 1_555 1_555
C5B C7B 1_555 1_555
C6B O1B 1_555 1_555
C7B C2B 1_555 1_555
C8B C2B 1_555 1_555
C9B C1B 1_555 1_555
C10B C13B 1_555 1_555
C11B N1B 1_555 1_555
C12B C8B 1_555 1_555
C13B C12B 1_555 1_555
C14B N2B 1_555 1_555
H3B C14B 1_555 1_555
H4B C14B 1_555 1_555
C15B N1B 1_555 1_555
H5B C15B 1_555 1_555
H6B C15B 1_555 1_555
H7B C9B 1_555 1_555
H8B C4B 1_555 1_555
H9B C10B 1_555 1_555
H10B C13B 1_555 1_555
H11B C12B 1_555 1_555
H12B C8B 1_555 1_555
N2 C11 1_555 1_555
O4 C11 1_555 1_555
C4 C9 1_555 1_555
C14 C15 1_555 1_555
Zn1_2 O4B 1_555 1_555
N2B C11B 1_555 1_555
O2B C6B 1_555 1_555
O4B C11B 1_555 1_555
C1B C6B 1_555 1_555
C4B C9B 1_555 1_555
C14B C15B 1_555 1_555

#END
