
#######################################################################
#
#                 Cambridge Crystallographic Data Centre
#                                CCDC 
#
#######################################################################
#
# If this CIF has been generated from an entry in the Cambridge 
# Structural Database, then it will include bibliographic, chemical, 
# crystal, experimental, refinement or atomic coordinate data resulting 
# from the CCDC's data processing and validation procedures.
#
#######################################################################

data_HEBTIT
_symmetry_cell_setting           monoclinic
_symmetry_space_group_name_H-M   'P 21/c'
_symmetry_Int_Tables_number      14
_space_group_name_Hall           '-P 2ybc'
loop_
_symmetry_equiv_pos_site_id
_symmetry_equiv_pos_as_xyz
1 x,y,z
2 -x,1/2+y,1/2-z
3 -x,-y,-z
4 x,1/2-y,1/2+z
_cell_length_a                   7.528(7)
_cell_length_b                   11.415(10)
_cell_length_c                   18.415(17)
_cell_angle_alpha                90
_cell_angle_beta                 89.900(12)
_cell_angle_gamma                90
_cell_volume                     1582.44
loop_
_atom_site_label
_atom_site_type_symbol
_atom_site_fract_x
_atom_site_fract_y
_atom_site_fract_z
Cd1 Cd 0.5000 0.5000 0.0000
Cd2 Cd 0.0000 0.5000 0.0000
O1 O 0.2506(6) 0.3814(4) 0.0203(3)
C1 C 0.5995(9) 0.3267(6) 0.3225(4)
C2 C 0.7665(9) 0.3773(6) 0.2121(4)
O2 O 0.8769(7) 0.1702(5) 0.4513(3)
C3 C 0.6076(9) 0.3871(6) 0.2551(4)
O3 O 0.5982(7) 0.1240(5) 0.4197(3)
O4 O 0.6433(7) 0.4082(5) 0.0946(3)
C4 C 0.7493(8) 0.2588(6) 0.3463(3)
C5 C 0.7412(9) 0.1790(6) 0.4121(3)
C6 C 0.9034(10) 0.2594(8) 0.3062(4)
H1 H 1.0038 0.2209 0.3234
C7 C 0.4645(11) 0.4615(8) 0.2333(5)
H2 H 0.4725 0.5044 0.1905
C8 C 0.7781(10) 0.4221(6) 0.1344(4)
O5 O 0.9252(8) 0.4661(6) 0.1152(3)
C9 C 0.9093(10) 0.3178(7) 0.2396(4)
H3 H 1.0142 0.3163 0.2129
C10 C 0.3033(13) 0.4079(9) 0.3416(5)
H4 H 0.2001 0.4131 0.3692
C11 C 0.2427(9) 0.2822(7) 0.0522(4)
C12 C 0.4391(10) 0.3411(7) 0.3653(4)
H5 H 0.4296 0.3035 0.4099
N1 N 0.3670(13) 0.2381(8) 0.0942(6)
H6 H 0.4703 0.2691 0.0997
C13 C 0.3151(12) 0.4696(9) 0.2759(5)
H7 H 0.2208 0.5164 0.2611
C14 C 0.1369(19) 0.1030(10) 0.0901(9)
H8 H 0.1491 0.0333 0.0604
H9 H 0.0390 0.0925 0.1238
N2 N 0.1128(12) 0.2071(7) 0.0456(7)
H10 H 0.0225 0.2181 0.0180
C15 C 0.3111(19) 0.1318(12) 0.1303(11)
H11 H 0.2903 0.1449 0.1817
H12 H 0.3980 0.0698 0.1244
Cd1A Cd 0.5000 0.0000 0.5000
Cd1A_2 Cd 0.5000 1.0000 -0.5000
Cd2A Cd 1.0000 0.0000 0.5000
Cd2_2 Cd 1.0000 0.5000 0.0000
Cd2A_2 Cd 0.0000 1.0000 -0.5000
O1B O 0.7494(6) 0.6186(4) -0.0203(3)
O1B_2 O -0.2506(6) 0.6186(4) -0.0203(3)
C1B C 0.4005(9) 0.6733(6) -0.3225(4)
C2B C 0.2335(9) 0.6227(6) -0.2121(4)
O2B O 0.1231(7) 0.8298(5) -0.4513(3)
O2A O 0.1231(7) 0.6702(5) 0.0487(3)
O2C O -0.1231(7) 0.3298(5) -0.0487(3)
C3B C 0.3924(9) 0.6129(6) -0.2551(4)
O3B O 0.4018(7) 0.8760(5) -0.4197(3)
O3A O 0.4018(7) 0.6240(5) 0.0803(3)
O3C O 0.5982(7) 0.3760(5) -0.0803(3)
O4B O 0.3567(7) 0.5918(5) -0.0946(3)
C4B C 0.2507(8) 0.7412(6) -0.3463(3)
C5B C 0.2588(9) 0.8210(6) -0.4121(3)
C6B C 0.0966(10) 0.7406(8) -0.3062(4)
H1B H -0.0038 0.7791 -0.3234
C7B C 0.5355(11) 0.5385(8) -0.2333(5)
H2B H 0.5275 0.4956 -0.1905
C8B C 0.2219(10) 0.5779(6) -0.1344(4)
O5B O 0.0748(8) 0.5339(6) -0.1152(3)
O5_2 O -0.0748(8) 0.4661(6) 0.1152(3)
C9B C 0.0907(10) 0.6822(7) -0.2396(4)
H3B H -0.0142 0.6837 -0.2129
C10B C 0.6967(13) 0.5921(9) -0.3416(5)
H4B H 0.7999 0.5869 -0.3692
C11B C 0.7573(9) 0.7178(7) -0.0522(4)
C12B C 0.5609(10) 0.6589(7) -0.3653(4)
H5B H 0.5704 0.6965 -0.4099
N1B N 0.6330(13) 0.7619(8) -0.0942(6)
H6B H 0.5297 0.7309 -0.0997
C13B C 0.6849(12) 0.5304(9) -0.2759(5)
H7B H 0.7792 0.4836 -0.2611
C14B C 0.8631(19) 0.8970(10) -0.0901(9)
H8B H 0.8509 0.9667 -0.0604
H9B H 0.9610 0.9075 -0.1238
N2B N 0.8872(12) 0.7929(7) -0.0456(7)
H10B H 0.9775 0.7819 -0.0180
C15B C 0.6889(19) 0.8682(12) -0.1303(11)
H11B H 0.7097 0.8551 -0.1817
H12B H 0.6020 0.9302 -0.1244
loop_
_geom_bond_atom_site_label_1
_geom_bond_atom_site_label_2
_geom_bond_site_symmetry_1
_geom_bond_site_symmetry_2
Cd1 O1 1_555 1_555
Cd2 O1 1_555 1_555
O1 C11 1_555 1_555
C1 C3 1_555 1_555
C2 C3 1_555 1_555
O2 C5 1_555 1_555
C3 C7 1_555 1_555
O3 C5 1_555 1_555
O4 Cd1 1_555 1_555
C4 C1 1_555 1_555
C5 C4 1_555 1_555
C6 C4 1_555 1_555
H1 C6 1_555 1_555
C7 H2 1_555 1_555
C8 C2 1_555 1_555
O5 C8 1_555 1_555
C9 C2 1_555 1_555
H3 C9 1_555 1_555
C10 H4 1_555 1_555
C11 N1 1_555 1_555
C12 C1 1_555 1_555
H5 C12 1_555 1_555
N1 H6 1_555 1_555
C13 C7 1_555 1_555
H7 C13 1_555 1_555
C14 H8 1_555 1_555
H9 C14 1_555 1_555
N2 C11 1_555 1_555
H10 N2 1_555 1_555
C15 N1 1_555 1_555
H11 C15 1_555 1_555
H12 C15 1_555 1_555
Cd1A O3 1_555 1_555
Cd1A_2 O3B 1_555 1_555
Cd2A O2 1_555 1_555
Cd2_2 O5 1_555 1_555
Cd2A_2 O2B 1_555 1_555
O1B Cd1 1_555 1_555
O1B_2 Cd2 1_555 1_555
C1B C3B 1_555 1_555
C2B C3B 1_555 1_555
O2B C5B 1_555 1_555
O2A Cd2 1_555 1_555
O2C Cd2 1_555 1_555
C3B C7B 1_555 1_555
O3B C5B 1_555 1_555
O3A Cd1 1_555 1_555
O3C Cd1 1_555 1_555
O4B Cd1 1_555 1_555
C4B C1B 1_555 1_555
C5B C4B 1_555 1_555
C6B C4B 1_555 1_555
H1B C6B 1_555 1_555
C7B H2B 1_555 1_555
C8B C2B 1_555 1_555
O5B Cd2 1_555 1_555
O5_2 Cd2 1_555 1_555
C9B C2B 1_555 1_555
H3B C9B 1_555 1_555
C10B H4B 1_555 1_555
C11B O1B 1_555 1_555
C12B C1B 1_555 1_555
H5B C12B 1_555 1_555
N1B C11B 1_555 1_555
H6B N1B 1_555 1_555
C13B C7B 1_555 1_555
H7B C13B 1_555 1_555
C14B H8B 1_555 1_555
H9B C14B 1_555 1_555
N2B C11B 1_555 1_555
H10B N2B 1_555 1_555
C15B N1B 1_555 1_555
H11B C15B 1_555 1_555
H12B C15B 1_555 1_555
O4 C8 1_555 1_555
C6 C9 1_555 1_555
C10 C12 1_555 1_555
C10 C13 1_555 1_555
C14 N2 1_555 1_555
C14 C15 1_555 1_555
Cd2_2 O1B 1_555 1_555
O4B C8B 1_555 1_555
C6B C9B 1_555 1_555
C8B O5B 1_555 1_555
C10B C12B 1_555 1_555
C10B C13B 1_555 1_555
C14B N2B 1_555 1_555
C14B C15B 1_555 1_555

#END
