
#######################################################################
#
#                 Cambridge Crystallographic Data Centre
#                                CCDC 
#
#######################################################################
#
# If this CIF has been generated from an entry in the Cambridge 
# Structural Database, then it will include bibliographic, chemical, 
# crystal, experimental, refinement or atomic coordinate data resulting 
# from the CCDC's data processing and validation procedures.
#
#######################################################################

data_HEBZAR
_symmetry_cell_setting           rhombohedral
_symmetry_space_group_name_H-M   'R -3'
_symmetry_Int_Tables_number      148
_space_group_name_Hall           '-R 3'
loop_
_symmetry_equiv_pos_site_id
_symmetry_equiv_pos_as_xyz
1 x,y,z
2 -y,x-y,z
3 -x+y,-x,z
4 2/3+x,1/3+y,1/3+z
5 2/3-y,1/3+x-y,1/3+z
6 2/3-x+y,1/3-x,1/3+z
7 1/3+x,2/3+y,2/3+z
8 1/3-y,2/3+x-y,2/3+z
9 1/3-x+y,2/3-x,2/3+z
10 -x,-y,-z
11 y,-x+y,-z
12 x-y,x,-z
13 1/3-x,2/3-y,2/3-z
14 1/3+y,2/3-x+y,2/3-z
15 1/3+x-y,2/3+x,2/3-z
16 2/3-x,1/3-y,1/3-z
17 2/3+y,1/3-x+y,1/3-z
18 2/3+x-y,1/3+x,1/3-z
_cell_length_a                   17.8954(14)
_cell_length_b                   17.8954(14)
_cell_length_c                   18.6250(16)
_cell_angle_alpha                90
_cell_angle_beta                 90
_cell_angle_gamma                120
_cell_volume                     5165.47
loop_
_atom_site_label
_atom_site_type_symbol
_atom_site_fract_x
_atom_site_fract_y
_atom_site_fract_z
C1 C 0.7159(4) 0.0731(4) 0.1232(2)
C2 C 0.6759(5) -0.0997(5) 0.2380(3)
C3 C 0.6942(4) -0.0440(4) 0.1738(3)
C4 C 0.7126(4) -0.0460(4) 0.1026(3)
C5 C 0.7155(4) -0.1126(4) 0.0561(3)
Br1 Br 0.72991(7) 0.18048(5) 0.11097(4)
N1 N 0.7252(3) 0.0276(3) 0.0702(2)
N2 N 0.6968(3) 0.0323(3) 0.1865(2)
N3 N 0.6771(5) -0.1710(4) 0.2321(3)
H1 H 0.695(5) -0.185(5) 0.183(5)
H2 H 0.674(6) -0.192(6) 0.266(5)
N4 N 0.7279(3) -0.0927(3) -0.0107(2)
H3 H 0.735(3) -0.131(3) -0.035(3)
O1 O 0.6607(3) -0.0728(3) 0.29604(17)
O2 O 0.7075(3) -0.1805(3) 0.08567(18)
Zn1 Zn 0.65796(4) 0.04455(5) 0.28961(3)
N1D N 0.6391(3) 0.0309(4) 0.4035(2)
N4D N 0.7594(3) 0.1539(4) 0.3226(2)
H3D H 0.798(3) 0.199(4) 0.298(3)
O2Q O 0.5547(4) 0.0408(3) 0.24766(18)
Zn1H Zn 0.71992(6) 0.00871(4) -0.04372(3)
Zn1P Zn 0.71122(5) -0.28008(6) 0.04372(3)
loop_
_geom_bond_atom_site_label_1
_geom_bond_atom_site_label_2
_geom_bond_site_symmetry_1
_geom_bond_site_symmetry_2
C1 Br1 1_555 1_555
C2 C3 1_555 1_555
C3 C4 1_555 1_555
C4 C5 1_555 1_555
C5 N4 1_555 1_555
N1 C1 1_555 1_555
N2 C1 1_555 1_555
N3 C2 1_555 1_555
H1 N3 1_555 1_555
H2 N3 1_555 1_555
N4 H3 1_555 1_555
O1 C2 1_555 1_555
O2 C5 1_555 1_555
Zn1 N2 1_555 1_555
N1D Zn1 1_555 1_555
N4D Zn1 1_555 1_555
H3D N4D 1_555 1_555
O2Q Zn1 1_555 1_555
Zn1H N1 1_555 1_555
Zn1P O2 1_555 1_555
C3 N2 1_555 1_555
C4 N1 1_555 1_555
N4 Zn1H 1_555 1_555
O1 Zn1 1_555 1_555

#END
