
#######################################################################
#
#                 Cambridge Crystallographic Data Centre
#                                CCDC 
#
#######################################################################
#
# If this CIF has been generated from an entry in the Cambridge 
# Structural Database, then it will include bibliographic, chemical, 
# crystal, experimental, refinement or atomic coordinate data resulting 
# from the CCDC's data processing and validation procedures.
#
#######################################################################

data_HEDBID
_symmetry_cell_setting           triclinic
_symmetry_space_group_name_H-M   'P -1'
_symmetry_Int_Tables_number      2
_space_group_name_Hall           '-P 1'
loop_
_symmetry_equiv_pos_site_id
_symmetry_equiv_pos_as_xyz
1 x,y,z
2 -x,-y,-z
_cell_length_a                   10.8981(13)
_cell_length_b                   11.5452(14)
_cell_length_c                   13.4086(16)
_cell_angle_alpha                69.399(3)
_cell_angle_beta                 79.959(3)
_cell_angle_gamma                62.242(2)
_cell_volume                     1397.36
loop_
_atom_site_label
_atom_site_type_symbol
_atom_site_fract_x
_atom_site_fract_y
_atom_site_fract_z
U1 U 1.00000 0.50000 0.50000
U2 U 0.630767(17) 0.704014(17) 0.832514(14)
Nd1 Nd 1.37968(3) 0.78368(3) 0.22409(2)
O1 O 1.0995(3) 0.6432(3) 0.3775(3)
O2 O 0.5053(3) 0.6930(3) 0.7125(3)
O3 O 0.6893(3) 0.7850(4) -0.0545(3)
O4 O 0.5728(3) 1.0902(3) 0.1723(3)
O5 O 1.2262(4) 0.5136(4) 0.2063(3)
O6 O 0.5490(4) 0.6209(4) 0.9381(3)
O7 O 0.9408(4) 0.4972(4) 0.3879(3)
O8 O 0.7145(4) 0.7859(4) 0.7274(3)
O9 O 0.7350(4) 0.6322(4) 0.5297(4)
O10 O 1.1463(4) 0.7915(4) 0.2388(3)
O11 O 0.8565(4) 0.7497(4) 0.4752(3)
O12 O 0.4830(4) 0.9402(4) 0.2213(4)
O13 O 1.1434(4) 0.4696(4) 0.0960(3)
O14 O 0.5252(4) 0.8209(5) 0.0682(3)
O15 O 1.3750(4) 0.5879(4) 0.3806(3)
O16 O 1.2931(5) 0.8628(4) 0.3821(3)
O17 O 1.2047(4) 1.0265(4) 0.1629(4)
O18 O 1.5020(5) 0.5657(4) 0.1737(4)
O19 O 1.6088(4) 0.6430(5) 0.3221(4)
O20 O 1.2856(5) 0.8275(6) 0.0444(4)
O21 O 0.4230(5) 0.7028(4) 0.5704(3)
C1 C 0.5809(5) 0.9710(5) 0.1896(4)
C2 C 1.0807(4) 0.7226(4) 0.2830(4)
C3 C 0.9668(4) 0.7420(4) 0.2193(4)
C4 C 0.7220(4) 0.8643(5) 0.1710(4)
C5 C 0.9915(4) 0.6622(5) 0.1541(4)
C6 C 0.7499(5) 0.7844(4) 0.1039(4)
C7 C 0.8323(5) 0.8454(5) 0.2254(4)
C8 C 0.7425(5) 0.7444(5) 0.5033(4)
C9 C 0.4745(5) 0.7474(5) 0.6141(4)
C10 C 1.1268(5) 0.5430(5) 0.1521(4)
C11 C 0.6451(5) 0.7992(5) 0.0367(4)
C12 C 0.3781(5) 1.0005(5) 0.5491(4)
C13 C 0.6154(5) 0.8754(5) 0.5024(4)
C14 C 0.4912(5) 0.8756(4) 0.5527(4)
C15 C 0.8840(5) 0.6877(5) 0.0951(4)
H1 H 0.815588 0.903813 0.267387
H2 H 0.292769 1.001024 0.583133
H3 H 0.903355 0.636525 0.046646
U1_2 U 0.00000 1.50000 0.50000
U2A U 0.369233(17) 1.295986(17) 0.167486(14)
U2_2 U 0.630767(17) 0.704014(17) -0.167486(14)
U2A_2 U 1.369233(17) 0.295986(17) 0.167486(14)
U2A_3 U 1.369233(17) 0.295986(17) 1.167486(14)
U2_3 U 1.630767(17) -0.295986(17) 0.832514(14)
Nd1A Nd 0.62032(3) 0.21632(3) 0.77591(2)
Nd1_2 Nd 0.37968(3) 0.78368(3) 0.22409(2)
Nd1A_2 Nd 1.62032(3) 0.21632(3) 0.77591(2)
O1A O 0.9005(3) 0.3568(3) 0.6225(3)
O2A O 0.4947(3) 1.3070(3) 0.2875(3)
O3A O 1.3107(3) 0.2150(4) 1.0545(3)
O3_2 O 0.6893(3) 0.7850(4) 0.9455(3)
O3A_2 O 0.3107(3) 1.2150(4) 0.0545(3)
O4A O 1.4272(3) -0.0902(3) 0.8277(3)
O4A_2 O 0.4272(3) 0.9098(3) 0.8277(3)
O5A O 0.7738(4) 0.4864(4) 0.7937(3)
O5_2 O 0.2262(4) 1.5136(4) 0.2063(3)
O6A O 0.4510(4) 1.3791(4) 0.0619(3)
O7A O 1.0592(4) 0.5028(4) 0.6121(3)
O8A O 0.2855(4) 1.2141(4) 0.2726(3)
O9A O 0.2650(4) 1.3678(4) 0.4703(4)
O9A_2 O 1.2650(4) 0.3678(4) 0.4703(4)
O10A O 0.8537(4) 0.2085(4) 0.7612(3)
O11A O 0.1435(4) 1.2503(4) 0.5248(3)
O11A_2 O 1.1435(4) 0.2503(4) 0.5248(3)
O12A O 1.5170(4) 0.0598(4) 0.7787(4)
O12_2 O 1.4830(4) 0.9402(4) 0.2213(4)
O12A_2 O 0.5170(4) 0.0598(4) 0.7787(4)
O13A O 0.8566(4) 0.5304(4) 0.9040(3)
O13_2 O 0.1434(4) 1.4696(4) 0.0960(3)
O14A O 1.4748(4) 0.1791(5) 0.9318(3)
O14_2 O 1.5252(4) 0.8209(5) 0.0682(3)
O14A_2 O 0.4748(4) 0.1791(5) 0.9318(3)
O15A O 0.6250(4) 0.4121(4) 0.6194(3)
O16A O 0.7069(5) 0.1372(4) 0.6179(3)
O17A O 0.7953(4) -0.0265(4) 0.8371(4)
O18A O 0.4980(5) 0.4343(4) 0.8263(4)
O19A O 0.3912(4) 0.3570(5) 0.6779(4)
O20A O 0.7144(5) 0.1725(6) 0.9556(4)
O21A O 0.5770(5) 1.2972(4) 0.4296(3)
C1A C 1.4191(5) 0.0290(5) 0.8104(4)
C2A C 0.9193(4) 0.2774(4) 0.7170(4)
C3A C 1.0332(4) 0.2580(4) 0.7807(4)
C4A C 1.2780(4) 0.1357(5) 0.8290(4)
C5A C 1.0085(4) 0.3378(5) 0.8459(4)
C6A C 1.2501(5) 0.2156(4) 0.8961(4)
C7A C 1.1677(5) 0.1546(5) 0.7746(4)
C8A C 0.2575(5) 1.2556(5) 0.4967(4)
C9A C 0.5255(5) 1.2526(5) 0.3859(4)
C10A C 0.8732(5) 0.4570(5) 0.8479(4)
C11A C 1.3549(5) 0.2008(5) 0.9633(4)
C12A C 0.6219(5) 0.9995(5) 0.4509(4)
C13A C 0.3846(5) 1.1246(5) 0.4976(4)
C14A C 0.5088(5) 1.1244(4) 0.4473(4)
C15A C 1.1160(5) 0.3123(5) 0.9049(4)
H1A H 1.184412 0.096187 0.732613
H2A H 0.707231 0.998976 0.416867
H3A H 1.096645 0.363475 0.953354
O22 O 0.2186(8) 0.6155(8) 0.6862(7)
O23 O 0.9345(12) 0.8612(12) 0.6040(9)
O24 O 0.0474(12) 0.9014(11) 0.9256(9)
O25 O 0.0602(16) 0.9876(16) 0.6459(13)
loop_
_geom_bond_atom_site_label_1
_geom_bond_atom_site_label_2
_geom_bond_site_symmetry_1
_geom_bond_site_symmetry_2
U1 O1 1_555 1_555
U2 O2 1_555 1_555
Nd1 O10 1_555 1_555
O1 C2 1_555 1_555
O2 C9 1_555 1_555
O3 C11 1_555 1_555
O4 C1 1_555 1_555
O5 C10 1_555 1_555
O6 U2 1_555 1_555
O7 U1 1_555 1_555
O8 U2 1_555 1_555
O9 U1 1_555 1_555
O10 C2 1_555 1_555
O11 U1 1_555 1_555
O12 C1 1_555 1_555
O13 C10 1_555 1_555
O14 C11 1_555 1_555
O15 Nd1 1_555 1_555
O16 Nd1 1_555 1_555
O17 Nd1 1_555 1_555
O18 Nd1 1_555 1_555
O19 Nd1 1_555 1_555
O20 Nd1 1_555 1_555
O21 C9 1_555 1_555
C1 C4 1_555 1_555
C2 C3 1_555 1_555
C3 C5 1_555 1_555
C4 C6 1_555 1_555
C5 C10 1_555 1_555
C6 C11 1_555 1_555
C7 C3 1_555 1_555
C8 O9 1_555 1_555
C9 C14 1_555 1_555
C12 C14 1_555 1_555
C13 C8 1_555 1_555
C14 C13 1_555 1_555
C15 C5 1_555 1_555
H1 C7 1_555 1_555
H2 C12 1_555 1_555
H3 C15 1_555 1_555
U1_2 O9A 1_555 1_555
U2A O4 1_555 1_555
U2_2 O3 1_555 1_555
U2A_2 O5 1_555 1_555
U2A_3 O3A 1_555 1_555
U2_3 O4A 1_555 1_555
Nd1A O10A 1_555 1_555
Nd1_2 O12 1_555 1_555
Nd1A_2 O12A 1_555 1_555
O1A U1 1_555 1_555
O2A U2A 1_555 1_555
O3A C11A 1_555 1_555
O3_2 U2 1_555 1_555
O3A_2 U2A 1_555 1_555
O4A C1A 1_555 1_555
O4A_2 U2 1_555 1_555
O5A U2 1_555 1_555
O5_2 U2A 1_555 1_555
O6A U2A 1_555 1_555
O7A U1 1_555 1_555
O8A U2A 1_555 1_555
O9A C8A 1_555 1_555
O9A_2 U1 1_555 1_555
O10A C2A 1_555 1_555
O11A U1_2 1_555 1_555
O11A_2 U1 1_555 1_555
O12A C1A 1_555 1_555
O12_2 Nd1 1_555 1_555
O12A_2 Nd1A 1_555 1_555
O13A U2 1_555 1_555
O13_2 U2A 1_555 1_555
O14A Nd1A_2 1_555 1_555
O14_2 Nd1 1_555 1_555
O14A_2 Nd1A 1_555 1_555
O15A Nd1A 1_555 1_555
O16A Nd1A 1_555 1_555
O17A Nd1A 1_555 1_555
O18A Nd1A 1_555 1_555
O19A Nd1A 1_555 1_555
O20A Nd1A 1_555 1_555
O21A C9A 1_555 1_555
C1A C4A 1_555 1_555
C2A O1A 1_555 1_555
C3A C2A 1_555 1_555
C4A C6A 1_555 1_555
C5A C3A 1_555 1_555
C6A C11A 1_555 1_555
C7A C3A 1_555 1_555
C8A O11A 1_555 1_555
C9A O2A 1_555 1_555
C10A O5A 1_555 1_555
C11A O14A 1_555 1_555
C12A C13 1_555 1_555
C13A C12 1_555 1_555
C14A C9A 1_555 1_555
C15A C5A 1_555 1_555
H1A C7A 1_555 1_555
H2A C12A 1_555 1_555
H3A C15A 1_555 1_555
O11 C8 1_555 1_555
O13 U2A_2 1_555 1_555
O14 Nd1_2 1_555 1_555
C4 C7 1_555 1_555
C6 C15 1_555 1_555
O13A C10A 1_555 1_555
C4A C7A 1_555 1_555
C5A C10A 1_555 1_555
C6A C15A 1_555 1_555
C8A C13A 1_555 1_555
C12A C14A 1_555 1_555
C13A C14A 1_555 1_555

#END
