
#######################################################################
#
#                 Cambridge Crystallographic Data Centre
#                                CCDC 
#
#######################################################################
#
# If this CIF has been generated from an entry in the Cambridge 
# Structural Database, then it will include bibliographic, chemical, 
# crystal, experimental, refinement or atomic coordinate data resulting 
# from the CCDC's data processing and validation procedures.
#
#######################################################################

data_HEDGUS
_symmetry_cell_setting           monoclinic
_symmetry_space_group_name_H-M   'P 21/c'
_symmetry_Int_Tables_number      14
_space_group_name_Hall           '-P 2ybc'
loop_
_symmetry_equiv_pos_site_id
_symmetry_equiv_pos_as_xyz
1 x,y,z
2 x,1/2-y,1/2+z
3 -x,-y,-z
4 -x,1/2+y,1/2-z
_cell_length_a                   4.693(3)
_cell_length_b                   19.849(2)
_cell_length_c                   11.096(2)
_cell_angle_alpha                90
_cell_angle_beta                 96.90(2)
_cell_angle_gamma                90
_cell_volume                     1026.12
loop_
_atom_site_label
_atom_site_type_symbol
_atom_site_fract_x
_atom_site_fract_y
_atom_site_fract_z
Cu1 Cu 0.7200(4) 0.16065(9) 0.0642(2)
O1 O 0.896(2) 0.1349(4) 0.2255(8)
O2 O 1.162(2) 0.1734(4) 0.3869(8)
O3 O 1.521(2) 0.3097(4) 0.4063(7)
O4 O 1.148(2) 0.3315(5) 0.5017(8)
N1 N 0.788(2) 0.2526(6) 0.1326(10)
N2 N 0.994(3) 0.3686(5) 0.242(1)
N3 N 0.605(2) 0.0634(5) 0.025(1)
C1 C 0.962(3) 0.2511(6) 0.237(1)
C2 C 1.069(3) 0.3096(7) 0.292(1)
C3 C 0.818(4) 0.3698(7) 0.140(1)
C4 C 0.711(4) 0.3124(7) 0.081(1)
C5 C 1.021(3) 0.1801(7) 0.288(1)
C6 C 1.257(3) 0.3159(6) 0.410(1)
C7 C 0.465(4) 0.0314(7) 0.101(1)
C8 C 0.647(3) 0.0328(7) -0.077(1)
H1 H 0.7605 0.4134 0.1028
H2 H 0.5804 0.3136 0.0085
H3 H 0.4372 0.0508 0.1776
H4 H 0.7526 0.0542 -0.1329
C8B C 0.353(3) -0.0328(7) 0.077(1)
N3B N 0.395(2) -0.0634(5) -0.025(1)
C7B C 0.535(4) -0.0314(7) -0.101(1)
H3B H 0.5628 -0.0508 -0.1776
H4B H 0.2474 -0.0542 0.1329
O1A O -0.104(2) 0.3651(4) -0.2745(8)
O2A O 0.162(2) 0.3266(4) -0.1131(8)
O3A O 0.521(2) 0.1903(4) -0.0937(7)
O4A O 0.148(2) 0.1685(5) 0.0017(8)
N1A N -0.212(2) 0.2474(6) -0.3674(10)
N2A N -0.006(3) 0.1314(5) -0.258(1)
C1A C -0.038(3) 0.2489(6) -0.263(1)
C2A C 0.069(3) 0.1904(7) -0.208(1)
C3A C -0.182(4) 0.1302(7) -0.360(1)
C4A C -0.289(4) 0.1876(7) -0.419(1)
C5A C 0.021(3) 0.3199(7) -0.212(1)
C6A C 0.257(3) 0.1841(6) -0.090(1)
H1A H -0.2395 0.0866 -0.3972
H2A H -0.4196 0.1864 -0.4915
O4A_2 O 1.148(2) 0.1685(5) 0.0017(8)
Cu1A Cu -0.2800(4) 0.33935(9) -0.4358(2)
Cu1A_2 Cu 1.7200(4) 0.33935(9) 0.5642(2)
Cu1A_3 Cu 0.7200(4) 0.33935(9) 0.5642(2)
Cu1_2 Cu -0.2800(4) 0.16065(9) 0.0642(2)
Cu1B Cu 0.2800(4) -0.16065(9) -0.0642(2)
O3_2 O -0.479(2) 0.3097(4) -0.5937(7)
O4_2 O 0.148(2) 0.3315(5) -0.4983(8)
N3A N -0.395(2) 0.4366(5) -0.475(1)
O5 O 0.246(4) 0.0324(6) 0.454(2)
loop_
_geom_bond_atom_site_label_1
_geom_bond_atom_site_label_2
_geom_bond_site_symmetry_1
_geom_bond_site_symmetry_2
Cu1 O1 1_555 1_555
O1 C5 1_555 1_555
O2 C5 1_555 1_555
O3 C6 1_555 1_555
O4 C6 1_555 1_555
N1 Cu1 1_555 1_555
N2 C2 1_555 1_555
N3 Cu1 1_555 1_555
C1 N1 1_555 1_555
C2 C1 1_555 1_555
C3 N2 1_555 1_555
C4 N1 1_555 1_555
C5 C1 1_555 1_555
C6 C2 1_555 1_555
C7 N3 1_555 1_555
C8 N3 1_555 1_555
H1 C3 1_555 1_555
H2 C4 1_555 1_555
H3 C7 1_555 1_555
H4 C8 1_555 1_555
C8B C7 1_555 1_555
N3B C8B 1_555 1_555
C7B C8 1_555 1_555
H3B C7B 1_555 1_555
H4B C8B 1_555 1_555
O1A C5A 1_555 1_555
O2A C5A 1_555 1_555
O3A Cu1 1_555 1_555
O4A C6A 1_555 1_555
N1A C1A 1_555 1_555
N2A C2A 1_555 1_555
C1A C2A 1_555 1_555
C2A C6A 1_555 1_555
C3A N2A 1_555 1_555
C4A N1A 1_555 1_555
C5A C1A 1_555 1_555
C6A O3A 1_555 1_555
H1A C3A 1_555 1_555
H2A C4A 1_555 1_555
O4A_2 Cu1 1_555 1_555
Cu1A O1A 1_555 1_555
Cu1A_2 O3 1_555 1_555
Cu1A_3 O4 1_555 1_555
Cu1_2 O4A 1_555 1_555
Cu1B N3B 1_555 1_555
O3_2 Cu1A 1_555 1_555
O4_2 Cu1A 1_555 1_555
N3A Cu1A 1_555 1_555
C3 C4 1_555 1_555
N3B C7B 1_555 1_555
N1A Cu1A 1_555 1_555
C3A C4A 1_555 1_555

#END
