
#######################################################################
#
#                 Cambridge Crystallographic Data Centre
#                                CCDC 
#
#######################################################################
#
# If this CIF has been generated from an entry in the Cambridge 
# Structural Database, then it will include bibliographic, chemical, 
# crystal, experimental, refinement or atomic coordinate data resulting 
# from the CCDC's data processing and validation procedures.
#
#######################################################################

data_HEFDIH
_symmetry_cell_setting           rhombohedral
_symmetry_space_group_name_H-M   'R 3'
_symmetry_Int_Tables_number      146
_space_group_name_Hall           'R 3'
loop_
_symmetry_equiv_pos_site_id
_symmetry_equiv_pos_as_xyz
1 x,y,z
2 -y,x-y,z
3 -x+y,-x,z
4 2/3+x,1/3+y,1/3+z
5 2/3-y,1/3+x-y,1/3+z
6 2/3-x+y,1/3-x,1/3+z
7 1/3+x,2/3+y,2/3+z
8 1/3-y,2/3+x-y,2/3+z
9 1/3-x+y,2/3-x,2/3+z
_cell_length_a                   29.772(4)
_cell_length_b                   29.772(4)
_cell_length_c                   12.763(3)
_cell_angle_alpha                90
_cell_angle_beta                 90
_cell_angle_gamma                120
_cell_volume                     9797.14
loop_
_atom_site_label
_atom_site_type_symbol
_atom_site_fract_x
_atom_site_fract_y
_atom_site_fract_z
Mo1 Mo 0.158647(19) 0.31273(2) 0.12772(4)
Mn1 Mn 0.12061(4) 0.41001(4) -0.15367(7)
Mn2 Mn 0.19675(4) 0.22263(4) 0.43542(8)
N1 N 0.1429(3) 0.4823(2) -0.0483(5)
C1 C 0.1260(3) 0.4640(3) 0.0568(6)
H1 H 0.1268 0.4916 0.0988
H2 H 0.1490 0.4537 0.0886
C2 C 0.2346(3) 0.3151(3) 0.5851(6)
C3 C 0.0710(3) 0.4180(3) 0.0535(6)
H3 H 0.0588 0.4060 0.1241
H4 H 0.0479 0.4281 0.0214
N2 N 0.2004(2) 0.2659(2) 0.5804(4)
N3 N 0.0642(2) 0.3256(2) -0.1876(4)
C4 C 0.1961(3) 0.4763(3) -0.3297(6)
C5 C 0.0725(3) 0.3029(3) -0.2649(5)
C6 C 0.1678(2) 0.3592(3) -0.0053(5)
N4 N 0.2343(3) 0.2698(3) 0.0419(5)
N5 N 0.1361(2) 0.3869(2) -0.3126(4)
N6 N 0.1715(2) 0.3862(2) -0.0720(4)
N7 N 0.1861(2) 0.4792(2) -0.2350(5)
N8 N 0.1454(2) 0.2490(2) 0.3487(5)
C7 C 0.1710(3) 0.4231(3) -0.3746(6)
C8 C 0.1498(3) 0.2721(3) 0.2724(5)
N9 N 0.2636(2) 0.3028(3) 0.4252(5)
N10 N 0.0712(2) 0.3769(2) -0.0070(4)
N11 N 0.1522(3) 0.1394(3) 0.3648(5)
C9 C 0.0208(3) 0.3368(3) -0.0423(6)
H5 H 0.0044 0.3523 -0.0827
H6 H -0.0010 0.3195 0.0178
C10 C 0.0784(3) 0.2868(3) 0.1314(5)
C11 C 0.2093(3) 0.2865(3) 0.0716(5)
C12 C 0.1581(4) 0.1444(4) 0.2540(7)
H7 H 0.1365 0.1573 0.2258
H8 H 0.1473 0.1107 0.2229
C13 C 0.1319(3) 0.1863(3) 0.6405(6)
C14 C 0.2076(3) 0.3194(4) 0.7566(6)
H9 H 0.2106 0.3381 0.8171
C15 C 0.1207(3) 0.3225(3) -0.4354(6)
H10 H 0.1037 0.2877 -0.4544
C16 C 0.2830(3) 0.2665(4) 0.2726(6)
H11 H 0.2960 0.2742 0.2013
H12 H 0.3008 0.2513 0.3088
C17 C 0.1685(3) 0.2412(3) 0.6603(5)
C18 C 0.0260(3) 0.2978(3) -0.1087(6)
H13 H 0.0365 0.2778 -0.0657
H14 H -0.0070 0.2742 -0.1412
C19 C 0.1564(3) 0.3596(4) -0.5013(6)
H15 H 0.1635 0.3502 -0.5660
N12 N 0.2291(3) 0.2310(3) 0.2717(5)
C20 C 0.0424(3) 0.2460(3) -0.2833(7)
H16 H 0.0388 0.2281 -0.2185
H17 H 0.0603 0.2365 -0.3333
H18 H 0.0086 0.2367 -0.3098
C21 C 0.2939(3) 0.3164(3) 0.3276(6)
H19 H 0.3306 0.3372 0.3433
H20 H 0.2842 0.3364 0.2825
C22 C 0.2137(4) 0.1810(4) 0.2278(6)
H21 H 0.2353 0.1680 0.2558
H22 H 0.2181 0.1839 0.1523
C23 C 0.2065(3) 0.5282(3) -0.1817(6)
H23 H 0.1894 0.5467 -0.2065
H24 H 0.2434 0.5494 -0.1949
C24 C 0.1815(3) 0.4108(4) -0.4710(6)
H25 H 0.2052 0.4365 -0.5154
C25 C 0.2289(4) 0.5206(4) -0.4002(8)
H26 H 0.2288 0.5511 -0.3759
H27 H 0.2152 0.5126 -0.4701
H28 H 0.2637 0.5267 -0.4001
C26 C 0.1719(3) 0.2679(4) 0.7520(6)
H29 H 0.1503 0.2511 0.8087
C27 C 0.3009(4) 0.3928(3) 0.4784(7)
H30 H 0.3327 0.4040 0.5160
H31 H 0.2832 0.4097 0.5067
H32 H 0.3085 0.4017 0.4057
C28 C 0.2675(3) 0.3360(3) 0.4889(6)
C29 C 0.1154(3) 0.2451(3) 0.0325(7)
C30 C 0.1001(4) 0.1145(4) 0.4015(8)
H33 H 0.0823 0.0786 0.3791
H34 H 0.0824 0.1312 0.3709
N13 N 0.1434(3) 0.3989(3) 0.2617(5)
N14 N 0.1316(2) 0.1702(2) 0.5477(5)
C31 C 0.1105(3) 0.3376(3) -0.3403(5)
N15 N 0.0919(3) 0.2100(3) -0.0198(7)
C32 C 0.1491(3) 0.3692(3) 0.2162(5)
C33 C 0.2392(3) 0.3437(3) 0.6732(6)
H35 H 0.2634 0.3790 0.6758
C34 C 0.0999(4) 0.1525(4) 0.7293(8)
H36 H 0.0642 0.1332 0.7084
H37 H 0.1033 0.1738 0.7887
H38 H 0.1117 0.1289 0.7478
N16 N 0.0353(2) 0.2718(2) 0.1314(4)
C35 C 0.1967(3) 0.5171(3) -0.0658(6)
H39 H 0.2167 0.5018 -0.0400
H40 H 0.2075 0.5492 -0.0280
C36 C 0.0977(4) 0.1167(3) 0.5193(8)
H41 H 0.0625 0.1052 0.5421
H42 H 0.1093 0.0947 0.5513
N17 N 0.2773(2) 0.4118(2) 0.1652(5)
C37 C 0.2364(3) 0.3756(3) 0.1595(5)
Mn1E Mn -0.04393(6) 0.21272(4) 0.17966(7)
Mn2H Mn 0.35921(6) 0.46992(4) 0.10209(8)
N16G N 0.0615(2) 0.4302(3) -0.2019(4)
N17D N 0.2549(2) 0.1988(3) 0.4985(5)
O1 O 0.3376(4) 0.5102(4) 0.6406(7)
O2 O 0.1872(4) 0.1021(6) 0.6393(10)
loop_
_geom_bond_atom_site_label_1
_geom_bond_atom_site_label_2
_geom_bond_site_symmetry_1
_geom_bond_site_symmetry_2
Mo1 C6 1_555 1_555
Mn1 N1 1_555 1_555
Mn2 N2 1_555 1_555
N1 C1 1_555 1_555
C1 H1 1_555 1_555
H2 C1 1_555 1_555
C2 N2 1_555 1_555
C3 C1 1_555 1_555
H3 C3 1_555 1_555
H4 C3 1_555 1_555
N2 C17 1_555 1_555
N3 Mn1 1_555 1_555
C4 N7 1_555 1_555
C5 N3 1_555 1_555
C6 N6 1_555 1_555
N4 C11 1_555 1_555
N5 Mn1 1_555 1_555
N6 Mn1 1_555 1_555
N7 Mn1 1_555 1_555
N8 Mn2 1_555 1_555
C7 C4 1_555 1_555
C8 Mo1 1_555 1_555
N9 Mn2 1_555 1_555
N10 Mn1 1_555 1_555
N11 Mn2 1_555 1_555
C9 N10 1_555 1_555
H5 C9 1_555 1_555
H6 C9 1_555 1_555
C10 Mo1 1_555 1_555
C11 Mo1 1_555 1_555
C12 N11 1_555 1_555
H7 C12 1_555 1_555
H8 C12 1_555 1_555
C13 C17 1_555 1_555
C14 H9 1_555 1_555
C15 H10 1_555 1_555
C16 H11 1_555 1_555
H12 C16 1_555 1_555
C17 C26 1_555 1_555
C18 N3 1_555 1_555
H13 C18 1_555 1_555
H14 C18 1_555 1_555
C19 C15 1_555 1_555
H15 C19 1_555 1_555
N12 Mn2 1_555 1_555
C20 C5 1_555 1_555
H16 C20 1_555 1_555
H17 C20 1_555 1_555
H18 C20 1_555 1_555
C21 N9 1_555 1_555
H19 C21 1_555 1_555
H20 C21 1_555 1_555
C22 C12 1_555 1_555
H21 C22 1_555 1_555
H22 C22 1_555 1_555
C23 N7 1_555 1_555
H23 C23 1_555 1_555
H24 C23 1_555 1_555
C24 C7 1_555 1_555
H25 C24 1_555 1_555
C25 C4 1_555 1_555
H26 C25 1_555 1_555
H27 C25 1_555 1_555
H28 C25 1_555 1_555
C26 C14 1_555 1_555
H29 C26 1_555 1_555
C27 H30 1_555 1_555
H31 C27 1_555 1_555
H32 C27 1_555 1_555
C28 C2 1_555 1_555
C29 Mo1 1_555 1_555
C30 N11 1_555 1_555
H33 C30 1_555 1_555
H34 C30 1_555 1_555
N13 C32 1_555 1_555
N14 Mn2 1_555 1_555
C31 C5 1_555 1_555
N15 C29 1_555 1_555
C32 Mo1 1_555 1_555
C33 C2 1_555 1_555
H35 C33 1_555 1_555
C34 C13 1_555 1_555
H36 C34 1_555 1_555
H37 C34 1_555 1_555
H38 C34 1_555 1_555
N16 C10 1_555 1_555
C35 N1 1_555 1_555
H39 C35 1_555 1_555
H40 C35 1_555 1_555
C36 C30 1_555 1_555
H41 C36 1_555 1_555
H42 C36 1_555 1_555
N17 C37 1_555 1_555
C37 Mo1 1_555 1_555
Mn1E N16 1_555 1_555
Mn2H N17 1_555 1_555
N16G Mn1 1_555 1_555
N17D Mn2 1_555 1_555
C3 N10 1_555 1_555
N5 C7 1_555 1_555
N5 C31 1_555 1_555
N8 C8 1_555 1_555
N9 C28 1_555 1_555
C9 C18 1_555 1_555
C13 N14 1_555 1_555
C14 C33 1_555 1_555
C15 C31 1_555 1_555
C16 N12 1_555 1_555
C16 C21 1_555 1_555
C19 C24 1_555 1_555
N12 C22 1_555 1_555
C23 C35 1_555 1_555
C27 C28 1_555 1_555
N14 C36 1_555 1_555

#END
