
#######################################################################
#
#                 Cambridge Crystallographic Data Centre
#                                CCDC 
#
#######################################################################
#
# If this CIF has been generated from an entry in the Cambridge 
# Structural Database, then it will include bibliographic, chemical, 
# crystal, experimental, refinement or atomic coordinate data resulting 
# from the CCDC's data processing and validation procedures.
#
#######################################################################

data_HEFVAR
_symmetry_cell_setting           monoclinic
_symmetry_space_group_name_H-M   'C 2/c'
_symmetry_Int_Tables_number      15
_space_group_name_Hall           '-C 2yn'
loop_
_symmetry_equiv_pos_site_id
_symmetry_equiv_pos_as_xyz
1 x,y,z
2 -x,y,1/2-z
3 1/2+x,1/2+y,z
4 1/2-x,1/2+y,1/2-z
5 -x,-y,-z
6 x,-y,1/2+z
7 1/2-x,1/2-y,-z
8 1/2+x,1/2-y,1/2+z
_cell_length_a                   17.9075(18)
_cell_length_b                   26.711(3)
_cell_length_c                   15.6530(14)
_cell_angle_alpha                90
_cell_angle_beta                 91.458(4)
_cell_angle_gamma                90
_cell_volume                     7484.83
loop_
_atom_site_label
_atom_site_type_symbol
_atom_site_fract_x
_atom_site_fract_y
_atom_site_fract_z
Rh1 Rh 0.21908(3) 0.50357(2) 0.79066(4)
Cu1 Cu 0.53857(5) 0.74347(3) 0.93462(6)
Cu2 Cu 0.92326(5) 0.73580(3) 0.56864(6)
Cu3 Cu 1.0000 0.77131(7) 0.7500
Cl1 Cl 0.31300(11) 0.49807(7) 0.69121(13)
Cl2 Cl 0.12328(11) 0.50839(7) 0.88941(13)
N1 N 0.2748(4) 0.5606(2) 0.8521(4)
C1 C 0.3494(5) 0.5606(3) 0.8596(6)
H1 H 0.3759 0.5319 0.8414
C2 C 0.3897(5) 0.6010(3) 0.8931(6)
H2 H 0.4427 0.6002 0.8958
C3 C 0.3512(4) 0.6424(3) 0.9225(5)
C4 C 0.2741(4) 0.6413(3) 0.9200(5)
H3 H 0.2465 0.6680 0.9437
C5 C 0.2372(5) 0.6007(3) 0.8826(6)
H4 H 0.1841 0.6010 0.8783
C6 C 0.3929(5) 0.6869(3) 0.9549(5)
O1 O 0.3636(3) 0.7117(2) 1.0137(4)
O2 O 0.4541(3) 0.6962(2) 0.9202(4)
N2 N 0.7246(4) 0.5470(2) 1.1329(4)
C7 C 0.6924(5) 0.5881(3) 1.1663(5)
H5 H 0.6962 0.5931 1.2264
C8 C 0.6542(5) 0.6230(3) 1.1171(5)
H6 H 0.6321 0.6514 1.1428
C9 C 0.6488(5) 0.6159(3) 1.0290(5)
C10 C 0.6803(5) 0.5727(3) 0.9952(5)
H7 H 0.6760 0.5662 0.9356
C11 C 0.7174(5) 0.5396(3) 1.0482(5)
H8 H 0.7387 0.5105 1.0242
C12 C 0.6112(5) 0.6535(3) 0.9688(5)
O3 O 0.5914(3) 0.6944(2) 1.0046(3)
O4 O 0.6059(5) 0.6436(3) 0.8931(4)
N3 N 0.6653(3) 0.9441(2) 1.2146(4)
C13 C 0.5918(5) 0.9465(3) 1.2010(5)
H9 H 0.5656 0.9749 1.2216
C14 C 0.5519(5) 0.9094(3) 1.1581(6)
H10 H 0.4993 0.9123 1.1493
C15 C 0.5903(4) 0.8676(3) 1.1279(5)
C16 C 0.6678(4) 0.8663(3) 1.1368(5)
H11 H 0.6959 0.8400 1.1125
C17 C 0.7035(4) 0.9051(3) 1.1828(5)
H12 H 0.7562 0.9038 1.1917
C18 C 0.5468(4) 0.8249(3) 1.0881(5)
O5 O 0.4826(3) 0.8187(2) 1.1172(4)
O6 O 0.5774(3) 0.7991(2) 1.0314(4)
N4 N 0.3363(4) 0.9462(2) 0.7713(4)
C19 C 0.3692(4) 0.9093(3) 0.7289(5)
H13 H 0.3705 0.9112 0.6684
C20 C 0.4017(4) 0.8682(3) 0.7695(5)
H14 H 0.4245 0.8426 0.7371
C21 C 0.4005(4) 0.8649(3) 0.8569(5)
C22 C 0.3679(5) 0.9042(3) 0.9029(5)
H15 H 0.3665 0.9033 0.9636
C23 C 0.3380(5) 0.9440(3) 0.8579(5)
H16 H 0.3175 0.9711 0.8888
C24 C 0.4292(4) 0.8202(3) 0.9064(5)
O7 O 0.4830(3) 0.7968(2) 0.8748(4)
O8 O 0.3963(3) 0.8106(2) 0.9738(4)
N5 N 0.6294(4) 0.7554(3) 0.8626(4)
C25 C 0.6962(4) 0.7662(3) 0.9035(5)
H17 H 0.6960 0.7750 0.9623
C26 C 0.7634(4) 0.7648(3) 0.8631(5)
H18 H 0.8084 0.7723 0.8940
C27 C 0.7653(4) 0.7526(3) 0.7788(5)
C28 C 0.6979(5) 0.7426(3) 0.7351(5)
H19 H 0.6971 0.7348 0.6759
C29 C 0.6319(5) 0.7443(3) 0.7802(5)
H20 H 0.5863 0.7372 0.7504
C30 C 0.8381(4) 0.7485(3) 0.7315(5)
O9 O 0.8367(3) 0.7281(2) 0.6598(3)
O10 O 0.8939(4) 0.7666(3) 0.7732(4)
O11 O 0.9811(3) 0.7868(2) 0.6338(4)
Rh1G Rh 0.71908(3) 0.99643(2) 0.29066(4)
Rh1D Rh 0.78092(3) 0.49643(2) 1.20934(4)
Rh1G_2 Rh 0.71908(3) 0.99643(2) 1.29066(4)
Rh1C Rh 0.28092(3) 1.00357(2) 0.70934(4)
Rh1_2 Rh 1.21908(3) 0.50357(2) 0.79066(4)
Rh1D_2 Rh 0.78092(3) 0.49643(2) 0.20934(4)
Rh1E Rh 1.21908(3) 0.49643(2) 0.29066(4)
Cu1A Cu 1.46143(5) 0.74347(3) 0.56538(6)
Cu1G Cu 1.03857(5) 0.75653(3) 0.43462(6)
Cu1F Cu 0.96143(5) 0.75653(3) 1.06538(6)
Cu2A Cu 1.07674(5) 0.73580(3) 0.93136(6)
Cu2G Cu 0.42326(5) 0.76420(3) 1.06864(6)
Cu2F Cu 1.57674(5) 0.76420(3) 0.43136(6)
Cl1G Cl 0.81300(11) 1.00193(7) 0.19121(13)
Cl2G Cl 0.62328(11) 0.99161(7) 0.38941(13)
N1G N 0.7748(4) 0.9394(2) 0.3521(4)
C1G C 0.8494(5) 0.9394(3) 0.3596(6)
H1G H 0.8759 0.9681 0.3414
C2G C 0.8897(5) 0.8990(3) 0.3931(6)
H2G H 0.9427 0.8998 0.3958
C3G C 0.8512(4) 0.8576(3) 0.4225(5)
C4G C 0.7741(4) 0.8587(3) 0.4200(5)
H3G H 0.7465 0.8320 0.4437
C5G C 0.7372(5) 0.8993(3) 0.3826(6)
H4G H 0.6841 0.8990 0.3783
C6G C 0.8929(5) 0.8131(3) 0.4549(5)
O1G O 0.8636(3) 0.7883(2) 0.5137(4)
O1F O 1.1364(3) 0.7883(2) 0.9863(4)
O2G O 0.9541(3) 0.8038(2) 0.4202(4)
O2A O 1.5459(3) 0.6962(2) 0.5798(4)
N2A N 1.2754(4) 0.5470(2) 0.3671(4)
N2D N 0.2754(4) 0.4530(2) 0.8671(4)
N2C N 0.7754(4) 1.0470(2) 0.3671(4)
C7A C 1.3076(5) 0.5881(3) 0.3337(5)
H5A H 1.3038 0.5931 0.2736
C8A C 1.3458(5) 0.6230(3) 0.3829(5)
H6A H 1.3679 0.6514 0.3572
C9A C 1.3512(5) 0.6159(3) 0.4710(5)
C10A C 1.3197(5) 0.5727(3) 0.5048(5)
H7A H 1.3240 0.5662 0.5644
C11A C 1.2826(5) 0.5396(3) 0.4518(5)
H8A H 1.2613 0.5105 0.4758
C12A C 1.3888(5) 0.6535(3) 0.5312(5)
O3A O 1.4086(3) 0.6944(2) 0.4954(3)
O4A O 1.3941(5) 0.6436(3) 0.6069(4)
N3G N 1.1653(3) 0.5559(2) 0.7146(4)
N3G_2 N 0.1653(3) 0.5559(2) 0.7146(4)
N3_2 N 0.6653(3) 0.9441(2) 0.2146(4)
C13G C 1.0918(5) 0.5535(3) 0.7010(5)
H9G H 1.0656 0.5251 0.7216
C14G C 1.0519(5) 0.5906(3) 0.6581(6)
H10G H 0.9993 0.5877 0.6493
C15G C 1.0903(4) 0.6324(3) 0.6279(5)
C16G C 1.1678(4) 0.6337(3) 0.6368(5)
H11G H 1.1959 0.6600 0.6125
C17G C 1.2035(4) 0.5949(3) 0.6828(5)
H12G H 1.2562 0.5962 0.6917
C18G C 1.0468(4) 0.6751(3) 0.5881(5)
O5G O 0.9826(3) 0.6813(2) 0.6172(4)
O5F O 1.0174(3) 0.6813(2) 0.8828(4)
O6G O 1.0774(3) 0.7009(2) 0.5314(4)
O6A O 1.4226(3) 0.7991(2) 0.4686(4)
N4G N 0.8363(4) 0.5538(2) 0.2713(4)
N4C N 0.1637(4) 0.4462(2) 0.7287(4)
N4D N 0.6637(4) 1.0538(2) 0.2287(4)
C19G C 0.8692(4) 0.5907(3) 0.2289(5)
H13G H 0.8705 0.5888 0.1684
C20G C 0.9017(4) 0.6318(3) 0.2695(5)
H14G H 0.9245 0.6574 0.2371
C21G C 0.9005(4) 0.6351(3) 0.3569(5)
C22G C 0.8679(5) 0.5958(3) 0.4029(5)
H15G H 0.8665 0.5967 0.4636
C23G C 0.8380(5) 0.5560(3) 0.3579(5)
H16G H 0.8175 0.5289 0.3888
C24G C 0.9292(4) 0.6798(3) 0.4064(5)
O7G O 0.9830(3) 0.7032(2) 0.3748(4)
O7A O 1.5170(3) 0.7968(2) 0.6252(4)
O8G O 0.8963(3) 0.6894(2) 0.4738(4)
O8F O 1.1037(3) 0.6894(2) 1.0262(4)
N5A N 1.3706(4) 0.7554(3) 0.6374(4)
C25A C 1.3038(4) 0.7662(3) 0.5965(5)
H17A H 1.3040 0.7750 0.5377
C26A C 1.2366(4) 0.7648(3) 0.6369(5)
H18A H 1.1916 0.7723 0.6060
C27A C 1.2347(4) 0.7526(3) 0.7212(5)
C28A C 1.3021(5) 0.7426(3) 0.7649(5)
H19A H 1.3029 0.7348 0.8241
C29A C 1.3681(5) 0.7443(3) 0.7198(5)
H20A H 1.4137 0.7372 0.7496
C30A C 1.1619(4) 0.7485(3) 0.7685(5)
O9A O 1.1633(3) 0.7281(2) 0.8402(3)
O10A O 1.1061(4) 0.7666(3) 0.7268(4)
O11A O 1.0189(3) 0.7868(2) 0.8662(4)
O12 O 0.500(2) 0.4808(16) 0.917(4)
loop_
_geom_bond_atom_site_label_1
_geom_bond_atom_site_label_2
_geom_bond_site_symmetry_1
_geom_bond_site_symmetry_2
Rh1 Cl1 1_555 1_555
Cu1 O2 1_555 1_555
Cu2 O9 1_555 1_555
Cu3 O10 1_555 1_555
Cl2 Rh1 1_555 1_555
N1 Rh1 1_555 1_555
C1 N1 1_555 1_555
H1 C1 1_555 1_555
C2 C1 1_555 1_555
H2 C2 1_555 1_555
C3 C2 1_555 1_555
C4 C3 1_555 1_555
H3 C4 1_555 1_555
C5 N1 1_555 1_555
H4 C5 1_555 1_555
C6 C3 1_555 1_555
O1 C6 1_555 1_555
O2 C6 1_555 1_555
N2 C7 1_555 1_555
C7 H5 1_555 1_555
C8 C7 1_555 1_555
H6 C8 1_555 1_555
C9 C8 1_555 1_555
C10 C9 1_555 1_555
H7 C10 1_555 1_555
C11 N2 1_555 1_555
H8 C11 1_555 1_555
C12 C9 1_555 1_555
O3 Cu1 1_555 1_555
O4 C12 1_555 1_555
N3 C13 1_555 1_555
C13 H9 1_555 1_555
C14 C13 1_555 1_555
H10 C14 1_555 1_555
C15 C14 1_555 1_555
C16 C15 1_555 1_555
H11 C16 1_555 1_555
C17 N3 1_555 1_555
H12 C17 1_555 1_555
C18 C15 1_555 1_555
O5 C18 1_555 1_555
O6 Cu1 1_555 1_555
N4 C19 1_555 1_555
C19 H13 1_555 1_555
C20 C19 1_555 1_555
H14 C20 1_555 1_555
C21 C20 1_555 1_555
C22 C21 1_555 1_555
H15 C22 1_555 1_555
C23 N4 1_555 1_555
H16 C23 1_555 1_555
C24 C21 1_555 1_555
O7 Cu1 1_555 1_555
O8 C24 1_555 1_555
N5 Cu1 1_555 1_555
C25 N5 1_555 1_555
H17 C25 1_555 1_555
C26 C25 1_555 1_555
H18 C26 1_555 1_555
C27 C26 1_555 1_555
C28 C27 1_555 1_555
H19 C28 1_555 1_555
C29 N5 1_555 1_555
H20 C29 1_555 1_555
C30 C27 1_555 1_555
O9 C30 1_555 1_555
O10 C30 1_555 1_555
O11 Cu2 1_555 1_555
Rh1G Cl1G 1_555 1_555
Rh1D N2 1_555 1_555
Rh1G_2 N3 1_555 1_555
Rh1C N4 1_555 1_555
Rh1_2 N3G 1_555 1_555
Rh1D_2 N4G 1_555 1_555
Rh1E N2A 1_555 1_555
Cu1A Cu2F 1_555 1_555
Cu1G Cu2 1_555 1_555
Cu1F Cu2A 1_555 1_555
Cu2A O1F 1_555 1_555
Cu2G Cu1 1_555 1_555
Cl2G Rh1G 1_555 1_555
N1G Rh1G 1_555 1_555
C1G N1G 1_555 1_555
H1G C1G 1_555 1_555
C2G C1G 1_555 1_555
H2G C2G 1_555 1_555
C3G C2G 1_555 1_555
C4G C3G 1_555 1_555
H3G C4G 1_555 1_555
C5G N1G 1_555 1_555
H4G C5G 1_555 1_555
C6G C3G 1_555 1_555
O1G Cu2 1_555 1_555
O2G Cu1G 1_555 1_555
O2A Cu1A 1_555 1_555
N2A C7A 1_555 1_555
N2D Rh1 1_555 1_555
N2C Rh1G 1_555 1_555
C7A H5A 1_555 1_555
C8A C7A 1_555 1_555
H6A C8A 1_555 1_555
C9A C8A 1_555 1_555
C10A C9A 1_555 1_555
H7A C10A 1_555 1_555
C11A N2A 1_555 1_555
H8A C11A 1_555 1_555
C12A C9A 1_555 1_555
O3A Cu1A 1_555 1_555
O4A C12A 1_555 1_555
N3G C13G 1_555 1_555
N3G_2 Rh1 1_555 1_555
N3_2 Rh1G 1_555 1_555
C13G H9G 1_555 1_555
C14G C13G 1_555 1_555
H10G C14G 1_555 1_555
C15G C14G 1_555 1_555
C16G C15G 1_555 1_555
H11G C16G 1_555 1_555
C17G N3G 1_555 1_555
H12G C17G 1_555 1_555
C18G C15G 1_555 1_555
O5G Cu2 1_555 1_555
O5F Cu2A 1_555 1_555
O6G Cu1G 1_555 1_555
O6A Cu1A 1_555 1_555
N4G C19G 1_555 1_555
N4C Rh1 1_555 1_555
N4D Rh1G 1_555 1_555
C19G H13G 1_555 1_555
C20G C19G 1_555 1_555
H14G C20G 1_555 1_555
C21G C20G 1_555 1_555
C22G C21G 1_555 1_555
H15G C22G 1_555 1_555
C23G N4G 1_555 1_555
H16G C23G 1_555 1_555
C24G C21G 1_555 1_555
O7G Cu1G 1_555 1_555
O7A Cu1A 1_555 1_555
O8G Cu2 1_555 1_555
O8F Cu2A 1_555 1_555
N5A Cu1A 1_555 1_555
C25A N5A 1_555 1_555
H17A C25A 1_555 1_555
C26A C25A 1_555 1_555
H18A C26A 1_555 1_555
C27A C26A 1_555 1_555
C28A C27A 1_555 1_555
H19A C28A 1_555 1_555
C29A N5A 1_555 1_555
H20A C29A 1_555 1_555
C30A C27A 1_555 1_555
O9A Cu2A 1_555 1_555
O10A Cu3 1_555 1_555
O11A Cu3 1_555 1_555
Cu3 O11 1_555 1_555
C4 C5 1_555 1_555
O1 Cu2G 1_555 1_555
C10 C11 1_555 1_555
C12 O3 1_555 1_555
C16 C17 1_555 1_555
C18 O6 1_555 1_555
O5 Cu2G 1_555 1_555
C22 C23 1_555 1_555
C24 O7 1_555 1_555
O8 Cu2G 1_555 1_555
C28 C29 1_555 1_555
Cu2A O11A 1_555 1_555
C4G C5G 1_555 1_555
C6G O1G 1_555 1_555
C6G O2G 1_555 1_555
C10A C11A 1_555 1_555
C12A O3A 1_555 1_555
C16G C17G 1_555 1_555
C18G O5G 1_555 1_555
C18G O6G 1_555 1_555
C22G C23G 1_555 1_555
C24G O7G 1_555 1_555
C24G O8G 1_555 1_555
C28A C29A 1_555 1_555
C30A O9A 1_555 1_555
C30A O10A 1_555 1_555

#END
