
#######################################################################
#
#                 Cambridge Crystallographic Data Centre
#                                CCDC 
#
#######################################################################
#
# If this CIF has been generated from an entry in the Cambridge 
# Structural Database, then it will include bibliographic, chemical, 
# crystal, experimental, refinement or atomic coordinate data resulting 
# from the CCDC's data processing and validation procedures.
#
#######################################################################

data_HEGCEB
_symmetry_cell_setting           triclinic
_symmetry_space_group_name_H-M   'P -1'
_symmetry_Int_Tables_number      2
_space_group_name_Hall           '-P 1'
loop_
_symmetry_equiv_pos_site_id
_symmetry_equiv_pos_as_xyz
1 x,y,z
2 -x,-y,-z
_cell_length_a                   11.868(1)
_cell_length_b                   13.030(1)
_cell_length_c                   7.7113(6)
_cell_angle_alpha                105.956(7)
_cell_angle_beta                 94.951(8)
_cell_angle_gamma                91.584(9)
_cell_volume                     1140.61
loop_
_atom_site_label
_atom_site_type_symbol
_atom_site_fract_x
_atom_site_fract_y
_atom_site_fract_z
Cd1 Cd 0.24562(3) 0.19412(3) 0.11275(4)
Ni1 Ni 0.00000 0.00000 0.50000
Ni2 Ni 0.50000 0.50000 0.00000
N1 N 0.1484(3) 0.0902(3) 0.2751(5)
N2 N 0.1324(4) 0.1271(3) 0.8431(5)
N3 N 0.3589(4) 0.3031(3) -0.0121(6)
N4 N 0.4242(4) 0.6007(4) 0.3657(6)
N5 N 0.1206(4) 0.3262(3) 0.2273(6)
N6 N 0.3397(4) 0.2921(4) 0.3927(6)
N7 N 0.3503(4) 0.0439(4) 0.0202(7)
C1 C 0.0936(4) 0.0557(3) 0.3614(5)
C2 C 0.0818(4) 0.0809(3) 0.7115(5)
C3 C 0.4121(4) 0.3766(4) -0.0115(6)
C4 C 0.4546(4) 0.5628(4) 0.2298(7)
C5 C 0.1827(8) 0.4053(6) 0.3906(9)
C6 C 0.2640(7) 0.3617(7) 0.4932(9)
C7 C 0.4740(4) 0.0521(4) 0.0408(7)
H1 H 0.05252 0.29329 0.26347
H2 H 0.09641 0.36291 0.13330
H3 H 0.11952 0.44306 0.48070
H4 H 0.22691 0.46635 0.34335
H5 H 0.21766 0.31684 0.56896
H6 H 0.31469 0.42870 0.58903
H7 H 0.40556 0.33503 0.37135
H8 H 0.36727 0.24178 0.46224
H9 H 0.32700 0.01191 -0.11191
H10 H 0.32709 -0.00673 0.08902
H11 H 0.50267 0.11132 -0.02590
H12 H 0.50299 0.07918 0.18623
C7A C 0.5260(4) -0.0521(4) -0.0408(7)
N7A N 0.6497(4) -0.0439(4) -0.0202(7)
H9A H 0.67300 -0.01191 0.11191
H10A H 0.67291 0.00673 -0.08902
H11A H 0.49733 -0.11132 0.02590
H12A H 0.49701 -0.07918 -0.18623
N1A N -0.1484(3) -0.0902(3) 0.7249(5)
C1A C -0.0936(4) -0.0557(3) 0.6386(5)
N2A N -0.1324(4) -0.1271(3) 0.1569(5)
C2A C -0.0818(4) -0.0809(3) 0.2885(5)
Cd1A Cd -0.24562(3) -0.19412(3) 0.88725(4)
N3A N -0.3589(4) -0.3031(3) 1.0121(6)
C3A C -0.4121(4) -0.3766(4) 1.0115(6)
N5A N -0.1206(4) -0.3262(3) 0.7727(6)
N6A N -0.3397(4) -0.2921(4) 0.6073(6)
C5A C -0.1827(8) -0.4053(6) 0.6094(9)
C6A C -0.2640(7) -0.3617(7) 0.5068(9)
H1A H -0.05252 -0.29329 0.73653
H2A H -0.09641 -0.36291 0.86670
H3A H -0.11952 -0.44306 0.51930
H4A H -0.22691 -0.46635 0.65665
H5A H -0.21766 -0.31684 0.43104
H6A H -0.31469 -0.42870 0.41097
H7A H -0.40556 -0.33503 0.62865
H8A H -0.36727 -0.24178 0.53776
N4A N 0.5758(4) 0.3993(4) -0.3657(6)
C4A C 0.5454(4) 0.4372(4) -0.2298(7)
N2_2 N 0.1324(4) 0.1271(3) -0.1569(5)
C3A_2 C 0.5879(4) 0.6234(4) 0.0115(6)
Cd1_2 Cd 0.24562(3) 0.19412(3) 1.11275(4)
Cd1A_2 Cd 0.75438(3) -0.19412(3) -0.11275(4)
Cd1A_3 Cd -0.24562(3) -0.19412(3) -0.11275(4)
N2A_2 N -0.1324(4) -0.1271(3) 1.1569(5)
N7A_2 N -0.3503(4) -0.0439(4) 0.9798(7)
Ni2_2 Ni -0.50000 -0.50000 1.00000
H9A_2 H -0.32700 -0.01191 1.11191
H10A_2 H -0.32709 0.00673 0.91098
O1 O 0.2444(4) 0.7122(4) 0.4905(6)
C8 C 0.2353(4) 0.7408(4) 0.6710(7)
C9 C 0.1487(5) 0.8090(4) 0.7327(9)
C10 C 0.1360(5) 0.8395(5) 0.9157(9)
C11 C 0.2072(6) 0.8054(5) 1.0353(9)
C12 C 0.2937(6) 0.7394(5) 0.9709(9)
C13 C 0.3083(5) 0.7050(4) 0.7868(8)
H13 H 0.09323 0.83695 0.63877
H14 H 0.06904 0.89091 0.96513
H15 H 0.19649 0.82943 1.17825
H16 H 0.35088 0.71421 1.06613
H17 H 0.37435 0.65237 0.73743
O2? O 0.0189(9) 0.6406(8) 0.3311(12)
C14? C 0.0119(7) 0.5749(5) 0.1665(9)
C15? C 0.1039(6) 0.5533(6) 0.0723(9)
C16? C 0.0941(6) 0.4786(7) -0.0946(9)
O3? O 0.3133(29) -0.0628(22) 0.5177(34)
O4? O 0.3564(15) 0.1228(16) 0.6221(22)
C17? C 0.3952(13) -0.0414(10) 0.4914(16)
C18? C 0.4171(12) 0.0673(9) 0.5730(12)
C19? C 0.5252(13) 0.1093(7) 0.5809(12)
H18? H 0.01973 0.63354 0.29742
H19? H 0.18465 0.59450 0.12815
H20? H 0.16706 0.46117 -0.17017
H21? H 0.30971 -0.07395 0.48480
H22? H 0.35068 0.11737 0.62890
H23? H 0.54646 0.19337 0.64218
loop_
_geom_bond_atom_site_label_1
_geom_bond_atom_site_label_2
_geom_bond_site_symmetry_1
_geom_bond_site_symmetry_2
Cd1 N1 1_555 1_555
Ni1 C1 1_555 1_555
Ni2 C3 1_555 1_555
N1 C1 1_555 1_555
N2 C2 1_555 1_555
N3 Cd1 1_555 1_555
N4 C4 1_555 1_555
N5 Cd1 1_555 1_555
N6 Cd1 1_555 1_555
N7 Cd1 1_555 1_555
C2 Ni1 1_555 1_555
C3 N3 1_555 1_555
C4 Ni2 1_555 1_555
C5 N5 1_555 1_555
C6 N6 1_555 1_555
C7 N7 1_555 1_555
O1 C8 1_555 1_555
C8 C9 1_555 1_555
C9 C10 1_555 1_555
C10 C11 1_555 1_555
C11 C12 1_555 1_555
C12 C13 1_555 1_555
C13 C8 1_555 1_555
H1 N5 1_555 1_555
H2 N5 1_555 1_555
H3 C5 1_555 1_555
H4 C5 1_555 1_555
H5 C6 1_555 1_555
H6 C6 1_555 1_555
H7 N6 1_555 1_555
H8 N6 1_555 1_555
H9 N7 1_555 1_555
H10 N7 1_555 1_555
H11 C7 1_555 1_555
H12 C7 1_555 1_555
H13 C9 1_555 1_555
H14 C10 1_555 1_555
H15 C11 1_555 1_555
H16 C12 1_555 1_555
H17 C13 1_555 1_555
C7A C7 1_555 1_555
N7A C7A 1_555 1_555
H9A N7A 1_555 1_555
H10A N7A 1_555 1_555
H11A C7A 1_555 1_555
H12A C7A 1_555 1_555
N1A C1A 1_555 1_555
C1A Ni1 1_555 1_555
N2A C2A 1_555 1_555
C2A Ni1 1_555 1_555
Cd1A N1A 1_555 1_555
N3A Cd1A 1_555 1_555
C3A N3A 1_555 1_555
N5A Cd1A 1_555 1_555
N6A Cd1A 1_555 1_555
C5A N5A 1_555 1_555
C6A N6A 1_555 1_555
H1A N5A 1_555 1_555
H2A N5A 1_555 1_555
H3A C5A 1_555 1_555
H4A C5A 1_555 1_555
H5A C6A 1_555 1_555
H6A C6A 1_555 1_555
H7A N6A 1_555 1_555
H8A N6A 1_555 1_555
N4A C4A 1_555 1_555
C4A Ni2 1_555 1_555
N2_2 Cd1 1_555 1_555
C3A_2 Ni2 1_555 1_555
Cd1_2 N2 1_555 1_555
Cd1A_2 N7A 1_555 1_555
Cd1A_3 N2A 1_555 1_555
N2A_2 Cd1A 1_555 1_555
N7A_2 Cd1A 1_555 1_555
Ni2_2 C3A 1_555 1_555
H9A_2 N7A_2 1_555 1_555
H10A_2 N7A_2 1_555 1_555
C5 C6 1_555 1_555
C5A C6A 1_555 1_555

#END
