
#######################################################################
#
#                 Cambridge Crystallographic Data Centre
#                                CCDC 
#
#######################################################################
#
# If this CIF has been generated from an entry in the Cambridge 
# Structural Database, then it will include bibliographic, chemical, 
# crystal, experimental, refinement or atomic coordinate data resulting 
# from the CCDC's data processing and validation procedures.
#
#######################################################################

data_HESVOR
_symmetry_cell_setting           tetragonal
_symmetry_space_group_name_H-M   'P 42/m n m'
_symmetry_Int_Tables_number      136
_space_group_name_Hall           '-P 4n 2n'
loop_
_symmetry_equiv_pos_site_id
_symmetry_equiv_pos_as_xyz
1 x,y,z
2 1/2-y,1/2+x,1/2+z
3 1/2+y,1/2-x,1/2+z
4 y,x,-z
5 -x,-y,z
6 1/2-x,1/2+y,1/2-z
7 1/2+x,1/2-y,1/2-z
8 -y,-x,-z
9 -x,-y,-z
10 1/2+y,1/2-x,1/2-z
11 1/2-y,1/2+x,1/2-z
12 -y,-x,z
13 x,y,-z
14 1/2+x,1/2-y,1/2+z
15 1/2-x,1/2+y,1/2+z
16 y,x,z
_cell_length_a                   7.0649(4)
_cell_length_b                   7.0649(4)
_cell_length_c                   19.775(2)
_cell_angle_alpha                90
_cell_angle_beta                 90
_cell_angle_gamma                90
_cell_volume                     987.026
loop_
_atom_site_label
_atom_site_type_symbol
_atom_site_fract_x
_atom_site_fract_y
_atom_site_fract_z
Zn1 Zn 0.0000 1.0000 0.27846(5)
C1 C 0.0000 1.0000 0.0376(4)
C2 C 0.1184(11) 1.1184(11) 0.0735(3)
H1 H 0.2002 1.2002 0.0510
C3 C 0.1133(12) 1.1133(12) 0.1440(3)
C4 C 0.2359(15) 1.2359(15) 0.1889(3)
N1 N 0.0000 1.0000 0.1764(4)
O1 O 0.3472(9) 1.3472(9) 0.1606(2)
O2 O 0.2151(8) 1.2151(8) 0.2507(2)
Zn1C Zn 0.0000 1.0000 -0.27846(5)
Zn1I Zn 0.5000 1.5000 0.22154(5)
Zn1A Zn 0.5000 1.5000 -0.22154(5)
Zn1A_2 Zn -0.5000 0.5000 -0.22154(5)
Zn1I_2 Zn -0.5000 0.5000 0.22154(5)
C1C C 0.0000 1.0000 -0.0376(4)
C2C C 0.1184(11) 1.1184(11) -0.0735(3)
C2H C -0.1184(11) 0.8816(11) -0.0735(3)
C2K C -0.1184(11) 0.8816(11) 0.0735(3)
H1C H 0.2002 1.2002 -0.0510
H1H H -0.2002 0.7998 -0.0510
H1K H -0.2002 0.7998 0.0510
C3C C 0.1133(12) 1.1133(12) -0.1440(3)
C3H C -0.1133(12) 0.8867(12) -0.1440(3)
C3K C -0.1133(12) 0.8867(12) 0.1440(3)
C4C C 0.2359(15) 1.2359(15) -0.1889(3)
C4H C -0.2359(15) 0.7641(15) -0.1889(3)
C4K C -0.2359(15) 0.7641(15) 0.1889(3)
N1C N 0.0000 1.0000 -0.1764(4)
O1C O 0.3472(9) 1.3472(9) -0.1606(2)
O1H O -0.3472(9) 0.6528(9) -0.1606(2)
O1K O -0.3472(9) 0.6528(9) 0.1606(2)
O1I O -0.1528(9) 1.1528(9) 0.3394(2)
O1J O 0.1528(9) 0.8472(9) 0.3394(2)
O1A O 0.1528(9) 0.8472(9) -0.3394(2)
O1B O -0.1528(9) 1.1528(9) -0.3394(2)
O2C O 0.2151(8) 1.2151(8) -0.2507(2)
O2H O -0.2151(8) 0.7849(8) -0.2507(2)
O2K O -0.2151(8) 0.7849(8) 0.2507(2)
loop_
_geom_bond_atom_site_label_1
_geom_bond_atom_site_label_2
_geom_bond_site_symmetry_1
_geom_bond_site_symmetry_2
Zn1 N1 1_555 1_555
C1 C2 1_555 1_555
C2 H1 1_555 1_555
C3 C2 1_555 1_555
C4 C3 1_555 1_555
N1 C3 1_555 1_555
O1 C4 1_555 1_555
O2 Zn1 1_555 1_555
Zn1C N1C 1_555 1_555
Zn1I O1 1_555 1_555
Zn1A O1C 1_555 1_555
Zn1A_2 O1H 1_555 1_555
Zn1I_2 O1K 1_555 1_555
C1C C1 1_555 1_555
C2C C1C 1_555 1_555
C2H C1C 1_555 1_555
C2K C1 1_555 1_555
H1C C2C 1_555 1_555
H1H C2H 1_555 1_555
H1K C2K 1_555 1_555
C3C C2C 1_555 1_555
C3H C2H 1_555 1_555
C3K N1 1_555 1_555
C4C C3C 1_555 1_555
C4H C3H 1_555 1_555
C4K C3K 1_555 1_555
N1C C3C 1_555 1_555
O1C C4C 1_555 1_555
O1H C4H 1_555 1_555
O1K C4K 1_555 1_555
O1I Zn1 1_555 1_555
O1J Zn1 1_555 1_555
O1A Zn1C 1_555 1_555
O1B Zn1C 1_555 1_555
O2C Zn1C 1_555 1_555
O2H Zn1C 1_555 1_555
O2K Zn1 1_555 1_555
C4 O2 1_555 1_555
C2K C3K 1_555 1_555
C3H N1C 1_555 1_555
C4C O2C 1_555 1_555
C4H O2H 1_555 1_555
C4K O2K 1_555 1_555

#END
