
#######################################################################
#
#                 Cambridge Crystallographic Data Centre
#                                CCDC 
#
#######################################################################
#
# If this CIF has been generated from an entry in the Cambridge 
# Structural Database, then it will include bibliographic, chemical, 
# crystal, experimental, refinement or atomic coordinate data resulting 
# from the CCDC's data processing and validation procedures.
#
#######################################################################

data_HIBGIJ
_symmetry_cell_setting           monoclinic
_symmetry_space_group_name_H-M   'P 21/n'
_symmetry_Int_Tables_number      14
_space_group_name_Hall           '-P 2yn'
loop_
_symmetry_equiv_pos_site_id
_symmetry_equiv_pos_as_xyz
1 x,y,z
2 1/2-x,1/2+y,1/2-z
3 -x,-y,-z
4 1/2+x,1/2-y,1/2+z
_cell_length_a                   11.624(1)
_cell_length_b                   10.165(1)
_cell_length_c                   14.738(1)
_cell_angle_alpha                90
_cell_angle_beta                 91.402(1)
_cell_angle_gamma                90
_cell_volume                     1740.89
loop_
_atom_site_label
_atom_site_type_symbol
_atom_site_fract_x
_atom_site_fract_y
_atom_site_fract_z
Mn1 Mn 0.25606(2) 0.08549(2) 0.131719(16)
Mn2 Mn 0.0000 0.0000 0.0000
Mn3 Mn 0.23845(2) -0.09925(2) 0.316410(17)
Mn4 Mn 0.5000 0.0000 0.0000
O1 O 0.12617(10) 0.00177(11) 0.22092(9)
O2 O 0.15316(10) 0.26400(11) 0.10558(8)
O3 O 0.30892(11) 0.20867(11) 0.24736(8)
O4 O 0.39947(10) 0.16327(11) 0.05725(9)
O5 O 0.35212(11) -0.07444(11) 0.19869(9)
O6 O 0.18570(10) -0.02826(12) 0.02191(8)
O7 O -0.04033(12) 0.00728(15) 0.14269(10)
O8 O 0.01873(12) 0.21162(13) 0.00009(9)
O9 O 0.39129(12) 0.38008(12) 0.08571(10)
O10 O 0.52089(12) -0.09571(14) 0.12989(10)
O11 O 0.34811(11) -0.11317(13) -0.03067(10)
O12 O 0.31282(12) 0.07675(12) 0.36981(9)
C1 C 0.01691(16) -0.00560(17) 0.21366(12)
H1 H -0.0239 -0.0224 0.2675
C2 C 0.07406(15) 0.29203(16) 0.04666(12)
H2 H 0.0563 0.3825 0.0380
C3 C 0.33061(15) 0.18332(15) 0.33072(12)
H3 H 0.3634 0.2521 0.3665
C4 C 0.43192(16) 0.28238(17) 0.04680(13)
H4 H 0.4923 0.2977 0.0058
C5 C 0.45362(16) -0.12014(18) 0.19153(13)
H5 H 0.4802 -0.1785 0.2379
C6 C 0.24256(16) -0.10503(17) -0.02940(13)
H6 H 0.1997 -0.1602 -0.0698
Mn1B Mn -0.25606(2) -0.08549(2) -0.131719(16)
Mn1A Mn 0.24394(2) -0.41451(2) 0.368281(16)
Mn1B_2 Mn 0.74394(2) -0.08549(2) -0.131719(16)
Mn3B Mn -0.23845(2) 0.09925(2) -0.316410(17)
Mn3A Mn 0.26155(2) 0.40075(2) 0.183590(17)
Mn3C Mn -0.26155(2) -0.40075(2) -0.183590(17)
Mn3A_2 Mn 0.26155(2) -0.59925(2) 0.183590(17)
Mn3B_2 Mn 0.76155(2) 0.09925(2) -0.316410(17)
Mn4_2 Mn -0.5000 0.0000 0.0000
Mn4C Mn 0.0000 -0.5000 0.5000
O1B O -0.12617(10) -0.00177(11) -0.22092(9)
O2B O -0.15316(10) -0.26400(11) -0.10558(8)
O2A O 0.34684(10) -0.23600(11) 0.39442(8)
O2C O -0.34684(10) 0.23600(11) -0.39442(8)
O3A O 0.19108(11) -0.29133(11) 0.25264(8)
O3B O -0.30892(11) -0.20867(11) -0.24736(8)
O3C O -0.19108(11) 0.29133(11) -0.25264(8)
O4A O 0.10053(10) -0.33673(11) 0.44275(9)
O4B O 0.60053(10) -0.16327(11) -0.05725(9)
O4B_2 O -0.39947(10) -0.16327(11) -0.05725(9)
O5B O 0.64788(11) 0.07444(11) -0.19869(9)
O5B_2 O -0.35212(11) 0.07444(11) -0.19869(9)
O6B O -0.18570(10) 0.02826(12) -0.02191(8)
O7B O 0.04033(12) -0.00728(15) -0.14269(10)
O8B O -0.01873(12) -0.21162(13) -0.00009(9)
O9A O 0.10871(12) -0.11992(12) 0.41429(10)
O9C O -0.10871(12) 0.11992(12) -0.41429(10)
O10B O 0.47911(12) 0.09571(14) -0.12989(10)
O11B O -0.34811(11) 0.11317(13) 0.03067(10)
O11B_2 O 0.65189(11) 0.11317(13) 0.03067(10)
O12A O 0.18718(12) -0.42325(12) 0.13019(9)
O12B O -0.31282(12) -0.07675(12) -0.36981(9)
C1B C -0.01691(16) 0.00560(17) -0.21366(12)
H1B H 0.0239 0.0224 -0.2675
C2B C -0.07406(15) -0.29203(16) -0.04666(12)
H2B H -0.0563 -0.3825 -0.0380
C3A C 0.16939(15) -0.31668(15) 0.16928(12)
H3A H 0.1366 -0.2479 0.1335
C4A C 0.06808(16) -0.21762(17) 0.45320(13)
H4A H 0.0077 -0.2023 0.4942
C5B C 0.54638(16) 0.12014(18) -0.19153(13)
H5B H 0.5198 0.1785 -0.2379
C6B C -0.24256(16) 0.10503(17) 0.02940(13)
H6B H -0.1997 0.1602 0.0698
C7 C 0.2329(7) -0.4446(8) -0.1015(6)
H7 H 0.2377 -0.4556 -0.0375
C8 C 0.2269(8) -0.4311(9) -0.1806(7)
H8 H 0.2221 -0.4201 -0.2446
C9 C 0.2729(9) -0.2833(9) -0.2887(7)
H9 H 0.2223 -0.3281 -0.3298
C10 C 0.3343(10) -0.2289(10) -0.2388(7)
H10 H 0.3849 -0.1840 -0.1977
loop_
_geom_bond_atom_site_label_1
_geom_bond_atom_site_label_2
_geom_bond_site_symmetry_1
_geom_bond_site_symmetry_2
Mn1 O1 1_555 1_555
Mn2 O6 1_555 1_555
Mn3 O1 1_555 1_555
Mn4 O4 1_555 1_555
O1 C1 1_555 1_555
O2 Mn1 1_555 1_555
O3 Mn1 1_555 1_555
O4 Mn1 1_555 1_555
O5 Mn1 1_555 1_555
O6 Mn1 1_555 1_555
O7 Mn2 1_555 1_555
O8 Mn2 1_555 1_555
O9 C4 1_555 1_555
O10 Mn4 1_555 1_555
O11 Mn4 1_555 1_555
O12 Mn3 1_555 1_555
C1 O7 1_555 1_555
H1 C1 1_555 1_555
C2 O2 1_555 1_555
H2 C2 1_555 1_555
C3 O3 1_555 1_555
H3 C3 1_555 1_555
C4 O4 1_555 1_555
H4 C4 1_555 1_555
C5 O5 1_555 1_555
H5 C5 1_555 1_555
C6 O6 1_555 1_555
H6 C6 1_555 1_555
C7 H7 1_555 1_555
C8 C7 1_555 1_555
H8 C8 1_555 1_555
C9 H9 1_555 1_555
C10 C9 1_555 1_555
H10 C10 1_555 1_555
Mn1B O1B 1_555 1_555
Mn1A O2A 1_555 1_555
Mn1B_2 O4B 1_555 1_555
Mn3B O1B 1_555 1_555
Mn3A O2 1_555 1_555
Mn3C O2B 1_555 1_555
Mn3A_2 O12A 1_555 1_555
Mn3B_2 O5B 1_555 1_555
Mn4_2 O4B_2 1_555 1_555
Mn4C O4A 1_555 1_555
O1B C1B 1_555 1_555
O2B Mn1B 1_555 1_555
O2A Mn3 1_555 1_555
O2C Mn3B 1_555 1_555
O3A Mn3 1_555 1_555
O3B Mn1B 1_555 1_555
O3C Mn3B 1_555 1_555
O4A Mn1A 1_555 1_555
O4B Mn4 1_555 1_555
O4B_2 Mn1B 1_555 1_555
O5B Mn1B_2 1_555 1_555
O5B_2 Mn1B 1_555 1_555
O6B Mn2 1_555 1_555
O7B Mn2 1_555 1_555
O8B Mn2 1_555 1_555
O9A Mn3 1_555 1_555
O9C Mn3B 1_555 1_555
O10B Mn4 1_555 1_555
O11B Mn4_2 1_555 1_555
O11B_2 Mn4 1_555 1_555
O12A C3A 1_555 1_555
O12B Mn3B 1_555 1_555
C1B O7B 1_555 1_555
H1B C1B 1_555 1_555
C2B O2B 1_555 1_555
H2B C2B 1_555 1_555
C3A O3A 1_555 1_555
H3A C3A 1_555 1_555
C4A O4A 1_555 1_555
H4A C4A 1_555 1_555
C5B O5B 1_555 1_555
H5B C5B 1_555 1_555
C6B O6B 1_555 1_555
H6B C6B 1_555 1_555
Mn3 O5 1_555 1_555
O3 Mn3A 1_555 1_555
O8 C2 1_555 1_555
O9 Mn3A 1_555 1_555
O10 C5 1_555 1_555
O11 C6 1_555 1_555
O12 C3 1_555 1_555
Mn1B O6B 1_555 1_555
Mn1A O3A 1_555 1_555
Mn3B O5B_2 1_555 1_555
Mn3C O3B 1_555 1_555
O8B C2B 1_555 1_555
O9A C4A 1_555 1_555
O10B C5B 1_555 1_555
O11B C6B 1_555 1_555

#END
