
#######################################################################
#
#                 Cambridge Crystallographic Data Centre
#                                CCDC 
#
#######################################################################
#
# If this CIF has been generated from an entry in the Cambridge 
# Structural Database, then it will include bibliographic, chemical, 
# crystal, experimental, refinement or atomic coordinate data resulting 
# from the CCDC's data processing and validation procedures.
#
#######################################################################

data_HICVOG
_symmetry_cell_setting           tetragonal
_symmetry_space_group_name_H-M   'P 43 21 2'
_symmetry_Int_Tables_number      96
_space_group_name_Hall           'P 4nw 2abw'
loop_
_symmetry_equiv_pos_site_id
_symmetry_equiv_pos_as_xyz
1 x,y,z
2 1/2-y,1/2+x,3/4+z
3 -x,-y,1/2+z
4 1/2+y,1/2-x,1/4+z
5 1/2+x,1/2-y,1/4-z
6 1/2-x,1/2+y,3/4-z
7 y,x,-z
8 -y,-x,1/2-z
_cell_length_a                   10.8140(13)
_cell_length_b                   10.8140(13)
_cell_length_c                   25.410(4)
_cell_angle_alpha                90
_cell_angle_beta                 90
_cell_angle_gamma                90
_cell_volume                     2971.51
loop_
_atom_site_label
_atom_site_type_symbol
_atom_site_fract_x
_atom_site_fract_y
_atom_site_fract_z
Zn1 Zn 0.54341(3) 0.54094(3) 0.079250(8)
O1 O 0.4628(2) 0.40525(19) 0.04012(8)
O2 O 0.1993(2) 0.0972(2) 0.13779(7)
O3 O 0.0336(2) 0.0330(2) 0.09791(7)
N1 N 0.8886(2) 0.8426(2) 0.15828(8)
N2 N 0.6881(3) 0.6931(3) 0.13179(9)
N3 N 0.6427(2) 0.6396(2) 0.02663(7)
N4 N 0.78039(19) 0.78039(19) 0.0000
C1 C 0.7171(4) 0.7166(4) 0.18163(11)
H1 H 0.6680 0.6840 0.2083
C2 C 0.8188(3) 0.7888(3) 0.19499(11)
H2 H 0.8386 0.7997 0.2303
C3 C 0.8591(3) 0.8206(3) 0.10840(10)
H3 H 0.9066 0.8553 0.0817
C4 C 0.7584(3) 0.7466(3) 0.09534(10)
C5 C 0.7282(3) 0.7224(3) 0.04066(10)
C6 C 0.3962(2) 0.3962(2) 0.0000
C7 C 0.2983(2) 0.2983(2) 0.0000
C8 C 0.2648(3) 0.2414(3) 0.04669(9)
H4 H 0.3042 0.2631 0.0779
C9 C 0.1727(2) 0.1520(2) 0.04707(9)
C10 C 0.1168(2) 0.1168(2) 0.0000
H5 H 0.0560 0.0560 0.0000
C11 C 0.1336(3) 0.0922(2) 0.09768(10)
O1F O 0.40525(19) 0.4628(2) -0.04012(8)
O2F O 0.0972(2) 0.1993(2) -0.13779(7)
O3F O 0.0330(2) 0.0336(2) -0.09791(7)
C8F C 0.2414(3) 0.2648(3) -0.04669(9)
H4F H 0.2631 0.3042 -0.0779
C9F C 0.1520(2) 0.1727(2) -0.04707(9)
C11F C 0.0922(2) 0.1336(3) -0.09768(10)
N1F N 0.8426(2) 0.8886(2) -0.15828(8)
N2F N 0.6931(3) 0.6881(3) -0.13179(9)
N3F N 0.6396(2) 0.6427(2) -0.02663(7)
C1F C 0.7166(4) 0.7171(4) -0.18163(11)
H1F H 0.6840 0.6680 -0.2083
C2F C 0.7888(3) 0.8188(3) -0.19499(11)
H2F H 0.7997 0.8386 -0.2303
C3F C 0.8206(3) 0.8591(3) -0.10840(10)
H3F H 0.8553 0.9066 -0.0817
C4F C 0.7466(3) 0.7584(3) -0.09534(10)
C5F C 0.7224(3) 0.7282(3) -0.04066(10)
Zn1F Zn 0.54094(3) 0.54341(3) -0.079250(8)
Zn1A Zn -0.04094(3) 0.04341(3) -0.170750(8)
Zn1A_2 Zn 0.95906(3) 1.04341(3) -0.170750(8)
Zn1D Zn 0.04341(3) -0.04094(3) 0.170750(8)
Zn1D_2 Zn 1.04341(3) 0.95906(3) 0.170750(8)
O2A O 0.4028(2) 0.6993(2) -0.11221(7)
O2D O 0.6993(2) 0.4028(2) 0.11221(7)
O3A O 0.4670(2) 0.5336(2) -0.15209(7)
O3D O 0.5336(2) 0.4670(2) 0.15209(7)
N1A N 0.6574(2) 0.3886(2) -0.09172(8)
N1D N 0.3886(2) 0.6574(2) 0.09172(8)
O4 O -0.1818(6) 0.1796(7) 0.05811(19)
H6 H -0.2162 0.2411 0.0729
H7 H -0.1210 0.1383 0.0700
loop_
_geom_bond_atom_site_label_1
_geom_bond_atom_site_label_2
_geom_bond_site_symmetry_1
_geom_bond_site_symmetry_2
Zn1 O1 1_555 1_555
O1 C6 1_555 1_555
O2 C11 1_555 1_555
O3 C11 1_555 1_555
N1 C2 1_555 1_555
N2 C1 1_555 1_555
N3 Zn1 1_555 1_555
N4 C5 1_555 1_555
C1 H1 1_555 1_555
C2 C1 1_555 1_555
H2 C2 1_555 1_555
C3 N1 1_555 1_555
H3 C3 1_555 1_555
C4 N2 1_555 1_555
C5 N3 1_555 1_555
C6 C7 1_555 1_555
C7 C8 1_555 1_555
C8 H4 1_555 1_555
C9 C8 1_555 1_555
C10 C9 1_555 1_555
H5 C10 1_555 1_555
C11 C9 1_555 1_555
O4 H6 1_555 1_555
H7 O4 1_555 1_555
O1F C6 1_555 1_555
O2F C11F 1_555 1_555
O3F C11F 1_555 1_555
C8F C7 1_555 1_555
H4F C8F 1_555 1_555
C9F C10 1_555 1_555
C11F C9F 1_555 1_555
N1F C2F 1_555 1_555
N2F C1F 1_555 1_555
N3F N3 1_555 1_555
C1F H1F 1_555 1_555
C2F C1F 1_555 1_555
H2F C2F 1_555 1_555
C3F N1F 1_555 1_555
H3F C3F 1_555 1_555
C4F N2F 1_555 1_555
C5F N4 1_555 1_555
Zn1F O1F 1_555 1_555
Zn1A O2F 1_555 1_555
Zn1A_2 N1F 1_555 1_555
Zn1D O2 1_555 1_555
Zn1D_2 N1 1_555 1_555
O2A Zn1F 1_555 1_555
O2D Zn1 1_555 1_555
O3A Zn1F 1_555 1_555
O3D Zn1 1_555 1_555
N1A Zn1F 1_555 1_555
N1D Zn1 1_555 1_555
O3 Zn1D 1_555 1_555
C3 C4 1_555 1_555
C4 C5 1_555 1_555
O3F Zn1A 1_555 1_555
C8F C9F 1_555 1_555
N3F C5F 1_555 1_555
N3F Zn1F 1_555 1_555
C3F C4F 1_555 1_555
C4F C5F 1_555 1_555

#END
