
#######################################################################
#
#                 Cambridge Crystallographic Data Centre
#                                CCDC 
#
#######################################################################
#
# If this CIF has been generated from an entry in the Cambridge 
# Structural Database, then it will include bibliographic, chemical, 
# crystal, experimental, refinement or atomic coordinate data resulting 
# from the CCDC's data processing and validation procedures.
#
#######################################################################

data_HIFTOG01
_symmetry_cell_setting           rhombohedral
_symmetry_space_group_name_H-M   'R -3 m'
_symmetry_Int_Tables_number      166
_space_group_name_Hall           '-R 3 2"'
loop_
_symmetry_equiv_pos_site_id
_symmetry_equiv_pos_as_xyz
1 x,y,z
2 -y,x-y,z
3 -x+y,-x,z
4 y,x,-z
5 2/3+x,1/3+y,1/3+z
6 2/3-y,1/3+x-y,1/3+z
7 2/3-x+y,1/3-x,1/3+z
8 2/3+y,1/3+x,1/3-z
9 1/3+x,2/3+y,2/3+z
10 1/3+y,2/3+x,2/3-z
11 x-y,-y,-z
12 -x,-x+y,-z
13 1/3-y,2/3+x-y,2/3+z
14 1/3-x+y,2/3-x,2/3+z
15 1/3+x-y,2/3-y,2/3-z
16 1/3-x,2/3-x+y,2/3-z
17 2/3+x-y,1/3-y,1/3-z
18 2/3-x,1/3-x+y,1/3-z
19 -x,-y,-z
20 y,-x+y,-z
21 x-y,x,-z
22 -y,-x,z
23 1/3-x,2/3-y,2/3-z
24 1/3+y,2/3-x+y,2/3-z
25 1/3+x-y,2/3+x,2/3-z
26 1/3-y,2/3-x,2/3+z
27 2/3-x,1/3-y,1/3-z
28 2/3-y,1/3-x,1/3+z
29 -x+y,y,z
30 x,x-y,z
31 2/3+y,1/3-x+y,1/3-z
32 2/3+x-y,1/3+x,1/3-z
33 2/3-x+y,1/3+y,1/3+z
34 2/3+x,1/3+x-y,1/3+z
35 1/3-x+y,2/3+y,2/3+z
36 1/3+x,2/3+x-y,2/3+z
_cell_length_a                   18.406(3)
_cell_length_b                   18.406(3)
_cell_length_c                   44.750(9)
_cell_angle_alpha                90
_cell_angle_beta                 90
_cell_angle_gamma                120
_cell_volume                     13129.3
loop_
_atom_site_label
_atom_site_type_symbol
_atom_site_fract_x
_atom_site_fract_y
_atom_site_fract_z
O1 O 0.6667 0.3333 0.0818(3)
Zn1 Zn 0.72425(5) 0.27575(5) 0.06898(3)
Zn2 Zn 0.6667 0.3333 0.12724(6)
O2 O 0.7227(4) 0.2773(4) 0.1432(2)
O3 O 0.7648(3) 0.2352(3) 0.1014(3)
O4 O 0.8194(5) 0.3465(5) 0.04531(19)
C1 C 0.7596(5) 0.2404(5) 0.1291(4)
C2 C 0.7967(5) 0.2033(5) 0.1494(4)
C3 C 0.8353(6) 0.1647(6) 0.1353(4)
H1 H 0.8366 0.1634 0.1146
C4 C 0.7936(6) 0.2064(6) 0.1812(5)
H2 H 0.7676 0.2324 0.1907
C5 C 0.8518(11) 0.4259(5) 0.0365(4)
C6 C 0.9217(11) 0.4609(6) 0.0184(4)
C7 C 0.9628(7) 0.5482(8) 0.0095(3)
H3 H 0.9412 0.5815 0.0162
Zn1B Zn 0.55150(7) 0.27575(5) 0.06898(3)
Zn1A Zn 0.72425(5) 0.44850(7) 0.06898(3)
Zn1G Zn 0.94242(5) 0.05758(5) 0.26435(3)
Zn1S Zn 1.27575(5) 0.55150(7) -0.06898(3)
Zn1C Zn 1.27575(5) 0.72425(5) -0.06898(3)
Zn1T Zn 0.44850(7) -0.27575(5) -0.06898(3)
Zn1C_2 Zn 0.27575(5) -0.27575(5) -0.06898(3)
Zn2G Zn 1.0000 0.0000 0.20609(6)
O2G O 0.9440(4) 0.0560(4) 0.1901(2)
O2A O 0.7227(4) 0.4454(6) 0.1432(2)
O2B O 0.5546(6) 0.2773(4) 0.1432(2)
O3G O 0.9019(3) 0.0981(3) 0.2319(3)
O3A O 0.7648(3) 0.5296(4) 0.1014(3)
O3B O 0.4704(4) 0.2352(3) 0.1014(3)
O4CA O 0.8194(5) 0.4729(7) 0.04531(19)
O4K O 1.1806(5) 0.5271(7) -0.04531(19)
O4R O 1.1806(5) 0.6535(5) -0.04531(19)
O4U O 0.6535(5) 0.1806(5) 0.04531(19)
O4B O 0.5271(7) 0.1806(5) 0.04531(19)
O4T O 0.4729(7) -0.1806(5) -0.04531(19)
O4C O 0.3465(5) -0.1806(5) -0.04531(19)
O4BA O 0.5271(7) 0.3465(5) 0.04531(19)
O4A O 0.6535(5) 0.4729(7) 0.04531(19)
C1G C 0.9071(5) 0.0929(5) 0.2042(4)
C2G C 0.8700(5) 0.1300(5) 0.1839(4)
C3G C 0.8314(6) 0.1686(6) 0.1980(4)
H1G H 0.8301 0.1699 0.2187
C4G C 0.8731(6) 0.1269(6) 0.1521(5)
H2G H 0.8991 0.1009 0.1426
C5R C 1.1482(11) 0.5741(5) -0.0365(4)
C5B C 0.5741(12) 0.1482(11) 0.0365(4)
C5C C 0.4259(5) -0.1482(11) -0.0365(4)
C6K C 1.0783(11) 0.5392(13) -0.0184(4)
C6U C 0.5391(6) 0.0783(11) 0.0184(4)
C6T C 0.4608(13) -0.0783(11) -0.0184(4)
C7K C 1.0372(7) 0.5854(11) -0.0095(3)
C7R C 1.0372(7) 0.4518(8) -0.0095(3)
C7CA C 0.9628(7) 0.4146(11) 0.0095(3)
C7U C 0.4518(8) 0.0372(7) 0.0095(3)
C7T C 0.4146(11) -0.0372(7) -0.0095(3)
C7C C 0.5482(8) -0.0372(7) -0.0095(3)
C7B C 0.5854(11) 0.0372(7) 0.0095(3)
H3CA H 0.9412 0.3597 0.0162
H3R H 1.0588 0.4185 -0.0162
H3K H 1.0588 0.6403 -0.0162
H3U H 0.4185 0.0588 0.0162
H3B H 0.6403 0.0588 0.0162
H3C H 0.5815 -0.0588 -0.0162
H3T H 0.3597 -0.0588 -0.0162
loop_
_geom_bond_atom_site_label_1
_geom_bond_atom_site_label_2
_geom_bond_site_symmetry_1
_geom_bond_site_symmetry_2
O1 Zn1 1_555 1_555
Zn1 O3 1_555 1_555
Zn2 O1 1_555 1_555
O2 Zn2 1_555 1_555
O3 C1 1_555 1_555
O4 Zn1 1_555 1_555
C1 O2 1_555 1_555
C2 C1 1_555 1_555
C3 C2 1_555 1_555
H1 C3 1_555 1_555
C4 C2 1_555 1_555
H2 C4 1_555 1_555
C5 O4 1_555 1_555
C6 C5 1_555 1_555
C7 C6 1_555 1_555
H3 C7 1_555 1_555
Zn1B O1 1_555 1_555
Zn1A O1 1_555 1_555
Zn1G O3G 1_555 1_555
Zn1S O4K 1_555 1_555
Zn1C O4R 1_555 1_555
Zn1T O4T 1_555 1_555
Zn1C_2 O4C 1_555 1_555
Zn2G O2G 1_555 1_555
O2G C1G 1_555 1_555
O2A Zn2 1_555 1_555
O2B Zn2 1_555 1_555
O3G C1G 1_555 1_555
O3A Zn1A 1_555 1_555
O3B Zn1B 1_555 1_555
O4CA C5 1_555 1_555
O4K C5R 1_555 1_555
O4R C5R 1_555 1_555
O4U Zn1 1_555 1_555
O4B Zn1B 1_555 1_555
O4T C5C 1_555 1_555
O4C C5C 1_555 1_555
O4BA Zn1B 1_555 1_555
O4A Zn1A 1_555 1_555
C1G C2G 1_555 1_555
C2G C3G 1_555 1_555
C3G C4 1_555 1_555
H1G C3G 1_555 1_555
C4G C3 1_555 1_555
H2G C4G 1_555 1_555
C5R C6K 1_555 1_555
C5B O4U 1_555 1_555
C5C C6T 1_555 1_555
C6K C7K 1_555 1_555
C6U C5B 1_555 1_555
C6T C7T 1_555 1_555
C7K C7 1_555 1_555
C7R C6K 1_555 1_555
C7CA C6 1_555 1_555
C7U C6U 1_555 1_555
C7T C7U 1_555 1_555
C7C C6T 1_555 1_555
C7B C6U 1_555 1_555
H3CA C7CA 1_555 1_555
H3R C7R 1_555 1_555
H3K C7K 1_555 1_555
H3U C7U 1_555 1_555
H3B C7B 1_555 1_555
H3C C7C 1_555 1_555
H3T C7T 1_555 1_555
Zn1A O4CA 1_555 1_555
O4B C5B 1_555 1_555
C2G C4G 1_555 1_555
C7R C7CA 1_555 1_555
C7C C7B 1_555 1_555

#END
