
#######################################################################
#
#                 Cambridge Crystallographic Data Centre
#                                CCDC 
#
#######################################################################
#
# If this CIF has been generated from an entry in the Cambridge 
# Structural Database, then it will include bibliographic, chemical, 
# crystal, experimental, refinement or atomic coordinate data resulting 
# from the CCDC's data processing and validation procedures.
#
#######################################################################

data_HIFTOG
_symmetry_cell_setting           rhombohedral
_symmetry_space_group_name_H-M   'R -3 m'
_symmetry_Int_Tables_number      166
_space_group_name_Hall           '-R 3 2"'
loop_
_symmetry_equiv_pos_site_id
_symmetry_equiv_pos_as_xyz
1 x,y,z
2 -y,x-y,z
3 -x+y,-x,z
4 y,x,-z
5 2/3+x,1/3+y,1/3+z
6 2/3-y,1/3+x-y,1/3+z
7 2/3-x+y,1/3-x,1/3+z
8 2/3+y,1/3+x,1/3-z
9 1/3+x,2/3+y,2/3+z
10 1/3+y,2/3+x,2/3-z
11 x-y,-y,-z
12 -x,-x+y,-z
13 1/3-y,2/3+x-y,2/3+z
14 1/3-x+y,2/3-x,2/3+z
15 1/3+x-y,2/3-y,2/3-z
16 1/3-x,2/3-x+y,2/3-z
17 2/3+x-y,1/3-y,1/3-z
18 2/3-x,1/3-x+y,1/3-z
19 -x,-y,-z
20 y,-x+y,-z
21 x-y,x,-z
22 -y,-x,z
23 1/3-x,2/3-y,2/3-z
24 1/3+y,2/3-x+y,2/3-z
25 1/3+x-y,2/3+x,2/3-z
26 1/3-y,2/3-x,2/3+z
27 2/3-x,1/3-y,1/3-z
28 2/3-y,1/3-x,1/3+z
29 -x+y,y,z
30 x,x-y,z
31 2/3+y,1/3-x+y,1/3-z
32 2/3+x-y,1/3+x,1/3-z
33 2/3-x+y,1/3+y,1/3+z
34 2/3+x,1/3+x-y,1/3+z
35 1/3-x+y,2/3+y,2/3+z
36 1/3+x,2/3+x-y,2/3+z
_cell_length_a                   18.382(12)
_cell_length_b                   18.382(12)
_cell_length_c                   44.97(2)
_cell_angle_alpha                90
_cell_angle_beta                 90
_cell_angle_gamma                120
_cell_volume                     13159.5
loop_
_atom_site_label
_atom_site_type_symbol
_atom_site_fract_x
_atom_site_fract_y
_atom_site_fract_z
Zn1 Zn 0.391254(18) 0.608746(18) -0.001728(14)
Zn2 Zn 0.3333 0.6667 0.05656(2)
O1 O 0.3333 0.6667 0.01299(13)
O2 O 0.43107(15) 0.56893(15) 0.03117(10)
O3 O 0.39074(15) 0.60926(15) 0.07175(11)
O4 O 0.4877(2) 0.6830(2) -0.02601(9)
C1 C 0.8161(2) 0.9081(4) -0.10780(16)
C2 C 0.7392(2) 0.8697(4) -0.08839(17)
C3 C 0.7036(4) 0.9167(4) -0.07901(17)
H1 H 0.7277 0.9727 -0.0846
C4 C 0.6321(4) 0.8807(4) -0.06125(16)
H2 H 0.6089 0.9131 -0.0551
C5 C 0.5950(2) 0.7975(4) -0.05258(17)
C6 C 0.51733(19) 0.7587(4) -0.03316(14)
Zn3 Zn 0.6667 0.3333 0.13579(2)
Zn4 Zn 0.608688(18) 0.391312(18) 0.193907(14)
O5 O 0.6667 0.3333 0.17900(13)
O6 O 0.60932(13) 0.39068(13) 0.12049(10)
O7 O 0.56907(14) 0.43093(14) 0.16096(9)
O8 O 0.8453(2) 0.9831(2) -0.11505(9)
C7 C 0.57484(18) 0.42516(18) 0.13335(14)
C8 C 0.53576(19) 0.46424(19) 0.11411(13)
C9 C 0.5392(2) 0.4608(2) 0.08377(14)
H3 H 0.5656 0.4344 0.0750
C10 C 0.5036(2) 0.4964(2) 0.06584(14)
H4 H 0.5067 0.4933 0.0453
C11 C 0.4964(2) 0.5036(2) 0.12660(17)
H5 H 0.4936 0.5064 0.1472
C12 C 0.4607(3) 0.5393(3) 0.10882(17)
H6 H 0.4342 0.5658 0.1176
C13 C 0.46429(19) 0.53571(19) 0.07789(14)
C14 C 0.42552(19) 0.57448(19) 0.05892(14)
Zn1B Zn 0.217492(25) 0.608746(18) -0.001728(14)
Zn1A Zn 0.391254(18) 0.782508(25) -0.001728(14)
Zn1D Zn 0.057921(18) -0.057921(18) 0.331605(14)
Zn1E Zn 0.057921(18) 0.115841(25) 0.331605(14)
O2A O 0.43107(15) 0.86214(21) 0.03117(10)
O2B O 0.13786(21) 0.56893(15) 0.03117(10)
O3A O 0.39074(15) 0.78148(21) 0.07175(11)
O3B O 0.21852(21) 0.60926(15) 0.07175(11)
O4CA O 0.4877(2) 0.8047(3) -0.02601(9)
O4U O 0.3170(2) 0.5123(2) -0.02601(9)
O4B O 0.1953(3) 0.5123(2) -0.02601(9)
O4D O 0.1544(2) 0.0163(2) 0.30732(9)
O4GA O 0.1544(2) 0.1380(3) 0.30732(9)
O4BA O 0.1953(3) 0.6830(2) -0.02601(9)
O4A O 0.3170(2) 0.8047(3) -0.02601(9)
C1U C 0.0919(4) 0.1839(2) -0.10780(16)
C1D C 0.4828(2) 0.2414(4) 0.22553(16)
C2U C 0.1303(4) 0.2608(2) -0.08839(17)
C2D C 0.4059(2) 0.2030(4) 0.24494(17)
C3CA C 0.7036(4) 0.7869(6) -0.07901(17)
C3U C 0.0833(4) 0.2964(4) -0.07901(17)
C3B C 0.2131(6) 0.2964(4) -0.07901(17)
C3D C 0.3703(4) 0.2500(4) 0.25432(17)
C3GA C 0.3703(4) 0.1202(6) 0.25432(17)
H1CA H 0.7277 0.7550 -0.0846
H1U H 0.0273 0.2723 -0.0846
H1B H 0.2450 0.2723 -0.0846
H1D H 0.3944 0.3060 0.2487
H1GA H 0.3944 0.0883 0.2487
C4CA C 0.6321(4) 0.7514(6) -0.06125(16)
C4U C 0.1193(4) 0.3679(4) -0.06125(16)
C4B C 0.2486(6) 0.3679(4) -0.06125(16)
C4D C 0.2988(4) 0.2140(4) 0.27208(16)
C4GA C 0.2988(4) 0.0847(6) 0.27208(16)
H2CA H 0.6089 0.6958 -0.0551
H2U H 0.0869 0.3911 -0.0551
H2B H 0.3042 0.3911 -0.0551
H2D H 0.2756 0.2464 0.2782
H2GA H 0.2756 0.0291 0.2782
C5B C 0.2025(4) 0.4050(2) -0.05258(17)
C5D C 0.2617(2) 0.1308(4) 0.28075(17)
C6U C 0.2413(4) 0.48267(19) -0.03316(14)
C6D C 0.18400(19) 0.0920(4) 0.30017(14)
Zn3_2 Zn 0.6667 1.3333 0.13579(2)
Zn3_3 Zn -0.3333 0.3333 0.13579(2)
Zn4A Zn 0.608688(18) 1.217376(25) 0.193907(14)
Zn4B Zn -0.217376(25) 0.391312(18) 0.193907(14)
Zn4A_2 Zn 0.608688(18) 0.217376(25) 0.193907(14)
Zn4B_2 Zn 0.782624(25) 0.391312(18) 0.193907(14)
Zn4H Zn 0.942021(18) 1.057979(18) -0.139426(14)
Zn4IA Zn 0.942021(18) 0.884043(25) -0.139426(14)
Zn4H_2 Zn -0.057979(18) 0.057979(18) -0.139426(14)
Zn4HA Zn 0.115957(25) 0.057979(18) -0.139426(14)
O5_2 O 0.6667 1.3333 0.17900(13)
O5_3 O -0.3333 0.3333 0.17900(13)
O6A O 0.60932(13) 1.21864(18) 0.12049(10)
O6B O -0.21864(18) 0.39068(13) 0.12049(10)
O6A_2 O 0.60932(13) 0.21864(18) 0.12049(10)
O6B_2 O 0.78136(18) 0.39068(13) 0.12049(10)
O7A O 0.56907(14) 1.13814(20) 0.16096(9)
O7B O -0.13814(20) 0.43093(14) 0.16096(9)
O8CA O 0.8453(2) 0.8622(3) -0.11505(9)
O8U O 0.0169(2) 0.1547(2) -0.11505(9)
O8B O 0.1378(3) 0.1547(2) -0.11505(9)
O8D O 0.5120(2) 0.3164(2) 0.21828(9)
O8GA O 0.5120(2) 0.1955(3) 0.21828(9)
O8AA O 0.6836(2) 0.4880(2) 0.21828(9)
O8E O 0.6836(2) 1.1955(3) 0.21828(9)
O8GA_2 O 0.5120(2) 1.1955(3) 0.21828(9)
O8F O -0.1955(3) 0.4880(2) 0.21828(9)
O8FA O -0.1955(3) 0.3164(2) 0.21828(9)
C7A C 0.57484(18) 1.14968(25) 0.13335(14)
C7B C -0.14968(25) 0.42516(18) 0.13335(14)
C8A C 0.53576(19) 1.07152(27) 0.11411(13)
C8B C -0.07152(27) 0.46424(19) 0.11411(13)
C9A C 0.5392(2) 1.0784(3) 0.08377(14)
C9B C -0.0784(3) 0.4608(2) 0.08377(14)
H3A H 0.5656 1.1312 0.0750
H3B H -0.1312 0.4344 0.0750
C10A C 0.5036(2) 1.0072(3) 0.06584(14)
C10B C -0.0072(3) 0.4964(2) 0.06584(14)
H4A H 0.5067 1.0134 0.0453
H4B H -0.0134 0.4933 0.0453
C11A C 0.4964(2) 0.9928(3) 0.12660(17)
C11B C 0.0072(3) 0.5036(2) 0.12660(17)
H5A H 0.4936 0.9872 0.1472
H5B H 0.0128 0.5064 0.1472
C12A C 0.4607(3) 0.9214(4) 0.10882(17)
C12B C 0.0786(4) 0.5393(3) 0.10882(17)
H6A H 0.4342 0.8684 0.1176
H6B H 0.1316 0.5658 0.1176
C13A C 0.46429(19) 0.92858(27) 0.07789(14)
C13B C 0.07142(27) 0.53571(19) 0.07789(14)
C14A C 0.42552(19) 0.85104(27) 0.05892(14)
C14B C 0.14896(27) 0.57448(19) 0.05892(14)
loop_
_geom_bond_atom_site_label_1
_geom_bond_atom_site_label_2
_geom_bond_site_symmetry_1
_geom_bond_site_symmetry_2
Zn1 O1 1_555 1_555
Zn2 O1 1_555 1_555
O1 Zn1B 1_555 1_555
O2 Zn1 1_555 1_555
O3 Zn2 1_555 1_555
O4 Zn1 1_555 1_555
C1 C2 1_555 1_555
C2 C3 1_555 1_555
C3 H1 1_555 1_555
C4 C3 1_555 1_555
H2 C4 1_555 1_555
C5 C4 1_555 1_555
C6 O4 1_555 1_555
Zn3 O5 1_555 1_555
Zn4 O5 1_555 1_555
O5 Zn4A_2 1_555 1_555
O6 Zn3 1_555 1_555
O7 Zn4 1_555 1_555
O8 C1 1_555 1_555
C7 O6 1_555 1_555
C8 C7 1_555 1_555
C9 C8 1_555 1_555
H3 C9 1_555 1_555
C10 C9 1_555 1_555
H4 C10 1_555 1_555
C11 C8 1_555 1_555
H5 C11 1_555 1_555
C12 C11 1_555 1_555
H6 C12 1_555 1_555
C13 C10 1_555 1_555
C14 O2 1_555 1_555
Zn1B O2B 1_555 1_555
Zn1A O1 1_555 1_555
Zn1D O4D 1_555 1_555
Zn1E O4GA 1_555 1_555
O2A Zn1A 1_555 1_555
O2B C14B 1_555 1_555
O3A Zn2 1_555 1_555
O3B Zn2 1_555 1_555
O4CA C6 1_555 1_555
O4U Zn1 1_555 1_555
O4B Zn1B 1_555 1_555
O4D C6D 1_555 1_555
O4GA C6D 1_555 1_555
O4BA Zn1B 1_555 1_555
O4A Zn1A 1_555 1_555
C1U C2U 1_555 1_555
C1D C2D 1_555 1_555
C2U C3U 1_555 1_555
C2D C3D 1_555 1_555
C3CA C2 1_555 1_555
C3U H1U 1_555 1_555
C3B C2U 1_555 1_555
C3D H1D 1_555 1_555
C3GA C2D 1_555 1_555
H1CA C3CA 1_555 1_555
H1B C3B 1_555 1_555
H1GA C3GA 1_555 1_555
C4CA C5 1_555 1_555
C4U C3U 1_555 1_555
C4B C3B 1_555 1_555
C4D C3D 1_555 1_555
C4GA C3GA 1_555 1_555
H2CA C4CA 1_555 1_555
H2U C4U 1_555 1_555
H2B C4B 1_555 1_555
H2D C4D 1_555 1_555
H2GA C4GA 1_555 1_555
C5B C4U 1_555 1_555
C5D C4D 1_555 1_555
C6U O4U 1_555 1_555
C6D C5D 1_555 1_555
Zn3_2 O5_2 1_555 1_555
Zn3_3 O5_3 1_555 1_555
Zn4A O5_2 1_555 1_555
Zn4B O5_3 1_555 1_555
Zn4A_2 O8GA 1_555 1_555
Zn4B_2 O5 1_555 1_555
Zn4H O8 1_555 1_555
Zn4IA O8CA 1_555 1_555
Zn4H_2 O8U 1_555 1_555
Zn4HA O8B 1_555 1_555
O6A Zn3_2 1_555 1_555
O6B Zn3_3 1_555 1_555
O6A_2 Zn3 1_555 1_555
O6B_2 Zn3 1_555 1_555
O7A Zn4A 1_555 1_555
O7B Zn4B 1_555 1_555
O8CA C1 1_555 1_555
O8U C1U 1_555 1_555
O8B C1U 1_555 1_555
O8D Zn4 1_555 1_555
O8GA C1D 1_555 1_555
O8AA Zn4 1_555 1_555
O8E Zn4A 1_555 1_555
O8GA_2 Zn4A 1_555 1_555
O8F Zn4B 1_555 1_555
O8FA Zn4B 1_555 1_555
C7A O6A 1_555 1_555
C7B O6B 1_555 1_555
C8A C7A 1_555 1_555
C8B C7B 1_555 1_555
C9A C8A 1_555 1_555
C9B C8B 1_555 1_555
H3A C9A 1_555 1_555
H3B C9B 1_555 1_555
C10A C9A 1_555 1_555
C10B C9B 1_555 1_555
H4A C10A 1_555 1_555
H4B C10B 1_555 1_555
C11A C8A 1_555 1_555
C11B C8B 1_555 1_555
H5A C11A 1_555 1_555
H5B C11B 1_555 1_555
C12A C11A 1_555 1_555
C12B C11B 1_555 1_555
H6A C12A 1_555 1_555
H6B C12B 1_555 1_555
C13A C10A 1_555 1_555
C13B C10B 1_555 1_555
C14A O2A 1_555 1_555
C14B O3B 1_555 1_555
O3 C14 1_555 1_555
C5 C6 1_555 1_555
O7 C7 1_555 1_555
C12 C13 1_555 1_555
C13 C14 1_555 1_555
Zn1A O4CA 1_555 1_555
O3A C14A 1_555 1_555
O4B C6U 1_555 1_555
C1D O8D 1_555 1_555
C3CA C4CA 1_555 1_555
C4B C5B 1_555 1_555
C4GA C5D 1_555 1_555
C5B C6U 1_555 1_555
O7A C7A 1_555 1_555
O7B C7B 1_555 1_555
C12A C13A 1_555 1_555
C12B C13B 1_555 1_555
C13A C14A 1_555 1_555
C13B C14B 1_555 1_555

#END
