
#######################################################################
#
#                 Cambridge Crystallographic Data Centre
#                                CCDC 
#
#######################################################################
#
# If this CIF has been generated from an entry in the Cambridge 
# Structural Database, then it will include bibliographic, chemical, 
# crystal, experimental, refinement or atomic coordinate data resulting 
# from the CCDC's data processing and validation procedures.
#
#######################################################################

data_HIFWAV
_symmetry_cell_setting           monoclinic
_symmetry_space_group_name_H-M   'P 21/n'
_symmetry_Int_Tables_number      14
_space_group_name_Hall           '-P 2yn'
loop_
_symmetry_equiv_pos_site_id
_symmetry_equiv_pos_as_xyz
1 x,y,z
2 1/2-x,1/2+y,1/2-z
3 -x,-y,-z
4 1/2+x,1/2-y,1/2+z
_cell_length_a                   24.359(5)
_cell_length_b                   9.6097(19)
_cell_length_c                   24.804(5)
_cell_angle_alpha                90
_cell_angle_beta                 91.774(4)
_cell_angle_gamma                90
_cell_volume                     5803.4
loop_
_atom_site_label
_atom_site_type_symbol
_atom_site_fract_x
_atom_site_fract_y
_atom_site_fract_z
Zn1 Zn -0.23263(4) 0.03285(11) 0.68206(4)
Zn2 Zn -0.01286(4) 0.25880(12) 0.72411(4)
Zn3 Zn -0.03213(4) 0.76364(11) 0.86253(4)
Zn4 Zn -0.34098(4) -0.32800(12) 0.51774(4)
Zn5 Zn -0.21659(4) -0.44020(12) 0.31609(5)
N1 N -0.2168(3) -0.1497(8) 0.7183(3)
N2 N -0.2293(3) -0.3396(8) 0.7675(3)
N3 N -0.1636(3) 0.1287(9) 0.6640(3)
N4 N -0.0798(3) 0.2155(9) 0.6785(3)
N5 N -0.0376(3) 0.3925(8) 0.7798(3)
N6 N -0.0470(3) 0.5791(8) 0.8305(3)
N7 N 0.0088(3) 0.0800(8) 0.7605(3)
N8 N 0.0026(3) -0.1083(8) 0.8111(3)
N9 N -0.3998(3) -0.6366(8) 0.6166(3)
N10 N -0.3529(3) -0.4732(8) 0.5742(3)
N11 N -0.4856(3) -0.2486(8) 0.4296(3)
N12 N -0.4143(3) -0.2746(8) 0.4861(3)
N13 N -0.3123(3) -0.1543(8) 0.5521(3)
N14 N -0.2740(3) -0.0130(8) 0.6143(3)
N15 N -0.2939(3) -0.4125(8) 0.4628(3)
N16 N -0.2481(3) -0.4566(9) 0.3884(3)
N17 N -0.2595(3) -0.3067(8) 0.2717(3)
N18 N -0.2833(3) -0.1236(8) 0.2215(3)
N19 N 0.1386(3) 0.3792(9) 0.6715(3)
N20 N 0.0523(3) 0.3237(8) 0.6849(3)
C1 C -0.2478(4) -0.2155(10) 0.7522(4)
H1 H -0.2803 -0.1781 0.7645
C2 C -0.1749(4) -0.2374(12) 0.7116(4)
H2 H -0.1452 -0.2204 0.6899
C3 C -0.1818(4) -0.3521(11) 0.7404(4)
H3 H -0.1582 -0.4282 0.7419
C4 C -0.1187(4) 0.1303(11) 0.6925(4)
H4 H -0.1140 0.0723 0.7223
C5 C -0.1547(6) 0.2265(18) 0.6291(6)
H5 H -0.1799 0.2574 0.6028
C6 C -0.1032(6) 0.2760(18) 0.6368(6)
H6 H -0.0868 0.3432 0.6156
C7 C -0.0216(4) 0.5195(10) 0.7910(4)
H7 H 0.0059 0.5641 0.7722
C8 C -0.0784(4) 0.3704(11) 0.8166(4)
H8 H -0.0990 0.2896 0.8197
C9 C -0.0831(4) 0.4844(11) 0.8470(4)
H9 H -0.1074 0.4960 0.8748
C10 C -0.0191(4) 0.0117(10) 0.7967(4)
H10 H -0.0514 0.0455 0.8108
C11 C 0.0492(4) -0.1176(12) 0.7834(4)
H11 H 0.0745 -0.1902 0.7855
C12 C 0.0529(4) -0.0044(12) 0.7522(5)
H12 H 0.0810 0.0139 0.7287
C13 C -0.3993(4) -0.5472(11) 0.5764(4)
H13 H -0.4285 -0.5365 0.5518
C14 C -0.3235(4) -0.5234(11) 0.6180(4)
H14 H -0.2884 -0.4933 0.6283
C15 C -0.3511(4) -0.6199(10) 0.6437(4)
H15 H -0.3392 -0.6674 0.6746
C16 C -0.4359(4) -0.3021(9) 0.4381(4)
H16 H -0.4179 -0.3543 0.4124
C17 C -0.4959(4) -0.1818(12) 0.4763(5)
H17 H -0.5280 -0.1336 0.4833
C18 C -0.4532(4) -0.1951(12) 0.5108(4)
H18 H -0.4502 -0.1576 0.5454
C19 C -0.2875(4) -0.1428(10) 0.6004(4)
H19 H -0.2803 -0.2189 0.6227
C20 C -0.3170(4) -0.0211(11) 0.5344(4)
H20 H -0.3336 0.0070 0.5019
C21 C -0.2933(4) 0.0647(11) 0.5721(4)
H21 H -0.2907 0.1610 0.5693
C22 C -0.2851(4) -0.3762(10) 0.4123(4)
H22 H -0.3029 -0.3021 0.3951
C23 C -0.2612(5) -0.5246(12) 0.4711(5)
H23 H -0.2583 -0.5751 0.5031
C24 C -0.2335(5) -0.5525(13) 0.4261(5)
H24 H -0.2087 -0.6248 0.4218
C25 C -0.2457(4) -0.1842(11) 0.2533(4)
H25 H -0.2120 -0.1430 0.2619
C26 C -0.3247(4) -0.2167(12) 0.2198(5)
H26 H -0.3578 -0.2057 0.2006
C27 C -0.3104(4) -0.3298(12) 0.2506(5)
H27 H -0.3318 -0.4083 0.2561
C28 C 0.0997(4) 0.3661(11) 0.7053(4)
H28 H 0.1050 0.3855 0.7419
C29 C 0.1146(6) 0.337(2) 0.6268(5)
H29 H 0.1323 0.3316 0.5942
C30 C 0.0620(6) 0.3022(19) 0.6322(5)
H30 H 0.0374 0.2702 0.6056
Zn1A Zn -0.26737(4) -0.46715(11) 0.81794(4)
Zn3_2 Zn -0.03213(4) -0.23636(11) 0.86253(4)
Zn3A Zn -0.46787(4) -0.73636(11) 0.63747(4)
Zn3C Zn -0.53213(4) -0.26364(11) 0.36253(4)
Zn5A Zn -0.28341(4) 0.05980(12) 0.18391(5)
Zn5B Zn 0.21659(4) 0.44020(12) 0.68391(5)
N2A N -0.2707(3) 0.1604(8) 0.7325(3)
N8_2 N 0.0026(3) 0.8917(8) 0.8111(3)
N9A N -0.1002(3) 0.8634(8) 0.8834(3)
N11C N 0.0144(3) 0.7486(8) 0.9296(3)
N18A N -0.2167(3) -0.6236(8) 0.2785(3)
N19B N -0.1386(3) -0.3792(9) 0.3285(3)
O1 O 0.1164(5) 0.6008(13) 0.8431(5)
N21 N 0.1342(6) 0.3956(14) 0.8796(5)
C31 C 0.0998(7) 0.5116(17) 0.8715(6)
H31 H 0.0659 0.5182 0.8875
C32 C 0.1123(8) 0.284(2) 0.9139(7)
H32 H 0.1416 0.2442 0.9361
H33 H 0.0849 0.3221 0.9374
C33 C 0.0901(11) 0.188(2) 0.8820(10)
H34 H 0.0768 0.1131 0.9035
H35 H 0.1172 0.1538 0.8582
H36 H 0.0601 0.2281 0.8613
C34 C 0.1801(8) 0.373(2) 0.8518(7)
H37 H 0.1770 0.4184 0.8170
H38 H 0.1845 0.2737 0.8458
C35 C 0.2288(7) 0.4276(19) 0.8827(7)
H39 H 0.2613 0.4114 0.8627
H40 H 0.2321 0.3811 0.9169
H41 H 0.2244 0.5257 0.8884
loop_
_geom_bond_atom_site_label_1
_geom_bond_atom_site_label_2
_geom_bond_site_symmetry_1
_geom_bond_site_symmetry_2
Zn1 N1 1_555 1_555
Zn2 N4 1_555 1_555
Zn3 N6 1_555 1_555
Zn4 N10 1_555 1_555
Zn5 N16 1_555 1_555
N1 C1 1_555 1_555
N2 C1 1_555 1_555
N3 Zn1 1_555 1_555
N4 C4 1_555 1_555
N5 Zn2 1_555 1_555
N6 C7 1_555 1_555
N7 Zn2 1_555 1_555
N8 C10 1_555 1_555
N9 C13 1_555 1_555
N10 C13 1_555 1_555
N11 C16 1_555 1_555
N12 Zn4 1_555 1_555
N13 Zn4 1_555 1_555
N14 Zn1 1_555 1_555
N15 Zn4 1_555 1_555
N16 C22 1_555 1_555
N17 Zn5 1_555 1_555
N18 C25 1_555 1_555
N19 C28 1_555 1_555
N20 Zn2 1_555 1_555
C1 H1 1_555 1_555
C2 N1 1_555 1_555
H2 C2 1_555 1_555
C3 N2 1_555 1_555
H3 C3 1_555 1_555
C4 N3 1_555 1_555
H4 C4 1_555 1_555
C5 N3 1_555 1_555
H5 C5 1_555 1_555
C6 N4 1_555 1_555
H6 C6 1_555 1_555
C7 N5 1_555 1_555
H7 C7 1_555 1_555
C8 N5 1_555 1_555
H8 C8 1_555 1_555
C9 N6 1_555 1_555
H9 C9 1_555 1_555
C10 N7 1_555 1_555
H10 C10 1_555 1_555
C11 N8 1_555 1_555
H11 C11 1_555 1_555
C12 N7 1_555 1_555
H12 C12 1_555 1_555
C13 H13 1_555 1_555
C14 N10 1_555 1_555
H14 C14 1_555 1_555
C15 N9 1_555 1_555
H15 C15 1_555 1_555
C16 N12 1_555 1_555
H16 C16 1_555 1_555
C17 N11 1_555 1_555
H17 C17 1_555 1_555
C18 N12 1_555 1_555
H18 C18 1_555 1_555
C19 N13 1_555 1_555
H19 C19 1_555 1_555
C20 N13 1_555 1_555
H20 C20 1_555 1_555
C21 N14 1_555 1_555
H21 C21 1_555 1_555
C22 N15 1_555 1_555
H22 C22 1_555 1_555
C23 N15 1_555 1_555
H23 C23 1_555 1_555
C24 N16 1_555 1_555
H24 C24 1_555 1_555
C25 N17 1_555 1_555
H25 C25 1_555 1_555
C26 N18 1_555 1_555
H26 C26 1_555 1_555
C27 N17 1_555 1_555
H27 C27 1_555 1_555
C28 N20 1_555 1_555
H28 C28 1_555 1_555
C29 N19 1_555 1_555
H29 C29 1_555 1_555
C30 N20 1_555 1_555
H30 C30 1_555 1_555
O1 C31 1_555 1_555
N21 C31 1_555 1_555
C31 H31 1_555 1_555
C32 N21 1_555 1_555
H32 C32 1_555 1_555
H33 C32 1_555 1_555
C33 C32 1_555 1_555
H34 C33 1_555 1_555
H35 C33 1_555 1_555
H36 C33 1_555 1_555
C34 N21 1_555 1_555
H37 C34 1_555 1_555
H38 C34 1_555 1_555
C35 C34 1_555 1_555
H39 C35 1_555 1_555
H40 C35 1_555 1_555
H41 C35 1_555 1_555
Zn1A N2 1_555 1_555
Zn3_2 N8 1_555 1_555
Zn3A N9 1_555 1_555
Zn3C N11 1_555 1_555
Zn5A N18 1_555 1_555
Zn5B N19 1_555 1_555
N2A Zn1 1_555 1_555
N8_2 Zn3 1_555 1_555
N9A Zn3 1_555 1_555
N11C Zn3 1_555 1_555
N18A Zn5 1_555 1_555
N19B Zn5 1_555 1_555
N14 C19 1_555 1_555
C2 C3 1_555 1_555
C5 C6 1_555 1_555
C8 C9 1_555 1_555
C11 C12 1_555 1_555
C14 C15 1_555 1_555
C17 C18 1_555 1_555
C20 C21 1_555 1_555
C23 C24 1_555 1_555
C26 C27 1_555 1_555
C29 C30 1_555 1_555

#END
