
#######################################################################
#
#                 Cambridge Crystallographic Data Centre
#                                CCDC 
#
#######################################################################
#
# If this CIF has been generated from an entry in the Cambridge 
# Structural Database, then it will include bibliographic, chemical, 
# crystal, experimental, refinement or atomic coordinate data resulting 
# from the CCDC's data processing and validation procedures.
#
#######################################################################

data_HIHGOW
_symmetry_cell_setting           monoclinic
_symmetry_space_group_name_H-M   'C 2/c'
_symmetry_Int_Tables_number      15
_space_group_name_Hall           '-C 2yn'
loop_
_symmetry_equiv_pos_site_id
_symmetry_equiv_pos_as_xyz
1 x,y,z
2 -x,y,1/2-z
3 1/2+x,1/2+y,z
4 1/2-x,1/2+y,1/2-z
5 -x,-y,-z
6 x,-y,1/2+z
7 1/2-x,1/2-y,-z
8 1/2+x,1/2-y,1/2+z
_cell_length_a                   23.763(3)
_cell_length_b                   21.535(2)
_cell_length_c                   26.471(3)
_cell_angle_alpha                90
_cell_angle_beta                 97.687(2)
_cell_angle_gamma                90
_cell_volume                     13424.4
loop_
_atom_site_label
_atom_site_type_symbol
_atom_site_fract_x
_atom_site_fract_y
_atom_site_fract_z
C1 C 0.3727(3) 0.1769(3) 0.4225(3)
C2 C 0.3327(3) 0.1364(3) 0.3894(2)
C3 C 0.3476(3) 0.0758(3) 0.3802(3)
H1 H 0.3832 0.0609 0.3938
C4 C 0.3103(3) 0.0379(3) 0.3513(3)
H2 H 0.3209 -0.0025 0.3445
C5 C 0.2567(3) 0.0591(3) 0.3321(3)
C6 C 0.2419(3) 0.1176(3) 0.3428(3)
H3 H 0.2059 0.1321 0.3302
C7 C 0.2793(3) 0.1561(3) 0.3718(3)
H4 H 0.2680 0.1959 0.3796
C8 C 0.2346(3) -0.0248(3) 0.2765(3)
H5 H 0.2425 -0.0600 0.2992
H6 H 0.2692 -0.0139 0.2628
C9 C 0.1872(3) -0.0413(3) 0.2328(3)
C10 C 0.2101(3) -0.0958(3) 0.2015(3)
H7 H 0.2180 -0.1322 0.2227
H8 H 0.1823 -0.1067 0.1725
C11 C 0.2875(3) -0.1103(3) 0.1550(3)
C12 C 0.3393(3) -0.0856(3) 0.1462(3)
H9 H 0.3516 -0.0480 0.1611
C13 C 0.3727(3) -0.1166(3) 0.1153(3)
H10 H 0.4074 -0.0999 0.1098
C14 C 0.3553(2) -0.1706(2) 0.0933(3)
C15 C 0.3055(3) -0.1965(3) 0.1046(3)
H11 H 0.2945 -0.2352 0.0911
C16 C 0.2711(3) -0.1666(3) 0.1355(3)
H12 H 0.2376 -0.1849 0.1427
C17 C 0.3902(2) -0.2010(3) 0.0562(2)
C18 C 0.1306(3) -0.0608(3) 0.2568(3)
H13 H 0.1186 -0.0272 0.2773
H14 H 0.1000 -0.0703 0.2299
C19 C 0.1008(3) -0.1322(4) 0.3142(3)
C20 C 0.1136(3) -0.1814(4) 0.3426(3)
H15 H 0.1485 -0.2007 0.3420
C21 C 0.0765(3) -0.2048(3) 0.3730(3)
H16 H 0.0871 -0.2387 0.3939
C22 C 0.0231(3) -0.1785(3) 0.3730(2)
C23 C 0.0102(3) -0.1284(3) 0.3440(2)
H17 H -0.0251 -0.1096 0.3440
C24 C 0.0490(3) -0.1031(3) 0.3130(2)
H18 H 0.0397 -0.0683 0.2927
C25 C -0.0151(3) -0.2029(3) 0.4079(3)
C26 C 0.1722(3) 0.0151(3) 0.1974(3)
H19 H 0.1594 0.0493 0.2169
H20 H 0.2057 0.0286 0.1831
C27 C 0.1038(3) 0.0464(3) 0.1306(3)
C28 C 0.1230(3) 0.1055(3) 0.1313(3)
H21 H 0.1570 0.1167 0.1508
C29 C 0.0904(3) 0.1491(3) 0.1018(3)
H22 H 0.1030 0.1900 0.1019
C30 C 0.0403(3) 0.1339(3) 0.0725(2)
C31 C 0.0240(3) 0.0740(3) 0.0720(3)
H23 H -0.0097 0.0627 0.0520
C32 C 0.0553(3) 0.0288(3) 0.0999(3)
H24 H 0.0438 -0.0125 0.0981
C33 C 0.0040(3) 0.1808(3) 0.0425(3)
C34 C 0.2918(2) 0.3546(3) 0.4982(3)
H25 H 0.2895 0.3178 0.5162
C35 C 0.2501(3) 0.3977(3) 0.4992(3)
H26 H 0.2203 0.3903 0.5179
C36 C 0.2522(2) 0.4519(3) 0.4728(2)
C37 C 0.2979(3) 0.4603(3) 0.4451(3)
H27 H 0.3004 0.4962 0.4260
C38 C 0.3396(3) 0.4147(3) 0.4464(2)
H28 H 0.3703 0.4209 0.4287
C39 C 0.2102(3) 0.5002(3) 0.4731(3)
H29 H 0.2157 0.5367 0.4557
C40 C 0.1657(3) 0.4966(3) 0.4956(3)
H30 H 0.1614 0.4604 0.5139
C41 C 0.1204(4) 0.5438(4) 0.4954(4)
C42 C 0.1314(4) 0.6034(4) 0.4791(4)
H31 H 0.1659 0.6122 0.4677
C43 C 0.0909(3) 0.6498(4) 0.4799(3)
H32 H 0.0982 0.6897 0.4690
C44 C 0.0283(3) 0.5771(4) 0.5132(3)
H33 H -0.0062 0.5682 0.5246
C45 C 0.06884(17) 0.5306(2) 0.51246(19)
H34 H 0.0615 0.4908 0.5233
N1 N 0.03932(17) 0.6366(2) 0.49691(19)
N2 N 0.33611(18) 0.36294(19) 0.47222(17)
O1 O 0.41876(18) 0.1554(2) 0.44312(18)
O2 O 0.35691(17) 0.2318(2) 0.42819(17)
O3 O 0.2158(2) 0.0252(2) 0.3028(2)
O4 O 0.2590(2) -0.0738(2) 0.1853(2)
O5 O 0.43562(16) -0.17552(19) 0.04981(17)
O6 O 0.37150(17) -0.24906(19) 0.03463(16)
O7 O 0.1441(2) -0.1114(2) 0.2860(2)
O8 O -0.06110(17) -0.1749(2) 0.41273(17)
O9 O 0.00021(18) -0.2516(2) 0.43197(18)
O10 O 0.1304(2) -0.0008(2) 0.15902(19)
O11 O 0.02256(18) 0.2348(2) 0.03913(17)
O12 O -0.04245(18) 0.16207(19) 0.01956(18)
Zn1 Zn 0.47908(2) 0.20098(3) 0.49331(3)
Zn2 Zn 0.39624(2) 0.29741(3) 0.47211(3)
N1B N 0.53932(17) 0.1366(2) 0.49691(19)
O5E O 0.43562(16) 0.17552(19) 0.54981(17)
O6E O 0.37150(17) 0.24906(19) 0.53463(16)
O8B O 0.43890(17) 0.3251(2) 0.41273(17)
O9B O 0.50021(18) 0.2484(2) 0.43197(18)
O11G O 0.52256(18) 0.2652(2) 0.53913(17)
O12G O 0.45755(18) 0.33793(19) 0.51956(18)
Zn1B Zn -0.02092(2) -0.29902(3) 0.49331(3)
Zn1B_2 Zn -0.02092(2) 0.70098(3) 0.49331(3)
Zn1E Zn 0.47908(2) -0.20098(3) -0.00669(3)
Zn1G Zn -0.02092(2) 0.29902(3) -0.00669(3)
Zn2B Zn -0.10376(2) -0.20259(3) 0.47211(3)
Zn2E Zn 0.39624(2) -0.29741(3) -0.02789(3)
Zn2G Zn -0.10376(2) 0.20259(3) -0.02789(3)
loop_
_geom_bond_atom_site_label_1
_geom_bond_atom_site_label_2
_geom_bond_site_symmetry_1
_geom_bond_site_symmetry_2
C1 C2 1_555 1_555
C2 C3 1_555 1_555
C3 H1 1_555 1_555
C4 C3 1_555 1_555
H2 C4 1_555 1_555
C5 C4 1_555 1_555
C6 C5 1_555 1_555
H3 C6 1_555 1_555
C7 C2 1_555 1_555
H4 C7 1_555 1_555
C8 H5 1_555 1_555
H6 C8 1_555 1_555
C9 C8 1_555 1_555
C10 C9 1_555 1_555
H7 C10 1_555 1_555
H8 C10 1_555 1_555
C11 C12 1_555 1_555
C12 H9 1_555 1_555
C13 C12 1_555 1_555
H10 C13 1_555 1_555
C14 C13 1_555 1_555
C15 C14 1_555 1_555
H11 C15 1_555 1_555
C16 C11 1_555 1_555
H12 C16 1_555 1_555
C17 C14 1_555 1_555
C18 C9 1_555 1_555
H13 C18 1_555 1_555
H14 C18 1_555 1_555
C19 C20 1_555 1_555
C20 H15 1_555 1_555
C21 C20 1_555 1_555
H16 C21 1_555 1_555
C22 C21 1_555 1_555
C23 C22 1_555 1_555
H17 C23 1_555 1_555
C24 C19 1_555 1_555
H18 C24 1_555 1_555
C25 C22 1_555 1_555
C26 C9 1_555 1_555
H19 C26 1_555 1_555
H20 C26 1_555 1_555
C27 C28 1_555 1_555
C28 H21 1_555 1_555
C29 C28 1_555 1_555
H22 C29 1_555 1_555
C30 C29 1_555 1_555
C31 C30 1_555 1_555
H23 C31 1_555 1_555
C32 C27 1_555 1_555
H24 C32 1_555 1_555
C33 C30 1_555 1_555
C34 H25 1_555 1_555
C35 C34 1_555 1_555
H26 C35 1_555 1_555
C36 C35 1_555 1_555
C37 C36 1_555 1_555
H27 C37 1_555 1_555
C38 C37 1_555 1_555
H28 C38 1_555 1_555
C39 C36 1_555 1_555
H29 C39 1_555 1_555
C40 C39 1_555 1_555
H30 C40 1_555 1_555
C41 C40 1_555 1_555
C42 C41 1_555 1_555
H31 C42 1_555 1_555
C43 C42 1_555 1_555
H32 C43 1_555 1_555
C44 H33 1_555 1_555
C45 C41 1_555 1_555
H34 C45 1_555 1_555
N1 C43 1_555 1_555
N2 C34 1_555 1_555
O1 C1 1_555 1_555
O2 C1 1_555 1_555
O3 C5 1_555 1_555
O4 C10 1_555 1_555
O5 C17 1_555 1_555
O6 C17 1_555 1_555
O7 C18 1_555 1_555
O8 C25 1_555 1_555
O9 C25 1_555 1_555
O10 C26 1_555 1_555
O11 C33 1_555 1_555
O12 C33 1_555 1_555
Zn1 O1 1_555 1_555
Zn2 N2 1_555 1_555
N1B Zn1 1_555 1_555
O5E Zn1 1_555 1_555
O6E Zn2 1_555 1_555
O8B Zn2 1_555 1_555
O9B Zn1 1_555 1_555
O11G Zn1 1_555 1_555
O12G Zn2 1_555 1_555
Zn1B O9 1_555 1_555
Zn1B_2 N1 1_555 1_555
Zn1E O5 1_555 1_555
Zn1G O11 1_555 1_555
Zn2B O8 1_555 1_555
Zn2E O6 1_555 1_555
Zn2G O12 1_555 1_555
C6 C7 1_555 1_555
C8 O3 1_555 1_555
C11 O4 1_555 1_555
C15 C16 1_555 1_555
C19 O7 1_555 1_555
C23 C24 1_555 1_555
C27 O10 1_555 1_555
C31 C32 1_555 1_555
C38 N2 1_555 1_555
C44 C45 1_555 1_555
C44 N1 1_555 1_555
O2 Zn2 1_555 1_555

#END
