
#######################################################################
#
#                 Cambridge Crystallographic Data Centre
#                                CCDC 
#
#######################################################################
#
# If this CIF has been generated from an entry in the Cambridge 
# Structural Database, then it will include bibliographic, chemical, 
# crystal, experimental, refinement or atomic coordinate data resulting 
# from the CCDC's data processing and validation procedures.
#
#######################################################################

data_HIHNUJ
_symmetry_cell_setting           tetragonal
_symmetry_space_group_name_H-M   'P 43 21 2'
_symmetry_Int_Tables_number      96
_space_group_name_Hall           'P 4nw 2abw'
loop_
_symmetry_equiv_pos_site_id
_symmetry_equiv_pos_as_xyz
1 x,y,z
2 1/2-y,1/2+x,3/4+z
3 -x,-y,1/2+z
4 1/2+y,1/2-x,1/4+z
5 1/2+x,1/2-y,1/4-z
6 1/2-x,1/2+y,3/4-z
7 y,x,-z
8 -y,-x,1/2-z
_cell_length_a                   17.9218(8)
_cell_length_b                   17.9218(8)
_cell_length_c                   11.2184(8)
_cell_angle_alpha                90
_cell_angle_beta                 90
_cell_angle_gamma                90
_cell_volume                     3603.25
loop_
_atom_site_label
_atom_site_type_symbol
_atom_site_fract_x
_atom_site_fract_y
_atom_site_fract_z
In1 In 0.816007(7) 0.183993(7) -0.2500
O1 O 0.66143(11) 0.58042(9) 0.11003(16)
O2 O 0.76256(10) 0.21111(9) -0.07217(14)
O3 O 0.72273(11) 0.56639(9) -0.05811(16)
C1 C 0.69402(12) 0.53900(11) 0.0364(2)
O4 O 0.80202(11) 0.30486(9) -0.18056(15)
C2 C 0.67651(11) 0.35260(11) 0.19283(18)
C3 C 0.77022(12) 0.28051(13) -0.0875(2)
C4 C 0.69934(12) 0.45697(11) 0.0599(2)
C5 C 0.73884(11) 0.33323(11) 0.0037(2)
C6 C 0.73295(13) 0.40989(11) -0.02141(18)
H1 H 0.7521 0.4292 -0.0941
C7 C 0.66999(12) 0.42839(12) 0.1657(2)
H2 H 0.6453 0.4608 0.2198
C8 C 0.71028(13) 0.30528(12) 0.11035(19)
H3 H 0.7139 0.2534 0.1269
O1G O 0.41958(9) 0.33857(11) 0.38997(16)
O2G O 0.78889(9) 0.23744(10) 0.57217(14)
O3G O 0.43361(9) 0.27727(11) 0.55811(16)
C1G C 0.46100(11) 0.30598(12) 0.4636(2)
O4G O 0.69514(9) 0.19798(11) 0.68056(15)
C2G C 0.64740(11) 0.32349(11) 0.30717(18)
C3G C 0.71949(13) 0.22978(12) 0.5875(2)
C4G C 0.54303(11) 0.30066(12) 0.4401(2)
C5G C 0.66677(11) 0.26116(11) 0.4963(2)
C6G C 0.59011(11) 0.26705(13) 0.52141(18)
H1G H 0.5708 0.2479 0.5941
C7G C 0.57161(12) 0.33001(12) 0.3343(2)
H2G H 0.5392 0.3547 0.2802
C8G C 0.69472(12) 0.28972(13) 0.38965(19)
H3G H 0.7466 0.2861 0.3731
In1_2 In 0.816007(7) 0.183993(7) 0.7500
In1A In 0.316007(7) 0.316007(7) 0.5000
In1C In 0.683993(7) 0.683993(7) 0.0000
O1A O 0.91958(9) 0.16143(11) -0.13997(16)
O1E O 0.83857(11) 0.08042(9) -0.36003(16)
O2G_2 O 0.78889(9) 0.23744(10) -0.42783(14)
O3A O 0.93361(9) 0.22273(11) -0.30811(16)
O3E O 0.77727(11) 0.06639(9) -0.19189(16)
O4G_2 O 0.69514(9) 0.19798(11) -0.31944(15)
loop_
_geom_bond_atom_site_label_1
_geom_bond_atom_site_label_2
_geom_bond_site_symmetry_1
_geom_bond_site_symmetry_2
In1 O2 1_555 1_555
O1 C1 1_555 1_555
O2 C3 1_555 1_555
O3 C1 1_555 1_555
C1 C4 1_555 1_555
O4 In1 1_555 1_555
C2 C7 1_555 1_555
C3 O4 1_555 1_555
C4 C6 1_555 1_555
C5 C3 1_555 1_555
C6 C5 1_555 1_555
H1 C6 1_555 1_555
C7 C4 1_555 1_555
H2 C7 1_555 1_555
C8 C2 1_555 1_555
H3 C8 1_555 1_555
O1G C1G 1_555 1_555
O2G C3G 1_555 1_555
O3G C1G 1_555 1_555
C1G C4G 1_555 1_555
O4G C3G 1_555 1_555
C2G C2 1_555 1_555
C3G C5G 1_555 1_555
C4G C6G 1_555 1_555
C5G C6G 1_555 1_555
C6G H1G 1_555 1_555
C7G C2G 1_555 1_555
H2G C7G 1_555 1_555
C8G C2G 1_555 1_555
H3G C8G 1_555 1_555
In1_2 O2G 1_555 1_555
In1A O1G 1_555 1_555
In1C O1 1_555 1_555
O1A In1 1_555 1_555
O1E In1 1_555 1_555
O2G_2 In1 1_555 1_555
O3A In1 1_555 1_555
O3E In1 1_555 1_555
O4G_2 In1 1_555 1_555
O3 In1C 1_555 1_555
C5 C8 1_555 1_555
O3G In1A 1_555 1_555
O4G In1_2 1_555 1_555
C4G C7G 1_555 1_555
C5G C8G 1_555 1_555

#END
