
#######################################################################
#
#                 Cambridge Crystallographic Data Centre
#                                CCDC 
#
#######################################################################
#
# If this CIF has been generated from an entry in the Cambridge 
# Structural Database, then it will include bibliographic, chemical, 
# crystal, experimental, refinement or atomic coordinate data resulting 
# from the CCDC's data processing and validation procedures.
#
#######################################################################

data_HIQNIG
_symmetry_cell_setting           monoclinic
_symmetry_space_group_name_H-M   'P 21/n'
_symmetry_Int_Tables_number      14
_space_group_name_Hall           '-P 2yn'
loop_
_symmetry_equiv_pos_site_id
_symmetry_equiv_pos_as_xyz
1 x,y,z
2 1/2-x,1/2+y,1/2-z
3 -x,-y,-z
4 1/2+x,1/2-y,1/2+z
_cell_length_a                   9.0531(19)
_cell_length_b                   19.218(4)
_cell_length_c                   16.342(3)
_cell_angle_alpha                90
_cell_angle_beta                 92.804(4)
_cell_angle_gamma                90
_cell_volume                     2839.82
loop_
_atom_site_label
_atom_site_type_symbol
_atom_site_fract_x
_atom_site_fract_y
_atom_site_fract_z
Zn1 Zn 0.13241(6) 0.81446(3) 0.09695(3)
O1 O 0.2842(4) 0.80788(18) 0.1871(2)
O2 O 0.4221(4) 0.8810(2) 0.1202(2)
O3 O 0.4762(4) 0.71034(19) 0.4563(2)
O4 O 0.6981(4) 0.74054(18) 0.50460(19)
C1 C 0.4028(6) 0.8426(3) 0.1791(3)
C2 C 0.5195(5) 0.8367(2) 0.2475(3)
C3 C 0.6500(5) 0.8747(2) 0.2425(3)
H1 H 0.6630 0.9021 0.1965
C4 C 0.7610(5) 0.8728(2) 0.3042(3)
C5 C 0.7398(5) 0.8312(2) 0.3722(3)
H2 H 0.8118 0.8298 0.4148
C6 C 0.6111(5) 0.7914(2) 0.3774(3)
C7 C 0.5009(5) 0.7947(2) 0.3150(3)
H3 H 0.4148 0.7687 0.3187
C8 C 0.5919(5) 0.7441(2) 0.4505(3)
C9 C 1.0152(7) 0.9113(3) 0.3545(4)
H4 H 1.1014 0.9263 0.3261
H5 H 1.0334 0.8640 0.3729
C10 C 1.0021(7) 0.9571(3) 0.4297(4)
C11 C 0.9089(8) 1.0138(4) 0.4311(4)
H6 H 0.8470 1.0241 0.3855
C12 C 1.0927(8) 0.9442(4) 0.4993(4)
H7 H 1.1565 0.9063 0.4994
C13 C -0.0075(6) 0.7429(3) 0.2351(3)
H8 H 0.0793 0.7578 0.2624
C14 C -0.1039(6) 0.7024(3) 0.2767(3)
H9 H -0.0821 0.6913 0.3314
C15 C -0.2327(6) 0.6779(2) 0.2381(3)
C16 C -0.2614(6) 0.6999(3) 0.1588(3)
H10 H -0.3491 0.6868 0.1310
C17 C -0.1603(6) 0.7415(3) 0.1200(3)
H11 H -0.1826 0.7555 0.0663
C18 C -0.3311(6) 0.6285(3) 0.2758(3)
H12 H -0.4242 0.6224 0.2501
C19 C -0.3011(6) 0.5913(2) 0.3433(3)
H13 H -0.2158 0.6024 0.3747
C20 C -0.3933(6) 0.5340(2) 0.3716(3)
C21 C -0.3297(6) 0.4842(3) 0.4228(3)
H14 H -0.2348 0.4904 0.4460
C22 C -0.4104(6) 0.4243(3) 0.4395(3)
H15 H -0.3660 0.3904 0.4730
C23 C -0.6120(6) 0.4648(2) 0.3655(3)
H16 H -0.7100 0.4595 0.3468
C24 C -0.5401(6) 0.5249(3) 0.3467(3)
H17 H -0.5901 0.5597 0.3170
N1 N 0.8897(5) 0.9107(3) 0.2963(3)
H18 H 0.8955 0.9360 0.2531
N2 N -0.0337(4) 0.7620(2) 0.1562(2)
N3 N -0.5483(4) 0.41354(18) 0.4093(2)
O1B O 1.7158(4) 1.19212(18) 0.8129(2)
O2B O 1.5779(4) 1.1190(2) 0.8798(2)
O3B O 1.5238(4) 1.28966(19) 0.5437(2)
O4B O 1.3019(4) 1.25946(18) 0.49540(19)
C1B C 1.5972(6) 1.1574(3) 0.8209(3)
C2B C 1.4805(5) 1.1633(2) 0.7525(3)
C3B C 1.3500(5) 1.1253(2) 0.7575(3)
H1B H 1.3370 1.0979 0.8035
C4B C 1.2390(5) 1.1272(2) 0.6958(3)
C5B C 1.2602(5) 1.1688(2) 0.6278(3)
H2B H 1.1882 1.1702 0.5852
C6B C 1.3889(5) 1.2086(2) 0.6226(3)
C7B C 1.4991(5) 1.2053(2) 0.6850(3)
H3B H 1.5852 1.2313 0.6813
C8B C 1.4081(5) 1.2559(2) 0.5495(3)
C9B C 0.9848(7) 1.0887(3) 0.6455(4)
H4B H 0.8986 1.0737 0.6739
H5B H 0.9666 1.1360 0.6271
C10B C 0.9979(7) 1.0429(3) 0.5703(4)
C11B C 1.0911(8) 0.9862(4) 0.5689(4)
H6B H 1.1530 0.9759 0.6145
C12B C 0.9073(8) 1.0558(4) 0.5007(4)
H7B H 0.8435 1.0937 0.5006
N1B N 1.1103(5) 1.0893(3) 0.7037(3)
H18B H 1.1045 1.0640 0.7469
Zn1B Zn 1.86759(6) 1.18554(3) 0.90305(3)
C13B C 2.0075(6) 1.2571(3) 0.7649(3)
H8B H 1.9207 1.2422 0.7376
C14B C 2.1039(6) 1.2976(3) 0.7233(3)
H9B H 2.0821 1.3087 0.6686
C15B C 2.2327(6) 1.3221(2) 0.7619(3)
C16B C 2.2614(6) 1.3001(3) 0.8412(3)
H10B H 2.3491 1.3132 0.8690
C17B C 2.1603(6) 1.2585(3) 0.8800(3)
H11B H 2.1826 1.2445 0.9337
C18B C 2.3311(6) 1.3715(3) 0.7242(3)
H12B H 2.4242 1.3776 0.7499
C19B C 2.3011(6) 1.4087(2) 0.6567(3)
H13B H 2.2158 1.3976 0.6253
C20B C 2.3933(6) 1.4660(2) 0.6284(3)
C21B C 2.3297(6) 1.5158(3) 0.5772(3)
H14B H 2.2348 1.5096 0.5540
C22B C 2.4104(6) 1.5757(3) 0.5605(3)
H15B H 2.3660 1.6096 0.5270
C23B C 2.6120(6) 1.5352(2) 0.6345(3)
H16B H 2.7100 1.5405 0.6532
C24B C 2.5401(6) 1.4751(3) 0.6533(3)
H17B H 2.5901 1.4403 0.6830
N2B N 2.0337(4) 1.2380(2) 0.8438(2)
N3B N 2.5483(4) 1.58646(18) 0.5907(2)
Zn1A Zn -0.63241(6) 0.31446(3) 0.40305(3)
Zn1A_2 Zn 1.36759(6) 1.31446(3) 0.40305(3)
Zn1C Zn 0.63241(6) 0.68554(3) 0.59695(3)
Zn1C_2 Zn 2.63241(6) 1.68554(3) 0.59695(3)
O4A O 1.8019(4) 1.24054(18) 0.99540(19)
O4C O 0.1981(4) 0.75946(18) 0.00460(19)
N3A N 0.0483(4) 0.91354(18) 0.0907(2)
N3C N 1.9517(4) 1.08646(18) 0.9093(2)
O5 O 0.2030(6) 0.6768(3) 0.3953(4)
H19 H 0.2277 0.6543 0.3523
H20 H 0.2889 0.6867 0.4145
O6 O 0.0264(7) 0.7638(3) 0.4951(4)
H21 H 0.0787 0.7378 0.4659
H22 H -0.0660 0.7571 0.4981
O7 O 0.0144(7) 0.5757(3) 0.4669(3)
H23 H 0.0824 0.6034 0.4537
H24 H -0.0137 0.5889 0.5133
C25 C 0.0950(10) 0.5482(5) 0.2400(6)
H25 H 0.0636 0.5286 0.2881
C26 C 0.0428(9) 0.5217(4) 0.1648(6)
H26 H -0.0260 0.4858 0.1626
C27 C 0.0929(10) 0.5486(5) 0.0949(5)
C28 C 0.2404(10) 0.6255(4) 0.1724(6)
H27 H 0.3100 0.6611 0.1740
C29 C 0.0431(10) 0.5231(5) 0.0087(8)
H28 H 0.0840 0.5459 -0.0350
C30 C 0.1945(11) 0.6000(5) 0.0996(5)
H29 H 0.2326 0.6177 0.0521
N4 N 0.1907(9) 0.6021(4) 0.2437(5)
C25B C -0.0950(10) 0.4518(5) -0.2400(6)
H25B H -0.0636 0.4714 -0.2881
C26B C -0.0428(9) 0.4783(4) -0.1648(6)
H26B H 0.0260 0.5142 -0.1626
C27B C -0.0929(10) 0.4514(5) -0.0949(5)
C28B C -0.2404(10) 0.3745(4) -0.1724(6)
H27B H -0.3100 0.3389 -0.1740
C29B C -0.0431(10) 0.4769(5) -0.0087(8)
H28B H -0.0840 0.4541 0.0350
C30B C -0.1945(11) 0.4000(5) -0.0996(5)
H29B H -0.2326 0.3823 -0.0521
N4B N -0.1907(9) 0.3979(4) -0.2437(5)
loop_
_geom_bond_atom_site_label_1
_geom_bond_atom_site_label_2
_geom_bond_site_symmetry_1
_geom_bond_site_symmetry_2
Zn1 O1 1_555 1_555
O1 C1 1_555 1_555
O2 C1 1_555 1_555
O3 C8 1_555 1_555
O4 C8 1_555 1_555
C1 C2 1_555 1_555
C2 C3 1_555 1_555
C3 H1 1_555 1_555
C4 C3 1_555 1_555
C5 C4 1_555 1_555
H2 C5 1_555 1_555
C6 C5 1_555 1_555
C7 C2 1_555 1_555
H3 C7 1_555 1_555
C8 C6 1_555 1_555
C9 H4 1_555 1_555
H5 C9 1_555 1_555
C10 C9 1_555 1_555
C11 C10 1_555 1_555
H6 C11 1_555 1_555
C12 C10 1_555 1_555
H7 C12 1_555 1_555
C13 H8 1_555 1_555
C14 C13 1_555 1_555
H9 C14 1_555 1_555
C15 C14 1_555 1_555
C16 C15 1_555 1_555
H10 C16 1_555 1_555
C17 C16 1_555 1_555
H11 C17 1_555 1_555
C18 C15 1_555 1_555
H12 C18 1_555 1_555
C19 C18 1_555 1_555
H13 C19 1_555 1_555
C20 C19 1_555 1_555
C21 C20 1_555 1_555
H14 C21 1_555 1_555
C22 C21 1_555 1_555
H15 C22 1_555 1_555
C23 H16 1_555 1_555
C24 C20 1_555 1_555
H17 C24 1_555 1_555
N1 C4 1_555 1_555
H18 N1 1_555 1_555
N2 Zn1 1_555 1_555
N3 C22 1_555 1_555
O5 H19 1_555 1_555
H20 O5 1_555 1_555
O6 H21 1_555 1_555
H22 O6 1_555 1_555
O7 H23 1_555 1_555
H24 O7 1_555 1_555
C25 H25 1_555 1_555
C26 C25 1_555 1_555
H26 C26 1_555 1_555
C27 C26 1_555 1_555
C28 H27 1_555 1_555
C29 C27 1_555 1_555
H28 C29 1_555 1_555
C30 C27 1_555 1_555
H29 C30 1_555 1_555
N4 C25 1_555 1_555
O1B C1B 1_555 1_555
O2B C1B 1_555 1_555
O3B C8B 1_555 1_555
O4B C8B 1_555 1_555
C1B C2B 1_555 1_555
C2B C3B 1_555 1_555
C3B H1B 1_555 1_555
C4B C3B 1_555 1_555
C5B C4B 1_555 1_555
H2B C5B 1_555 1_555
C6B C5B 1_555 1_555
C7B C2B 1_555 1_555
H3B C7B 1_555 1_555
C8B C6B 1_555 1_555
C9B H4B 1_555 1_555
H5B C9B 1_555 1_555
C10B C9B 1_555 1_555
C11B C12 1_555 1_555
H6B C11B 1_555 1_555
C12B C11 1_555 1_555
H7B C12B 1_555 1_555
N1B C4B 1_555 1_555
H18B N1B 1_555 1_555
Zn1B O1B 1_555 1_555
C13B H8B 1_555 1_555
C14B C13B 1_555 1_555
H9B C14B 1_555 1_555
C15B C14B 1_555 1_555
C16B C15B 1_555 1_555
H10B C16B 1_555 1_555
C17B C16B 1_555 1_555
H11B C17B 1_555 1_555
C18B C15B 1_555 1_555
H12B C18B 1_555 1_555
C19B C18B 1_555 1_555
H13B C19B 1_555 1_555
C20B C19B 1_555 1_555
C21B C20B 1_555 1_555
H14B C21B 1_555 1_555
C22B C21B 1_555 1_555
H15B C22B 1_555 1_555
C23B H16B 1_555 1_555
C24B C20B 1_555 1_555
H17B C24B 1_555 1_555
N2B Zn1B 1_555 1_555
N3B C22B 1_555 1_555
Zn1A N3 1_555 1_555
Zn1A_2 O4B 1_555 1_555
Zn1C O4 1_555 1_555
Zn1C_2 N3B 1_555 1_555
O4A Zn1B 1_555 1_555
O4C Zn1 1_555 1_555
N3A Zn1 1_555 1_555
N3C Zn1B 1_555 1_555
C25B H25B 1_555 1_555
C26B C25B 1_555 1_555
H26B C26B 1_555 1_555
C27B C26B 1_555 1_555
C28B H27B 1_555 1_555
C29B C29 1_555 1_555
H28B C29B 1_555 1_555
C30B C27B 1_555 1_555
H29B C30B 1_555 1_555
N4B C25B 1_555 1_555
C6 C7 1_555 1_555
C9 N1 1_555 1_555
C13 N2 1_555 1_555
C17 N2 1_555 1_555
C23 C24 1_555 1_555
C23 N3 1_555 1_555
C28 C30 1_555 1_555
C28 N4 1_555 1_555
C6B C7B 1_555 1_555
C9B N1B 1_555 1_555
C10B C11B 1_555 1_555
C10B C12B 1_555 1_555
C13B N2B 1_555 1_555
C17B N2B 1_555 1_555
C23B C24B 1_555 1_555
C23B N3B 1_555 1_555
C27B C29B 1_555 1_555
C28B C30B 1_555 1_555
C28B N4B 1_555 1_555

#END
