
#######################################################################
#
#                 Cambridge Crystallographic Data Centre
#                                CCDC 
#
#######################################################################
#
# If this CIF has been generated from an entry in the Cambridge 
# Structural Database, then it will include bibliographic, chemical, 
# crystal, experimental, refinement or atomic coordinate data resulting 
# from the CCDC's data processing and validation procedures.
#
#######################################################################

data_HIWXER
_symmetry_cell_setting           monoclinic
_symmetry_space_group_name_H-M   'C 2/c'
_symmetry_Int_Tables_number      15
_space_group_name_Hall           '-C 2yn'
loop_
_symmetry_equiv_pos_site_id
_symmetry_equiv_pos_as_xyz
1 x,y,z
2 1/2+x,1/2+y,z
3 -x,y,1/2-z
4 1/2-x,1/2+y,1/2-z
5 -x,-y,-z
6 1/2-x,1/2-y,-z
7 x,-y,1/2+z
8 1/2+x,1/2-y,1/2+z
_cell_length_a                   16.139(2)
_cell_length_b                   8.4411(11)
_cell_length_c                   14.2879(18)
_cell_angle_alpha                90
_cell_angle_beta                 111.498(2)
_cell_angle_gamma                90
_cell_volume                     1811.04
loop_
_atom_site_label
_atom_site_type_symbol
_atom_site_fract_x
_atom_site_fract_y
_atom_site_fract_z
Zn1 Zn 0.222674(18) 0.06722(3) 0.36668(2)
Zn2 Zn 0.095317(18) 0.31535(4) 0.47074(2)
Zn3 Zn 0.0000 0.12220(5) 0.2500
O1 O 0.10395(11) 0.1215(2) 0.38769(13)
H1 H 0.096(3) 0.050(3) 0.422(3)
O2 O 0.30012(12) 0.0619(2) 0.51115(14)
H2 H 0.278(2) 0.093(4) 0.550(2)
N1 N 0.26787(13) -0.2095(2) 0.19285(16)
N2 N 0.15784(13) -0.0658(3) 0.24139(16)
N3 N 0.06832(14) -0.0527(3) 0.19496(17)
N4 N 0.04145(14) -0.1297(3) 0.11084(17)
N5 N 0.11279(14) -0.1960(2) 0.09895(16)
N6 N 0.33374(14) -0.0510(3) 0.34434(17)
N7 N 0.41682(14) -0.0381(3) 0.41228(16)
N8 N 0.46879(13) -0.1287(3) 0.38466(16)
N9 N 0.42234(13) -0.2048(2) 0.29777(16)
C1 C 0.18449(16) -0.1568(3) 0.18043(19)
C2 C 0.33757(16) -0.1560(3) 0.27469(18)
Zn1B Zn -0.222674(18) 0.06722(3) 0.13332(2)
Zn1C Zn 0.277326(18) -0.43278(3) 0.13332(2)
Zn1A Zn -0.277326(18) -0.43278(3) 0.36668(2)
Zn1E Zn 0.277326(18) 0.43278(3) 0.63332(2)
Zn2B Zn -0.095317(18) 0.31535(4) 0.02926(2)
Zn2E Zn 0.404683(18) 0.18465(4) 0.52926(2)
Zn2F Zn 0.095317(18) -0.31535(4) -0.02926(2)
Zn2A Zn 0.595317(18) -0.18465(4) 0.47074(2)
Zn2D Zn -0.095317(18) -0.31535(4) 0.52926(2)
Zn2C Zn -0.595317(18) -0.18465(4) 0.02926(2)
Zn3A Zn 0.5000 -0.37780(5) 0.2500
Zn3A_2 Zn -0.5000 -0.37780(5) 0.2500
O1B O -0.10395(11) 0.1215(2) 0.11231(13)
H1B H -0.096(3) 0.050(3) 0.078(3)
O2E O 0.19988(12) 0.4381(2) 0.48885(14)
O2B O -0.30012(12) 0.0619(2) -0.01115(14)
O2G O -0.19988(12) 0.4381(2) 0.01115(14)
H2E H 0.222(2) 0.407(4) 0.450(2)
H2B H -0.278(2) 0.093(4) -0.050(2)
H2G H -0.222(2) 0.407(4) 0.050(2)
N1B N -0.26787(13) -0.2095(2) 0.30715(16)
N1C N 0.23213(13) 0.2905(2) 0.30715(16)
N1A N -0.23213(13) 0.2905(2) 0.19285(16)
N2B N -0.15784(13) -0.0658(3) 0.25861(16)
N3B N -0.06832(14) -0.0527(3) 0.30504(17)
N4B N -0.04145(14) -0.1297(3) 0.38916(17)
N5B N -0.11279(14) -0.1960(2) 0.40105(16)
N5F N 0.11279(14) 0.1960(2) 0.59895(16)
N5D N -0.11279(14) 0.1960(2) -0.09895(16)
N6B N -0.33374(14) -0.0510(3) 0.15566(17)
N7B N -0.41682(14) -0.0381(3) 0.08772(16)
N8B N -0.46879(13) -0.1287(3) 0.11534(16)
N8A N -0.03121(13) 0.3713(3) 0.38466(16)
N8C N 0.03121(13) 0.3713(3) 0.11534(16)
N9B N -0.42234(13) -0.2048(2) 0.20223(16)
N9A N -0.07766(13) 0.2952(2) 0.29777(16)
N9C N 0.07766(13) 0.2952(2) 0.20223(16)
C1B C -0.18449(16) -0.1568(3) 0.31957(19)
C2B C -0.33757(16) -0.1560(3) 0.22531(18)
O3 O 0.1521(2) -0.2151(5) 0.4533(4)
H3 H 0.1944 -0.1509 0.4822
H4 H 0.1706 -0.3097 0.4674
loop_
_geom_bond_atom_site_label_1
_geom_bond_atom_site_label_2
_geom_bond_site_symmetry_1
_geom_bond_site_symmetry_2
Zn1 O1 1_555 1_555
Zn2 O1 1_555 1_555
Zn3 O1 1_555 1_555
O1 H1 1_555 1_555
O2 Zn1 1_555 1_555
H2 O2 1_555 1_555
N1 C1 1_555 1_555
N2 Zn1 1_555 1_555
N3 Zn3 1_555 1_555
N4 N3 1_555 1_555
N5 N4 1_555 1_555
N6 Zn1 1_555 1_555
N7 N6 1_555 1_555
N8 N7 1_555 1_555
N9 N8 1_555 1_555
C1 N2 1_555 1_555
C2 N1 1_555 1_555
O3 H3 1_555 1_555
H4 O3 1_555 1_555
Zn1B O1B 1_555 1_555
Zn1C N1 1_555 1_555
Zn1A N1B 1_555 1_555
Zn1E O2E 1_555 1_555
Zn2B O1B 1_555 1_555
Zn2E O2 1_555 1_555
Zn2F N5 1_555 1_555
Zn2A N8 1_555 1_555
Zn2D N5B 1_555 1_555
Zn2C N8B 1_555 1_555
Zn3A N9 1_555 1_555
Zn3A_2 N9B 1_555 1_555
O1B Zn3 1_555 1_555
H1B O1B 1_555 1_555
O2E Zn2 1_555 1_555
O2B Zn1B 1_555 1_555
O2G Zn2B 1_555 1_555
H2E O2E 1_555 1_555
H2B O2B 1_555 1_555
H2G O2G 1_555 1_555
N1B C1B 1_555 1_555
N1C Zn1 1_555 1_555
N1A Zn1B 1_555 1_555
N2B Zn1B 1_555 1_555
N3B Zn3 1_555 1_555
N4B N3B 1_555 1_555
N5B N4B 1_555 1_555
N5F Zn2 1_555 1_555
N5D Zn2B 1_555 1_555
N6B Zn1B 1_555 1_555
N7B N6B 1_555 1_555
N8B N7B 1_555 1_555
N8A Zn2 1_555 1_555
N8C Zn2B 1_555 1_555
N9B N8B 1_555 1_555
N9A Zn3 1_555 1_555
N9C Zn3 1_555 1_555
C1B N2B 1_555 1_555
C2B N1B 1_555 1_555
N2 N3 1_555 1_555
N5 C1 1_555 1_555
N6 C2 1_555 1_555
N9 C2 1_555 1_555
N2B N3B 1_555 1_555
N5B C1B 1_555 1_555
N6B C2B 1_555 1_555
N8A N9A 1_555 1_555
N8C N9C 1_555 1_555
N9B C2B 1_555 1_555

#END
