
#######################################################################
#
#                 Cambridge Crystallographic Data Centre
#                                CCDC 
#
#######################################################################
#
# If this CIF has been generated from an entry in the Cambridge 
# Structural Database, then it will include bibliographic, chemical, 
# crystal, experimental, refinement or atomic coordinate data resulting 
# from the CCDC's data processing and validation procedures.
#
#######################################################################

data_HOFSOL
_symmetry_cell_setting           monoclinic
_symmetry_space_group_name_H-M   'P 21/c'
_symmetry_Int_Tables_number      14
_space_group_name_Hall           '-P 2ybc'
loop_
_symmetry_equiv_pos_site_id
_symmetry_equiv_pos_as_xyz
1 x,y,z
2 -x,1/2+y,1/2-z
3 -x,-y,-z
4 x,1/2-y,1/2+z
_cell_length_a                   11.124(2)
_cell_length_b                   15.709(3)
_cell_length_c                   11.337(2)
_cell_angle_alpha                90
_cell_angle_beta                 106.48(3)
_cell_angle_gamma                90
_cell_volume                     1899.72
loop_
_atom_site_label
_atom_site_type_symbol
_atom_site_fract_x
_atom_site_fract_y
_atom_site_fract_z
Cu1 Cu 0.76105(4) 0.12696(3) 0.03342(4)
N1 N 0.7597(2) 0.20714(17) -0.1100(3)
N2 N 0.7654(2) 0.30509(16) -0.3145(2)
N3 N 0.9030(2) 0.04938(17) 0.0204(3)
N4 N 0.6042(2) 0.05176(16) 0.0094(2)
C9 C 0.8485(3) 0.2639(2) -0.1062(3)
H6 H 0.9116 0.2713 -0.0330
C10 C 0.6742(4) 0.2008(3) -0.2189(4)
H7 H 0.6096 0.1616 -0.2274
C11 C 0.8510(4) 0.3122(2) -0.2063(3)
H8 H 0.9154 0.3516 -0.1980
C12 C 0.6765(3) 0.2488(3) -0.3185(3)
H9 H 0.6132 0.2416 -0.3916
C13 C 1.0240(3) 0.0668(2) 0.0746(3)
H10 H 1.0442 0.1132 0.1273
C14 C 0.8811(3) -0.0184(2) -0.0549(3)
H11 H 0.7986 -0.0330 -0.0951
C15 C 0.6146(3) -0.0279(2) 0.0527(3)
H12 H 0.6941 -0.0495 0.0906
C16 C 0.4877(3) 0.0788(2) -0.0430(3)
H13 H 0.4755 0.1339 -0.0740
Cu1C Cu 0.76105(4) 0.37304(3) 0.53342(4)
Cu1C_2 Cu 0.76105(4) 0.37304(3) -0.46658(4)
Cu1B Cu 1.23895(4) -0.12696(3) -0.03342(4)
Cu1B_2 Cu 0.23895(4) -0.12696(3) -0.03342(4)
N1C N 0.7597(2) 0.29286(17) 0.3900(3)
N2C N 0.7654(2) 0.19491(16) 0.1855(2)
N2_2 N 0.7654(2) 0.30509(16) 0.6855(2)
N3B N 1.0970(2) -0.04938(17) -0.0204(3)
N3C N 0.9030(2) 0.45062(17) 0.5204(3)
N4B N 0.3958(2) -0.05176(16) -0.0094(2)
N4C N 0.6042(2) 0.44824(16) 0.5094(2)
C9C C 0.8485(3) 0.2361(2) 0.3938(3)
H6C H 0.9116 0.2287 0.4670
C10C C 0.6742(4) 0.2992(3) 0.2811(4)
H7C H 0.6096 0.3384 0.2726
C11C C 0.8510(4) 0.1878(2) 0.2937(3)
H8C H 0.9154 0.1484 0.3020
C12C C 0.6765(3) 0.2512(3) 0.1815(3)
H9C H 0.6132 0.2584 0.1084
C13B C 0.9760(3) -0.0668(2) -0.0746(3)
H10B H 0.9558 -0.1132 -0.1273
C14B C 1.1189(3) 0.0184(2) 0.0549(3)
H11B H 1.2014 0.0330 0.0951
C15B C 0.3854(3) 0.0279(2) -0.0527(3)
H12B H 0.3059 0.0495 -0.0906
C16B C 0.5123(3) -0.0788(2) 0.0430(3)
H13B H 0.5245 -0.1339 0.0740
S1 S 0.28990(8) 0.22243(5) 0.60633(8)
O1 O 0.3362(2) 0.22587(15) 0.7400(2)
O2 O 0.3744(3) 0.26158(16) 0.5475(3)
O3 O 0.1622(2) 0.25185(16) 0.5607(3)
O4 O -0.0240(2) -0.00017(17) 0.3174(3)
O5 O 0.0789(2) -0.12285(16) 0.3329(3)
H1 H 0.0136 -0.1385 0.2832
O6 O 0.5910(3) -0.04670(18) 0.7356(3)
O7 O 0.4912(2) -0.15758(16) 0.6277(3)
H2 H 0.5480 -0.1847 0.6745
C1 C 0.2862(3) 0.1122(2) 0.5684(3)
C2 C 0.1839(3) 0.0779(2) 0.4828(3)
H3 H 0.1152 0.1120 0.4460
C3 C 0.1832(3) -0.0077(2) 0.4512(3)
C4 C 0.2868(3) -0.0588(2) 0.5070(3)
H4 H 0.2871 -0.1160 0.4860
C5 C 0.3892(3) -0.0240(2) 0.5938(3)
C6 C 0.3876(3) 0.0613(2) 0.6237(3)
H5 H 0.4560 0.0846 0.6821
C7 C 0.0687(3) -0.0425(2) 0.3606(3)
C8 C 0.5009(3) -0.0761(2) 0.6604(3)
O8 O -0.1163(3) -0.1882(3) 0.1797(4)
H14 H -0.129(5) -0.205(4) 0.108(3)
H15 H -0.166(5) -0.208(4) 0.215(4)
loop_
_geom_bond_atom_site_label_1
_geom_bond_atom_site_label_2
_geom_bond_site_symmetry_1
_geom_bond_site_symmetry_2
Cu1 N1 1_555 1_555
S1 O1 1_555 1_555
O2 S1 1_555 1_555
O3 S1 1_555 1_555
O4 C7 1_555 1_555
O5 H1 1_555 1_555
O6 C8 1_555 1_555
O7 H2 1_555 1_555
N1 C9 1_555 1_555
N2 C11 1_555 1_555
N3 Cu1 1_555 1_555
N4 Cu1 1_555 1_555
C1 S1 1_555 1_555
C2 C1 1_555 1_555
H3 C2 1_555 1_555
C3 C2 1_555 1_555
C4 C3 1_555 1_555
H4 C4 1_555 1_555
C5 C4 1_555 1_555
C6 C1 1_555 1_555
H5 C6 1_555 1_555
C7 O5 1_555 1_555
C8 O7 1_555 1_555
C9 H6 1_555 1_555
C10 N1 1_555 1_555
H7 C10 1_555 1_555
C11 C9 1_555 1_555
H8 C11 1_555 1_555
C12 N2 1_555 1_555
H9 C12 1_555 1_555
C13 N3 1_555 1_555
H10 C13 1_555 1_555
C14 N3 1_555 1_555
H11 C14 1_555 1_555
C15 N4 1_555 1_555
H12 C15 1_555 1_555
C16 N4 1_555 1_555
H13 C16 1_555 1_555
O8 H14 1_555 1_555
H15 O8 1_555 1_555
Cu1C N1C 1_555 1_555
Cu1C_2 N2 1_555 1_555
Cu1B N3B 1_555 1_555
Cu1B_2 N4B 1_555 1_555
N1C C9C 1_555 1_555
N2C Cu1 1_555 1_555
N2_2 Cu1C 1_555 1_555
N3B C13B 1_555 1_555
N3C Cu1C 1_555 1_555
N4B C15B 1_555 1_555
N4C Cu1C 1_555 1_555
C9C H6C 1_555 1_555
C10C N1C 1_555 1_555
H7C C10C 1_555 1_555
C11C N2C 1_555 1_555
H8C C11C 1_555 1_555
C12C N2C 1_555 1_555
H9C C12C 1_555 1_555
C13B C14 1_555 1_555
H10B C13B 1_555 1_555
C14B C13 1_555 1_555
H11B C14B 1_555 1_555
C15B C16 1_555 1_555
H12B C15B 1_555 1_555
C16B C15 1_555 1_555
H13B C16B 1_555 1_555
C3 C7 1_555 1_555
C5 C6 1_555 1_555
C5 C8 1_555 1_555
C10 C12 1_555 1_555
N3B C14B 1_555 1_555
N4B C16B 1_555 1_555
C9C C11C 1_555 1_555
C10C C12C 1_555 1_555

#END
