
#######################################################################
#
#                 Cambridge Crystallographic Data Centre
#                                CCDC 
#
#######################################################################
#
# If this CIF has been generated from an entry in the Cambridge 
# Structural Database, then it will include bibliographic, chemical, 
# crystal, experimental, refinement or atomic coordinate data resulting 
# from the CCDC's data processing and validation procedures.
#
#######################################################################

data_HOJLID
_symmetry_cell_setting           monoclinic
_symmetry_space_group_name_H-M   'C 2'
_symmetry_Int_Tables_number      5
_space_group_name_Hall           'C 2y'
loop_
_symmetry_equiv_pos_site_id
_symmetry_equiv_pos_as_xyz
1 x,y,z
2 -x,y,-z
3 1/2+x,1/2+y,z
4 1/2-x,1/2+y,-z
_cell_length_a                   19.870(16)
_cell_length_b                   22.960(15)
_cell_length_c                   48.42(4)
_cell_angle_alpha                90
_cell_angle_beta                 96.63(3)
_cell_angle_gamma                90
_cell_volume                     21942.2
loop_
_atom_site_label
_atom_site_type_symbol
_atom_site_fract_x
_atom_site_fract_y
_atom_site_fract_z
O17 O -0.3738(5) -0.6059(4) 1.8784(2)
O18 O -0.2373(5) -0.6501(4) 1.88929(19)
O19 O -0.1019(5) -0.6031(4) 1.9088(2)
O20 O -0.0584(5) -0.4801(5) 1.9021(3)
O21 O -0.1090(6) -0.3667(5) 1.8821(3)
O22 O -0.2718(7) -0.2995(8) 1.8597(5)
C111 C -0.3413(6) -0.6396(6) 1.8591(3)
H87 H -0.3190 -0.6137 1.8472
H88 H -0.3751 -0.6617 1.8474
C112 C -0.2908(6) -0.6801(5) 1.8734(3)
H89 H -0.3130 -0.7055 1.8855
H90 H -0.2722 -0.7042 1.8597
C113 C -0.1783(5) -0.6832(5) 1.8979(3)
H91 H -0.1535 -0.6901 1.8821
H92 H -0.1913 -0.7207 1.9049
C114 C -0.1337(6) -0.6523(5) 1.9201(2)
H93 H -0.1605 -0.6392 1.9345
H94 H -0.0993 -0.6788 1.9285
C115 C -0.0619(9) -0.5685(6) 1.9287(3)
H95 H -0.0330 -0.5937 1.9411
H96 H -0.0914 -0.5474 1.9398
C116 C -0.0190(7) -0.5262(6) 1.9154(4)
H97 H 0.0147 -0.5101 1.9294
H98 H 0.0046 -0.5464 1.9018
C117 C -0.0199(6) -0.4369(5) 1.8895(3)
H99 H 0.0150 -0.4557 1.8803
H100 H 0.0020 -0.4114 1.9038
C118 C -0.0642(7) -0.4020(5) 1.8690(2)
H101 H -0.0364 -0.3777 1.8585
H102 H -0.0901 -0.4280 1.8560
C119 C -0.1565(8) -0.3335(8) 1.8642(4)
H103 H -0.1675 -0.3538 1.8467
H104 H -0.1370 -0.2960 1.8604
C120 C -0.2196(8) -0.3247(12) 1.8781(4)
H105 H -0.2348 -0.3619 1.8846
H106 H -0.2095 -0.2996 1.8942
C121 C -0.3027(11) -0.3359(14) 1.8383(4)
H107 H -0.2702 -0.3650 1.8338
H108 H -0.3153 -0.3128 1.8218
C122 C -0.3638(11) -0.3657(11) 1.8464(4)
H109 H -0.4035 -0.3515 1.8349
H110 H -0.3601 -0.4072 1.8431
C123 C -0.3727(9) -0.3560(7) 1.8760(3)
H111 H -0.3890 -0.3166 1.8782
H112 H -0.3291 -0.3596 1.8871
C124 C -0.4209(8) -0.3977(7) 1.8862(3)
H113 H -0.4542 -0.3766 1.8954
H114 H -0.3966 -0.4236 1.8997
C125 C -0.4560(8) -0.4328(6) 1.8630(3)
H115 H -0.4229 -0.4483 1.8517
H116 H -0.4869 -0.4080 1.8513
C126 C -0.4946(6) -0.4817(5) 1.8741(4)
H117 H -0.5226 -0.4669 1.8877
H118 H -0.5240 -0.4996 1.8591
C127 C -0.4461(7) -0.5260(6) 1.8874(3)
H119 H -0.4109 -0.5066 1.8996
H120 H -0.4698 -0.5523 1.8986
C128 C -0.4147(8) -0.5597(6) 1.8659(3)
H121 H -0.4500 -0.5757 1.8526
H122 H -0.3871 -0.5340 1.8560
O23 O -0.0983(8) -0.7211(7) 1.3788(4)
O24 O -0.2467(11) -0.8110(10) 1.3679(4)
O25 O -0.3920(15) -0.7413(13) 1.3890(6)
O26 O -0.4657(18) -0.5989(14) 1.3703(8)
O27 O -0.3667(12) -0.4800(12) 1.3609(6)
O28 O -0.2580(11) -0.4427(14) 1.3915(5)
C129 C -0.1693(9) -0.7314(9) 1.3761(6)
H123 H -0.1882 -0.7234 1.3571
H124 H -0.1902 -0.7050 1.3882
C130 C -0.1856(11) -0.7922(10) 1.3832(6)
H125 H -0.1489 -0.8176 1.3793
H126 H -0.1897 -0.7948 1.4030
C131 C -0.3047(11) -0.8107(13) 1.3825(6)
H127 H -0.2919 -0.7984 1.4015
H128 H -0.3231 -0.8498 1.3828
C132 C -0.3577(15) -0.7705(18) 1.3689(5)
H129 H -0.3366 -0.7420 1.3578
H130 H -0.3901 -0.7926 1.3565
C133 C -0.3954(16) -0.6797(13) 1.3865(9)
H131 H -0.3615 -0.6665 1.3749
H132 H -0.3853 -0.6621 1.4047
C134 C -0.4637(15) -0.6605(14) 1.3739(10)
H133 H -0.4747 -0.6793 1.3560
H134 H -0.4974 -0.6721 1.3858
C135 C -0.4144(18) -0.5759(13) 1.3553(12)
H135 H -0.4149 -0.5963 1.3377
H136 H -0.3705 -0.5820 1.3659
C136 C -0.4248(12) -0.5124(15) 1.3499(8)
H137 H -0.4334 -0.5057 1.3300
H138 H -0.4640 -0.4992 1.3583
C137 C -0.3051(12) -0.4957(18) 1.3509(6)
H139 H -0.2994 -0.4727 1.3345
H140 H -0.3072 -0.5364 1.3454
C138 C -0.2458(13) -0.4866(16) 1.3720(9)
H141 H -0.2351 -0.5228 1.3818
H142 H -0.2070 -0.4756 1.3628
C139 C -0.2001(12) -0.4252(10) 1.4096(6)
H143 H -0.2137 -0.3979 1.4233
H144 H -0.1684 -0.4054 1.3990
C140 C -0.1659(11) -0.4765(15) 1.4243(6)
H145 H -0.1619 -0.4703 1.4442
H146 H -0.1930 -0.5112 1.4200
C141 C -0.0973(13) -0.4847(11) 1.4153(7)
H147 H -0.1015 -0.4898 1.3953
H148 H -0.0703 -0.4501 1.4199
C142 C -0.0624(12) -0.5361(10) 1.4289(4)
H149 H -0.0958 -0.5639 1.4339
H150 H -0.0351 -0.5240 1.4459
C143 C -0.0182(10) -0.5644(9) 1.4099(5)
H151 H -0.0157 -0.5399 1.3937
H152 H 0.0273 -0.5689 1.4193
C144 C -0.0463(12) -0.6224(9) 1.4010(4)
H153 H -0.0287 -0.6517 1.4144
H154 H -0.0953 -0.6217 1.4005
C145 C -0.0279(9) -0.6379(8) 1.3730(5)
H155 H 0.0171 -0.6550 1.3748
H156 H -0.0273 -0.6031 1.3617
C146 C -0.0778(10) -0.6803(10) 1.3591(4)
H157 H -0.1172 -0.6594 1.3505
H158 H -0.0576 -0.7009 1.3447
Zn1 Zn -0.23559(3) -0.48375(3) 2.17677(1)
Zn2 Zn -0.25178(3) -0.48339(3) 2.116206(12)
Zn3 Zn -0.22277(4) -0.61474(3) 1.677332(16)
Zn4 Zn -0.23957(3) -0.61452(3) 1.616913(16)
O1 O -0.3033(2) -0.4180(2) 2.17002(11)
O2 O -0.3244(2) -0.4250(2) 2.12309(11)
O3 O -0.6732(2) -0.04826(19) 2.16873(10)
O4 O -0.6747(3) -0.0427(2) 2.12230(12)
O5 O -0.1606(2) -0.4263(2) 2.17229(10)
O6 O -0.1822(2) -0.4182(2) 2.12600(11)
O7 O 0.1848(3) -0.0381(2) 2.16628(11)
O8 O 0.1859(3) -0.0499(2) 2.12124(12)
O9 O -0.2965(3) -0.5556(3) 1.66591(15)
O10 O -0.3098(3) -0.5521(3) 1.62076(15)
O11 O -0.6513(3) -0.1757(3) 1.67288(14)
O12 O -0.6688(3) -0.1768(3) 1.62629(15)
O13 O -0.1529(3) -0.5535(2) 1.67099(14)
O14 O -0.1642(3) -0.5560(2) 1.62402(13)
O15 O 0.2111(3) -0.1797(2) 1.67068(15)
O16 O 0.1907(3) -0.1731(3) 1.62593(12)
C1 C -0.3311(4) -0.4007(3) 2.14812(17)
C2 C -0.3781(2) -0.35006(17) 2.14621(9)
C3 C -0.3861(3) -0.3212(2) 2.17087(8)
H1 H -0.3620 -0.3334 2.1875
C4 C -0.4303(3) -0.2743(2) 2.17073(8)
H2 H -0.4356 -0.2550 2.1872
C5 C -0.4664(2) -0.25607(17) 2.14593(9)
C6 C -0.4584(2) -0.2849(2) 2.12128(8)
H3 H -0.4826 -0.2727 2.1047
C7 C -0.4143(2) -0.3319(2) 2.12141(8)
H4 H -0.4089 -0.3512 2.1049
C8 C -0.5169(2) -0.20705(18) 2.14630(10)
C9 C -0.5430(3) -0.1912(2) 2.17065(8)
H5 H -0.5309 -0.2121 2.1869
C10 C -0.5872(3) -0.1443(2) 2.17065(8)
H6 H -0.6047 -0.1337 2.1869
C11 C -0.6053(2) -0.11319(17) 2.14630(9)
C12 C -0.5792(3) -0.1290(2) 2.12195(8)
H7 H -0.5913 -0.1082 2.1057
C13 C -0.5350(3) -0.1759(2) 2.12195(8)
H8 H -0.5175 -0.1865 2.1057
C14 C -0.6551(3) -0.0655(2) 2.14560(13)
C15 C -0.1558(3) -0.4046(2) 2.14904(15)
C16 C -0.10733(18) -0.35044(14) 2.14918(8)
C17 C -0.10207(19) -0.32321(16) 2.12388(7)
H9 H -0.1267 -0.3372 2.1077
C18 C -0.0601(2) -0.27508(16) 2.12272(7)
H10 H -0.0566 -0.2569 2.1058
C19 C -0.0233(2) -0.25417(16) 2.14685(8)
C20 C -0.0286(2) -0.28140(19) 2.17215(7)
H11 H -0.0040 -0.2674 2.1883
C21 C -0.0706(2) -0.32954(18) 2.17332(6)
H12 H -0.0741 -0.3478 2.1902
C22 C 0.0243(2) -0.20388(17) 2.14621(9)
C23 C 0.0548(3) -0.1933(2) 2.12229(8)
H13 H 0.0448 -0.2169 2.1067
C24 C 0.1004(3) -0.1476(2) 2.12160(8)
H14 H 0.1209 -0.1405 2.1056
C25 C 0.1154(2) -0.11234(17) 2.14485(9)
C26 C 0.0849(2) -0.1229(2) 2.16878(8)
H15 H 0.0949 -0.0994 2.1843
C27 C 0.0393(2) -0.1687(2) 2.16946(8)
H16 H 0.0189 -0.1757 2.1855
C28 C 0.1647(3) -0.0646(3) 2.14372(16)
C29 C -0.3210(4) -0.5371(3) 1.64287(19)
C30 C -0.3731(3) -0.4909(2) 1.64508(14)
C31 C -0.3909(4) -0.4703(3) 1.67025(11)
H17 H -0.3725 -0.4874 1.6868
C32 C -0.4362(4) -0.4243(3) 1.67060(12)
H18 H -0.4481 -0.4105 1.6874
C33 C -0.4636(3) -0.3987(3) 1.64580(14)
C34 C -0.4458(4) -0.4193(3) 1.62064(12)
H19 H -0.4642 -0.4022 1.6040
C35 C -0.4006(4) -0.4654(3) 1.62028(11)
H20 H -0.3887 -0.4792 1.6034
C36 C -0.5093(4) -0.3434(3) 1.64808(14)
C37 C -0.5210(4) -0.3180(3) 1.67315(11)
H21 H -0.5007 -0.3334 1.6898
C38 C -0.5630(3) -0.2696(3) 1.67329(10)
H22 H -0.5708 -0.2526 1.6901
C39 C -0.5934(3) -0.2466(2) 1.64835(12)
C40 C -0.5817(4) -0.2720(3) 1.62328(10)
H23 H -0.6020 -0.2567 1.6066
C41 C -0.5397(4) -0.3204(3) 1.62315(11)
H24 H -0.5319 -0.3374 1.6064
C42 C -0.6420(3) -0.1969(3) 1.64847(16)
C43 C -0.1422(3) -0.5332(3) 1.64716(16)
C44 C -0.0934(3) -0.4806(2) 1.64773(13)
C45 C -0.0630(3) -0.4577(3) 1.67267(10)
H25 H -0.0719 -0.4740 1.6895
C46 C -0.0192(3) -0.4105(3) 1.67252(10)
H26 H 0.0012 -0.3952 1.6892
C47 C -0.0058(3) -0.3862(2) 1.64743(12)
C48 C -0.0363(4) -0.4092(3) 1.62248(10)
H27 H -0.0273 -0.3929 1.6057
C49 C -0.0800(4) -0.4563(3) 1.62263(11)
H28 H -0.1004 -0.4717 1.6059
C50 C 0.0418(3) -0.3364(2) 1.64843(9)
C51 C 0.0669(3) -0.3097(2) 1.67325(8)
H29 H 0.0539 -0.3230 1.6900
C52 C 0.1112(3) -0.2629(2) 1.67306(9)
H30 H 0.1280 -0.2450 1.6897
C53 C 0.1306(3) -0.2429(2) 1.64805(10)
C54 C 0.1055(3) -0.2697(2) 1.62323(9)
H31 H 0.1185 -0.2563 1.6065
C55 C 0.0612(3) -0.3165(2) 1.62342(8)
H32 H 0.0444 -0.3344 1.6068
C56 C 0.1770(3) -0.1934(3) 1.64739(18)
N1 N -0.25275(17) -0.48092(18) 2.07473(5)
C57 C -0.31308(15) -0.4902(2) 2.05772(7)
H33 H -0.3533 -0.4949 2.0655
C58 C -0.31324(18) -0.4925(3) 2.02903(7)
H34 H -0.3536 -0.4987 2.0177
C59 C -0.2531(2) -0.4855(3) 2.01734(5)
C60 C -0.19274(18) -0.4762(2) 2.03434(8)
H35 H -0.1525 -0.4715 2.0265
C61 C -0.19258(15) -0.4739(2) 2.06303(7)
H36 H -0.1522 -0.4677 2.0744
C62 C -0.2538(3) -0.4887(3) 1.98602(8)
C63 C -0.2411(4) -0.4407(2) 1.96992(12)
C64 C -0.2403(4) -0.4469(2) 1.94140(12)
H37 H -0.2318 -0.4147 1.9306
C65 C -0.2521(4) -0.5011(3) 1.92898(8)
C66 C -0.2648(4) -0.5491(2) 1.94508(10)
H38 H -0.2727 -0.5853 1.9368
C67 C -0.2656(4) -0.5429(2) 1.97360(10)
C68 C -0.2195(7) -0.3861(5) 1.9858(2)
H39 H -0.2116 -0.3557 1.9730
H40 H -0.1786 -0.3936 1.9978
H41 H -0.2545 -0.3743 1.9967
C69 C -0.2634(12) -0.5974(6) 1.9913(3)
H42 H -0.2731 -0.6307 1.9795
H43 H -0.2966 -0.5945 2.0041
H44 H -0.2192 -0.6014 2.0014
N2 N -0.2525(4) -0.5153(3) 1.90124(13)
H45 H -0.2659 -0.5487 1.8947
C70 C -0.2283(5) -0.4687(4) 1.88371(17)
H46 H -0.1864 -0.4517 1.8924
H47 H -0.2620 -0.4383 1.8800
C71 C -0.2169(4) -0.5015(3) 1.85686(8)
C72 C -0.2562(3) -0.4731(2) 1.83533(12)
H48 H -0.2827 -0.4414 1.8391
C73 C -0.2557(3) -0.4921(2) 1.80809(10)
C74 C -0.2160(3) -0.5395(2) 1.80238(8)
C75 C -0.1768(3) -0.5679(2) 1.82392(12)
C76 C -0.1773(3) -0.5489(3) 1.85115(10)
H49 H -0.1510 -0.5679 1.8656
C77 C -0.3016(7) -0.4616(7) 1.7850(3)
H50 H -0.3260 -0.4309 1.7928
H51 H -0.3330 -0.4892 1.7759
H52 H -0.2744 -0.4456 1.7717
C78 C -0.1384(5) -0.6221(4) 1.81945(19)
H53 H -0.1157 -0.6353 1.8369
H54 H -0.1055 -0.6143 1.8069
H55 H -0.1691 -0.6516 1.8117
C79 C -0.2171(3) -0.5612(2) 1.77356(8)
C80 C -0.1678(3) -0.5406(3) 1.75787(11)
H56 H -0.1347 -0.5150 1.7657
C81 C -0.1678(3) -0.5584(3) 1.73042(10)
H57 H -0.1348 -0.5446 1.7199
N3 N -0.2172(3) -0.5967(2) 1.71866(8)
C82 C -0.2666(3) -0.6173(3) 1.73435(10)
H58 H -0.2996 -0.6429 1.7265
C83 C -0.2665(3) -0.5995(3) 1.76180(10)
H59 H -0.2995 -0.6133 1.7723
N4 N -0.2453(3) -0.6182(2) 1.57442(8)
C84 C -0.3075(2) -0.6264(3) 1.55864(11)
H60 H -0.3462 -0.6325 1.5674
C85 C -0.3120(2) -0.6256(4) 1.52978(10)
H61 H -0.3536 -0.6311 1.5192
C86 C -0.2542(3) -0.6166(3) 1.51670(8)
C87 C -0.1919(3) -0.6084(3) 1.53249(10)
H62 H -0.1532 -0.6023 1.5237
C88 C -0.1874(2) -0.6092(3) 1.56134(10)
H63 H -0.1458 -0.6037 1.5719
C89 C -0.2595(6) -0.6103(5) 1.48712(18)
C90 C -0.2433(6) -0.6576(4) 1.4712(2)
C91 C -0.2443(6) -0.6519(6) 1.4426(2)
H64 H -0.2335 -0.6836 1.4320
C92 C -0.2614(8) -0.5988(8) 1.4299(2)
C93 C -0.2775(11) -0.5515(6) 1.4458(3)
H65 H -0.2889 -0.5160 1.4372
C94 C -0.2766(10) -0.5572(5) 1.4744(3)
C95 C -0.254(2) -0.7185(9) 1.4822(6)
H66 H -0.2633 -0.7162 1.5011
H67 H -0.2138 -0.7412 1.4811
H68 H -0.2915 -0.7365 1.4711
C96 C -0.2934(16) -0.5049(10) 1.4910(5)
H69 H -0.2984 -0.4714 1.4790
H70 H -0.2576 -0.4981 1.5057
H71 H -0.3350 -0.5117 1.4987
N5 N -0.2572(9) -0.6143(8) 1.3986(3)
H72 H -0.2897 -0.6347 1.3903
C97 C -0.2185(11) -0.6021(11) 1.3871(4)
H73 H -0.1809 -0.6283 1.3923
H74 H -0.2039 -0.5636 1.3935
C98 C -0.2282(5) -0.5998(4) 1.35491(12)
C99 C -0.2620(4) -0.6283(3) 1.33207(17)
H75 H -0.2861 -0.6622 1.3346
C100 C -0.2599(4) -0.6060(3) 1.30549(14)
C101 C -0.2238(4) -0.5553(3) 1.30175(10)
C102 C -0.1900(4) -0.5268(3) 1.32459(13)
C103 C -0.1921(4) -0.5490(4) 1.35117(11)
H76 H -0.1695 -0.5300 1.3665
C104 C -0.2903(8) -0.6455(6) 1.2827(3)
H77 H -0.3097 -0.6789 1.2907
H78 H -0.2557 -0.6579 1.2717
H79 H -0.3249 -0.6249 1.2711
C105 C -0.1522(17) -0.4697(10) 1.3229(8)
H80 H -0.1541 -0.4578 1.3038
H81 H -0.1057 -0.4748 1.3304
H82 H -0.1727 -0.4404 1.3333
C106 C -0.2240(3) -0.5337(3) 1.27281(7)
C107 C -0.1658(2) -0.5361(3) 1.25945(10)
H83 H -0.1256 -0.5500 1.2689
C108 C -0.16775(18) -0.5179(2) 1.23200(9)
H84 H -0.1288 -0.5195 1.2231
N6 N -0.2279(2) -0.49714(18) 1.21791(7)
C109 C -0.28611(18) -0.4947(2) 1.23128(9)
H85 H -0.3264 -0.4808 1.2219
C110 C -0.2842(2) -0.5129(3) 1.25873(9)
H86 H -0.3231 -0.5113 1.2677
Zn1_2 Zn -0.23559(3) -0.48375(3) 1.17677(1)
Zn1B Zn -0.73559(3) 0.01625(3) 2.17677(1)
Zn1B_2 Zn 0.26441(3) 0.01625(3) 2.17677(1)
Zn2B Zn -0.75178(3) 0.01661(3) 2.116206(12)
Zn2B_2 Zn 0.24822(3) 0.01661(3) 2.116206(12)
Zn3B Zn -0.72277(4) -0.11474(3) 1.677332(16)
Zn3B_2 Zn 0.27723(4) -0.11474(3) 1.677332(16)
Zn4B Zn -0.73957(3) -0.11452(3) 1.616913(16)
Zn4B_2 Zn 0.26043(3) -0.11452(3) 1.616913(16)
O3B O -0.1732(2) -0.54826(19) 2.16873(10)
O4B O -0.1747(3) -0.5427(2) 2.12230(12)
O7B O -0.3152(3) -0.5381(2) 2.16628(11)
O8B O -0.3141(3) -0.5499(2) 2.12124(12)
O11B O -0.1513(3) -0.6757(3) 1.67288(14)
O12B O -0.1688(3) -0.6768(3) 1.62629(15)
O15B O -0.2889(3) -0.6797(2) 1.67068(15)
O16B O -0.3093(3) -0.6731(3) 1.62593(12)
N6_2 N -0.2279(2) -0.49714(18) 2.21791(7)
loop_
_geom_bond_atom_site_label_1
_geom_bond_atom_site_label_2
_geom_bond_site_symmetry_1
_geom_bond_site_symmetry_2
Zn1 O1 1_555 1_555
Zn2 O2 1_555 1_555
Zn3 O9 1_555 1_555
Zn4 O10 1_555 1_555
O1 C1 1_555 1_555
O2 C1 1_555 1_555
O3 C14 1_555 1_555
O4 C14 1_555 1_555
O5 Zn1 1_555 1_555
O6 Zn2 1_555 1_555
O7 C28 1_555 1_555
O8 C28 1_555 1_555
O9 C29 1_555 1_555
O10 C29 1_555 1_555
O11 C42 1_555 1_555
O12 C42 1_555 1_555
O13 Zn3 1_555 1_555
O14 Zn4 1_555 1_555
O15 C56 1_555 1_555
O16 C56 1_555 1_555
C1 C2 1_555 1_555
C2 C3 1_555 1_555
C3 H1 1_555 1_555
C4 C3 1_555 1_555
H2 C4 1_555 1_555
C5 C4 1_555 1_555
C6 C5 1_555 1_555
H3 C6 1_555 1_555
C7 C2 1_555 1_555
H4 C7 1_555 1_555
C8 C5 1_555 1_555
C9 C8 1_555 1_555
H5 C9 1_555 1_555
C10 C9 1_555 1_555
H6 C10 1_555 1_555
C11 C10 1_555 1_555
C12 C11 1_555 1_555
H7 C12 1_555 1_555
C13 C8 1_555 1_555
H8 C13 1_555 1_555
C14 C11 1_555 1_555
C15 O5 1_555 1_555
C16 C15 1_555 1_555
C17 C16 1_555 1_555
H9 C17 1_555 1_555
C18 C17 1_555 1_555
H10 C18 1_555 1_555
C19 C18 1_555 1_555
C20 C19 1_555 1_555
H11 C20 1_555 1_555
C21 C16 1_555 1_555
H12 C21 1_555 1_555
C22 C19 1_555 1_555
C23 C22 1_555 1_555
H13 C23 1_555 1_555
C24 C23 1_555 1_555
H14 C24 1_555 1_555
C25 C24 1_555 1_555
C26 C25 1_555 1_555
H15 C26 1_555 1_555
C27 C22 1_555 1_555
H16 C27 1_555 1_555
C28 C25 1_555 1_555
C29 C30 1_555 1_555
C30 C31 1_555 1_555
C31 H17 1_555 1_555
C32 C31 1_555 1_555
H18 C32 1_555 1_555
C33 C32 1_555 1_555
C34 C33 1_555 1_555
H19 C34 1_555 1_555
C35 C30 1_555 1_555
H20 C35 1_555 1_555
C36 C33 1_555 1_555
C37 C36 1_555 1_555
H21 C37 1_555 1_555
C38 C37 1_555 1_555
H22 C38 1_555 1_555
C39 C38 1_555 1_555
C40 C39 1_555 1_555
H23 C40 1_555 1_555
C41 C36 1_555 1_555
H24 C41 1_555 1_555
C42 C39 1_555 1_555
C43 O13 1_555 1_555
C44 C43 1_555 1_555
C45 C44 1_555 1_555
H25 C45 1_555 1_555
C46 C45 1_555 1_555
H26 C46 1_555 1_555
C47 C46 1_555 1_555
C48 C47 1_555 1_555
H27 C48 1_555 1_555
C49 C44 1_555 1_555
H28 C49 1_555 1_555
C50 C47 1_555 1_555
C51 C50 1_555 1_555
H29 C51 1_555 1_555
C52 C51 1_555 1_555
H30 C52 1_555 1_555
C53 C52 1_555 1_555
C54 C53 1_555 1_555
H31 C54 1_555 1_555
C55 C50 1_555 1_555
H32 C55 1_555 1_555
C56 C53 1_555 1_555
N1 Zn2 1_555 1_555
C57 N1 1_555 1_555
H33 C57 1_555 1_555
C58 C57 1_555 1_555
H34 C58 1_555 1_555
C59 C58 1_555 1_555
C60 C59 1_555 1_555
H35 C60 1_555 1_555
C61 N1 1_555 1_555
H36 C61 1_555 1_555
C62 C59 1_555 1_555
C63 C62 1_555 1_555
C64 C63 1_555 1_555
H37 C64 1_555 1_555
C65 C64 1_555 1_555
C66 C65 1_555 1_555
H38 C66 1_555 1_555
C67 C62 1_555 1_555
C68 C63 1_555 1_555
H39 C68 1_555 1_555
H40 C68 1_555 1_555
H41 C68 1_555 1_555
C69 C67 1_555 1_555
H42 C69 1_555 1_555
H43 C69 1_555 1_555
H44 C69 1_555 1_555
N2 C65 1_555 1_555
H45 N2 1_555 1_555
C70 N2 1_555 1_555
H46 C70 1_555 1_555
H47 C70 1_555 1_555
C71 C70 1_555 1_555
C72 C71 1_555 1_555
H48 C72 1_555 1_555
C73 C72 1_555 1_555
C74 C73 1_555 1_555
C75 C74 1_555 1_555
C76 C71 1_555 1_555
H49 C76 1_555 1_555
C77 C73 1_555 1_555
H50 C77 1_555 1_555
H51 C77 1_555 1_555
H52 C77 1_555 1_555
C78 C75 1_555 1_555
H53 C78 1_555 1_555
H54 C78 1_555 1_555
H55 C78 1_555 1_555
C79 C74 1_555 1_555
C80 C79 1_555 1_555
H56 C80 1_555 1_555
C81 C80 1_555 1_555
H57 C81 1_555 1_555
N3 Zn3 1_555 1_555
C82 N3 1_555 1_555
H58 C82 1_555 1_555
C83 C79 1_555 1_555
H59 C83 1_555 1_555
N4 Zn4 1_555 1_555
C84 N4 1_555 1_555
H60 C84 1_555 1_555
C85 C84 1_555 1_555
H61 C85 1_555 1_555
C86 C85 1_555 1_555
C87 C86 1_555 1_555
H62 C87 1_555 1_555
C88 N4 1_555 1_555
H63 C88 1_555 1_555
C89 C86 1_555 1_555
C90 C89 1_555 1_555
C91 C90 1_555 1_555
H64 C91 1_555 1_555
C92 C91 1_555 1_555
C93 C92 1_555 1_555
H65 C93 1_555 1_555
C94 C89 1_555 1_555
C95 C90 1_555 1_555
H66 C95 1_555 1_555
H67 C95 1_555 1_555
H68 C95 1_555 1_555
C96 C94 1_555 1_555
H69 C96 1_555 1_555
H70 C96 1_555 1_555
H71 C96 1_555 1_555
N5 C92 1_555 1_555
H72 N5 1_555 1_555
C97 N5 1_555 1_555
H73 C97 1_555 1_555
H74 C97 1_555 1_555
C98 C97 1_555 1_555
C99 C98 1_555 1_555
H75 C99 1_555 1_555
C100 C99 1_555 1_555
C101 C100 1_555 1_555
C102 C101 1_555 1_555
C103 C98 1_555 1_555
H76 C103 1_555 1_555
C104 C100 1_555 1_555
H77 C104 1_555 1_555
H78 C104 1_555 1_555
H79 C104 1_555 1_555
C105 C102 1_555 1_555
H80 C105 1_555 1_555
H81 C105 1_555 1_555
H82 C105 1_555 1_555
C106 C101 1_555 1_555
C107 C106 1_555 1_555
H83 C107 1_555 1_555
C108 C107 1_555 1_555
H84 C108 1_555 1_555
N6 C108 1_555 1_555
C109 N6 1_555 1_555
H85 C109 1_555 1_555
C110 C106 1_555 1_555
H86 C110 1_555 1_555
O17 C111 1_555 1_555
O18 C112 1_555 1_555
O19 C114 1_555 1_555
O20 C116 1_555 1_555
O21 C118 1_555 1_555
O22 C120 1_555 1_555
C111 H87 1_555 1_555
H88 C111 1_555 1_555
C112 C111 1_555 1_555
H89 C112 1_555 1_555
H90 C112 1_555 1_555
C113 O18 1_555 1_555
H91 C113 1_555 1_555
H92 C113 1_555 1_555
C114 C113 1_555 1_555
H93 C114 1_555 1_555
H94 C114 1_555 1_555
C115 O19 1_555 1_555
H95 C115 1_555 1_555
H96 C115 1_555 1_555
C116 C115 1_555 1_555
H97 C116 1_555 1_555
H98 C116 1_555 1_555
C117 O20 1_555 1_555
H99 C117 1_555 1_555
H100 C117 1_555 1_555
C118 C117 1_555 1_555
H101 C118 1_555 1_555
H102 C118 1_555 1_555
C119 O21 1_555 1_555
H103 C119 1_555 1_555
H104 C119 1_555 1_555
C120 C119 1_555 1_555
H105 C120 1_555 1_555
H106 C120 1_555 1_555
C121 O22 1_555 1_555
H107 C121 1_555 1_555
H108 C121 1_555 1_555
C122 C121 1_555 1_555
H109 C122 1_555 1_555
H110 C122 1_555 1_555
C123 C122 1_555 1_555
H111 C123 1_555 1_555
H112 C123 1_555 1_555
C124 C123 1_555 1_555
H113 C124 1_555 1_555
H114 C124 1_555 1_555
C125 C124 1_555 1_555
H115 C125 1_555 1_555
H116 C125 1_555 1_555
C126 C125 1_555 1_555
H117 C126 1_555 1_555
H118 C126 1_555 1_555
C127 C126 1_555 1_555
H119 C127 1_555 1_555
H120 C127 1_555 1_555
C128 O17 1_555 1_555
H121 C128 1_555 1_555
H122 C128 1_555 1_555
O23 C129 1_555 1_555
O24 C130 1_555 1_555
O25 C132 1_555 1_555
O26 C134 1_555 1_555
O27 C136 1_555 1_555
O28 C138 1_555 1_555
C129 H123 1_555 1_555
H124 C129 1_555 1_555
C130 C129 1_555 1_555
H125 C130 1_555 1_555
H126 C130 1_555 1_555
C131 O24 1_555 1_555
H127 C131 1_555 1_555
H128 C131 1_555 1_555
C132 C131 1_555 1_555
H129 C132 1_555 1_555
H130 C132 1_555 1_555
C133 O25 1_555 1_555
H131 C133 1_555 1_555
H132 C133 1_555 1_555
C134 C133 1_555 1_555
H133 C134 1_555 1_555
H134 C134 1_555 1_555
C135 O26 1_555 1_555
H135 C135 1_555 1_555
H136 C135 1_555 1_555
C136 C135 1_555 1_555
H137 C136 1_555 1_555
H138 C136 1_555 1_555
C137 O27 1_555 1_555
H139 C137 1_555 1_555
H140 C137 1_555 1_555
C138 C137 1_555 1_555
H141 C138 1_555 1_555
H142 C138 1_555 1_555
C139 O28 1_555 1_555
H143 C139 1_555 1_555
H144 C139 1_555 1_555
C140 C139 1_555 1_555
H145 C140 1_555 1_555
H146 C140 1_555 1_555
C141 C140 1_555 1_555
H147 C141 1_555 1_555
H148 C141 1_555 1_555
C142 C141 1_555 1_555
H149 C142 1_555 1_555
H150 C142 1_555 1_555
C143 C142 1_555 1_555
H151 C143 1_555 1_555
H152 C143 1_555 1_555
C144 C143 1_555 1_555
H153 C144 1_555 1_555
H154 C144 1_555 1_555
C145 C144 1_555 1_555
H155 C145 1_555 1_555
H156 C145 1_555 1_555
C146 O23 1_555 1_555
H157 C146 1_555 1_555
H158 C146 1_555 1_555
Zn1_2 N6 1_555 1_555
Zn1B O3 1_555 1_555
Zn1B_2 O7 1_555 1_555
Zn2B O4 1_555 1_555
Zn2B_2 O8 1_555 1_555
Zn3B O11 1_555 1_555
Zn3B_2 O15 1_555 1_555
Zn4B O12 1_555 1_555
Zn4B_2 O16 1_555 1_555
O3B Zn1 1_555 1_555
O4B Zn2 1_555 1_555
O7B Zn1 1_555 1_555
O8B Zn2 1_555 1_555
O11B Zn3 1_555 1_555
O12B Zn4 1_555 1_555
O15B Zn3 1_555 1_555
O16B Zn4 1_555 1_555
N6_2 Zn1 1_555 1_555
O6 C15 1_555 1_555
O14 C43 1_555 1_555
C6 C7 1_555 1_555
C12 C13 1_555 1_555
C20 C21 1_555 1_555
C26 C27 1_555 1_555
C34 C35 1_555 1_555
C40 C41 1_555 1_555
C48 C49 1_555 1_555
C54 C55 1_555 1_555
C60 C61 1_555 1_555
C66 C67 1_555 1_555
C75 C76 1_555 1_555
C81 N3 1_555 1_555
C82 C83 1_555 1_555
C87 C88 1_555 1_555
C93 C94 1_555 1_555
C102 C103 1_555 1_555
C109 C110 1_555 1_555
C127 C128 1_555 1_555
C145 C146 1_555 1_555

#END
