
#######################################################################
#
#                 Cambridge Crystallographic Data Centre
#                                CCDC 
#
#######################################################################
#
# If this CIF has been generated from an entry in the Cambridge 
# Structural Database, then it will include bibliographic, chemical, 
# crystal, experimental, refinement or atomic coordinate data resulting 
# from the CCDC's data processing and validation procedures.
#
#######################################################################

data_HOJNOL
_symmetry_cell_setting           orthorhombic
_symmetry_space_group_name_H-M   'F d d d'
_symmetry_Int_Tables_number      70
_space_group_name_Hall           '-F 2uv 2vw'
loop_
_symmetry_equiv_pos_site_id
_symmetry_equiv_pos_as_xyz
1 x,y,z
2 x,1/2+y,1/2+z
3 1/2+x,y,1/2+z
4 1/2+x,1/2+y,z
5 x,1/4-y,1/4-z
6 x,3/4-y,3/4-z
7 1/2+x,1/4-y,3/4-z
8 1/2+x,3/4-y,1/4-z
9 1/4-x,y,1/4-z
10 1/4-x,1/2+y,3/4-z
11 3/4-x,y,3/4-z
12 3/4-x,1/2+y,1/4-z
13 1/4-x,3/4-y,1/2+z
14 1/4-x,1/4-y,z
15 3/4-x,3/4-y,z
16 3/4-x,1/4-y,1/2+z
17 -x,-y,-z
18 -x,1/2-y,1/2-z
19 1/2-x,-y,1/2-z
20 1/2-x,1/2-y,-z
21 -x,3/4+y,3/4+z
22 -x,1/4+y,1/4+z
23 1/2-x,3/4+y,1/4+z
24 1/2-x,1/4+y,3/4+z
25 3/4+x,-y,3/4+z
26 3/4+x,1/2-y,1/4+z
27 1/4+x,-y,1/4+z
28 1/4+x,1/2-y,3/4+z
29 3/4+x,1/4+y,1/2-z
30 3/4+x,3/4+y,-z
31 1/4+x,1/4+y,-z
32 1/4+x,3/4+y,1/2-z
_cell_length_a                   8.8567(16)
_cell_length_b                   20.693(2)
_cell_length_c                   34.249(6)
_cell_angle_alpha                90
_cell_angle_beta                 90
_cell_angle_gamma                90
_cell_volume                     6276.87
loop_
_atom_site_label
_atom_site_type_symbol
_atom_site_fract_x
_atom_site_fract_y
_atom_site_fract_z
Sc1 Sc 0.3750 0.3750 0.63538(8)
O1 O 0.2404(9) 0.3334(4) 0.6794(2)
C1 C 0.1022(9) 0.3199(5) 0.6822(2)
O2 O 0.0061(10) 0.3352(4) 0.6573(2)
C2 C 0.0497(9) 0.2839(6) 0.7175(3)
C3 C 0.1504(9) 0.2624(6) 0.7449(3)
C4 C 0.1009(10) 0.2291(6) 0.7775(3)
O3 O 0.2445(8) 0.4576(3) 0.6354(2)
C5 C 0.1250 0.4861(4) 0.6250
C6 C 0.1250 0.5584(3) 0.6250
C7 C 0.2585(7) 0.59167(19) 0.6252(4)
H1 H 0.2541 0.2732 0.7423
H2 H 0.1720 0.2148 0.7964
H3 H 0.3514 0.5689 0.6265
O1Q O -0.2404(9) 0.1666(4) 0.8206(2)
C1Q C -0.1022(9) 0.1801(5) 0.8178(2)
O2Q O -0.0061(10) 0.1648(4) 0.8427(2)
C2Q C -0.0497(9) 0.2161(6) 0.7825(3)
C3Q C -0.1504(9) 0.2376(6) 0.7551(3)
C4Q C -0.1009(10) 0.2709(6) 0.7225(3)
H1Q H -0.2541 0.2268 0.7577
H2Q H -0.1720 0.2852 0.7036
O3D O 0.2445(8) 0.7924(3) 0.6146(2)
C5D C 0.1250 0.7639(4) 0.6250
C6D C 0.1250 0.6916(3) 0.6250
C7D C 0.2585(7) 0.65833(19) 0.6248(4)
H3D H 0.3514 0.6811 0.6235
O3H O 0.0055(8) 0.4576(3) 0.6146(2)
C7H C -0.0085(7) 0.59167(19) 0.6248(4)
H3H H -0.1014 0.5689 0.6235
O3M O 0.0055(8) 0.7924(3) 0.6354(2)
C7M C -0.0085(7) 0.65833(19) 0.6252(4)
H3M H -0.1014 0.6811 0.6265
Sc1Q Sc -0.3750 0.1250 0.86462(8)
O1N O 0.5096(9) 0.4166(4) 0.6794(2)
C1N C 0.6478(9) 0.4301(5) 0.6822(2)
O2N O 0.7439(10) 0.4148(4) 0.6573(2)
C2N C 0.7003(9) 0.4661(6) 0.7175(3)
C3N C 0.5996(9) 0.4876(6) 0.7449(3)
C4N C 0.6491(10) 0.5209(6) 0.7775(3)
H1N H 0.4959 0.4768 0.7423
H2N H 0.5780 0.5352 0.7964
O1BA O 0.9904(9) 0.5834(4) 0.8206(2)
C1BA C 0.8522(9) 0.5699(5) 0.8178(2)
O2BA O 0.7561(10) 0.5852(4) 0.8427(2)
C2BA C 0.7997(9) 0.5339(6) 0.7825(3)
C3BA C 0.9004(9) 0.5124(6) 0.7551(3)
C4BA C 0.8509(10) 0.4791(6) 0.7225(3)
H1BA H 1.0041 0.5232 0.7577
H2BA H 0.9220 0.4648 0.7036
Sc1R Sc 1.1250 0.6250 0.86462(8)
Sc1C Sc -0.1250 0.8750 0.63538(8)
Sc1U Sc 0.6250 0.6250 0.88538(8)
Sc1D Sc 0.3750 0.8750 0.61462(8)
Sc1V Sc 0.1250 0.1250 0.88538(8)
Sc1G Sc -0.1250 0.3750 0.61462(8)
Sc1G_2 Sc 0.8750 0.3750 0.61462(8)
O1EA O -0.5096(9) 0.0834(4) 0.8206(2)
O2V O -0.5061(10) 0.0852(4) 0.9073(2)
O2G O 0.5061(10) 0.4148(4) 0.5927(2)
O2H O 0.2439(10) 0.3352(4) 0.5927(2)
O2Y O -0.2439(10) 0.1648(4) 0.9073(2)
O3Q O -0.2445(8) 0.0424(3) 0.8646(2)
O3EA O -0.5055(8) 0.2076(3) 0.8646(2)
O3N O 0.5055(8) 0.2924(3) 0.6354(2)
O4 O 0.277(7) 0.194(2) 0.0030(15)
C8 C 0.285(10) 0.169(3) 0.0418(16)
O5? O 0.661(4) 0.0739(13) 0.0902(7)
C9? C 0.6250 0.1250 0.0640(10)
loop_
_geom_bond_atom_site_label_1
_geom_bond_atom_site_label_2
_geom_bond_site_symmetry_1
_geom_bond_site_symmetry_2
Sc1 O1 1_555 1_555
O1 C1 1_555 1_555
C1 O2 1_555 1_555
O2 Sc1G 1_555 1_555
C2 C1 1_555 1_555
C3 C2 1_555 1_555
C4 C3 1_555 1_555
O3 Sc1 1_555 1_555
C5 O3 1_555 1_555
C6 C5 1_555 1_555
C7 C6 1_555 1_555
H1 C3 1_555 1_555
H2 C4 1_555 1_555
H3 C7 1_555 1_555
O4 C8 1_555 1_555
O1Q C1Q 1_555 1_555
C1Q O2Q 1_555 1_555
O2Q Sc1V 1_555 1_555
C2Q C4 1_555 1_555
C3Q C2Q 1_555 1_555
C4Q C2 1_555 1_555
H1Q C3Q 1_555 1_555
H2Q C4Q 1_555 1_555
O3D C5D 1_555 1_555
C5D C6D 1_555 1_555
C6D C7D 1_555 1_555
C7D C7 1_555 1_555
H3D C7D 1_555 1_555
O3H C5 1_555 1_555
C7H C6 1_555 1_555
H3H C7H 1_555 1_555
O3M C5D 1_555 1_555
C7M C6D 1_555 1_555
H3M C7M 1_555 1_555
Sc1Q O1Q 1_555 1_555
O1N Sc1 1_555 1_555
C1N O1N 1_555 1_555
O2N C1N 1_555 1_555
C2N C1N 1_555 1_555
C3N C2N 1_555 1_555
C4N C3N 1_555 1_555
H1N C3N 1_555 1_555
H2N C4N 1_555 1_555
O1BA C1BA 1_555 1_555
C1BA O2BA 1_555 1_555
O2BA Sc1U 1_555 1_555
C2BA C4N 1_555 1_555
C3BA C2BA 1_555 1_555
C4BA C2N 1_555 1_555
H1BA C3BA 1_555 1_555
H2BA C4BA 1_555 1_555
Sc1R O1BA 1_555 1_555
Sc1C O3M 1_555 1_555
Sc1D O3D 1_555 1_555
Sc1G O3H 1_555 1_555
Sc1G_2 O2N 1_555 1_555
O1EA Sc1Q 1_555 1_555
O2V Sc1Q 1_555 1_555
O2G Sc1 1_555 1_555
O2H Sc1 1_555 1_555
O2Y Sc1Q 1_555 1_555
O3Q Sc1Q 1_555 1_555
O3EA Sc1Q 1_555 1_555
O3N Sc1 1_555 1_555
C1Q C2Q 1_555 1_555
C3Q C4Q 1_555 1_555
C7H C7M 1_555 1_555
C1BA C2BA 1_555 1_555
C3BA C4BA 1_555 1_555

#END
