
#######################################################################
#
#                 Cambridge Crystallographic Data Centre
#                                CCDC 
#
#######################################################################
#
# If this CIF has been generated from an entry in the Cambridge 
# Structural Database, then it will include bibliographic, chemical, 
# crystal, experimental, refinement or atomic coordinate data resulting 
# from the CCDC's data processing and validation procedures.
#
#######################################################################

data_HOLRAD
_symmetry_cell_setting           cubic
_symmetry_space_group_name_H-M   'F -4 3 m'
_symmetry_Int_Tables_number      216
_space_group_name_Hall           'F -4 2 3'
loop_
_symmetry_equiv_pos_site_id
_symmetry_equiv_pos_as_xyz
1 x,y,z
2 -x,-y,z
3 -x,y,-z
4 x,-y,-z
5 z,x,y
6 z,-x,-y
7 -z,-x,y
8 -z,x,-y
9 y,z,x
10 -y,z,-x
11 y,-z,-x
12 -y,-z,x
13 y,x,z
14 -y,-x,z
15 y,-x,-z
16 -y,x,-z
17 x,z,y
18 -x,z,-y
19 -x,-z,y
20 x,-z,-y
21 z,y,x
22 z,-y,-x
23 -z,y,-x
24 -z,-y,x
25 x,1/2+y,1/2+z
26 -x,1/2-y,1/2+z
27 -x,1/2+y,1/2-z
28 x,1/2-y,1/2-z
29 z,1/2+x,1/2+y
30 z,1/2-x,1/2-y
31 -z,1/2-x,1/2+y
32 -z,1/2+x,1/2-y
33 y,1/2+z,1/2+x
34 -y,1/2+z,1/2-x
35 y,1/2-z,1/2-x
36 -y,1/2-z,1/2+x
37 y,1/2+x,1/2+z
38 -y,1/2-x,1/2+z
39 y,1/2-x,1/2-z
40 -y,1/2+x,1/2-z
41 x,1/2+z,1/2+y
42 -x,1/2+z,1/2-y
43 -x,1/2-z,1/2+y
44 x,1/2-z,1/2-y
45 z,1/2+y,1/2+x
46 z,1/2-y,1/2-x
47 -z,1/2+y,1/2-x
48 -z,1/2-y,1/2+x
49 1/2+x,y,1/2+z
50 1/2-x,-y,1/2+z
51 1/2-x,y,1/2-z
52 1/2+x,-y,1/2-z
53 1/2+z,x,1/2+y
54 1/2+z,-x,1/2-y
55 1/2-z,-x,1/2+y
56 1/2-z,x,1/2-y
57 1/2+y,z,1/2+x
58 1/2-y,z,1/2-x
59 1/2+y,-z,1/2-x
60 1/2-y,-z,1/2+x
61 1/2+y,x,1/2+z
62 1/2-y,-x,1/2+z
63 1/2+y,-x,1/2-z
64 1/2-y,x,1/2-z
65 1/2+x,z,1/2+y
66 1/2-x,z,1/2-y
67 1/2-x,-z,1/2+y
68 1/2+x,-z,1/2-y
69 1/2+z,y,1/2+x
70 1/2+z,-y,1/2-x
71 1/2-z,y,1/2-x
72 1/2-z,-y,1/2+x
73 1/2+x,1/2+y,z
74 1/2-x,1/2-y,z
75 1/2-x,1/2+y,-z
76 1/2+x,1/2-y,-z
77 1/2+z,1/2+x,y
78 1/2+z,1/2-x,-y
79 1/2-z,1/2-x,y
80 1/2-z,1/2+x,-y
81 1/2+y,1/2+z,x
82 1/2-y,1/2+z,-x
83 1/2+y,1/2-z,-x
84 1/2-y,1/2-z,x
85 1/2+y,1/2+x,z
86 1/2-y,1/2-x,z
87 1/2+y,1/2-x,-z
88 1/2-y,1/2+x,-z
89 1/2+x,1/2+z,y
90 1/2-x,1/2+z,-y
91 1/2-x,1/2-z,y
92 1/2+x,1/2-z,-y
93 1/2+z,1/2+y,x
94 1/2+z,1/2-y,-x
95 1/2-z,1/2+y,-x
96 1/2-z,1/2-y,x
_cell_length_a                   25.6177(9)
_cell_length_b                   25.6177(9)
_cell_length_c                   25.6177(9)
_cell_angle_alpha                90
_cell_angle_beta                 90
_cell_angle_gamma                90
_cell_volume                     16812
loop_
_atom_site_label
_atom_site_type_symbol
_atom_site_fract_x
_atom_site_fract_y
_atom_site_fract_z
O1 O 0.4693(4) 0.4693(4) 0.3850(7)
O2 O 0.4690(6) 0.4690(6) 0.1169(6)
C1 C 0.5000 0.5000 0.3023(9)
C2 C 0.5000 0.5000 0.1921(17)
C3 C 0.4672(10) 0.4672(10) 0.2229(7)
C4 C 0.4712(9) 0.4712(9) 0.2722(7)
C5 C 0.5000 0.5000 0.1386(12)
C6 C 0.5000 0.5000 0.3608(7)
Zn1 Zn 0.45660(8) 0.45660(8) 0.04340(8)
O3 O 0.5000 0.5000 0.0000
Zn2 Zn 0.45638(7) 0.45638(7) 0.45638(7)
O4 O 0.5000 0.5000 0.5000
O1A O 0.5307(4) 0.5307(4) 0.3850(7)
O2A O 0.5310(6) 0.5310(6) 0.1169(6)
C3A C 0.5328(10) 0.5328(10) 0.2229(7)
C4A C 0.5288(9) 0.5288(9) 0.2722(7)
Zn1A Zn 0.54340(8) 0.54340(8) 0.04340(8)
Zn2A Zn 0.54362(7) 0.54362(7) 0.45638(7)
O1B O 0.5307(4) 0.4693(4) -0.3850(7)
O2B O 0.5310(6) 0.4690(6) -0.1169(6)
C1B C 0.5000 0.5000 -0.3023(9)
C2B C 0.5000 0.5000 -0.1921(17)
C3B C 0.5328(10) 0.4672(10) -0.2229(7)
C4B C 0.5288(9) 0.4712(9) -0.2722(7)
C5B C 0.5000 0.5000 -0.1386(12)
C6B C 0.5000 0.5000 -0.3608(7)
Zn1B Zn 0.54340(8) 0.45660(8) -0.04340(8)
O1C O 0.4693(4) 0.5307(4) -0.3850(7)
O2C O 0.4690(6) 0.5310(6) -0.1169(6)
C3C C 0.4672(10) 0.5328(10) -0.2229(7)
C4C C 0.4712(9) 0.5288(9) -0.2722(7)
Zn1C Zn 0.45660(8) 0.54340(8) -0.04340(8)
O1FA O 0.4693(4) 0.8850(7) -0.0307(4)
O2FA O 0.4690(6) 0.6169(6) -0.0310(6)
C1FA C 0.5000 0.8023(9) 0.0000
C2FA C 0.5000 0.6921(17) 0.0000
C3FA C 0.4672(10) 0.7229(7) -0.0328(10)
C4FA C 0.4712(9) 0.7722(7) -0.0288(9)
C5FA C 0.5000 0.6386(12) 0.0000
C6FA C 0.5000 0.8608(7) 0.0000
O1GA O 0.5307(4) 0.8850(7) 0.0307(4)
O2GA O 0.5310(6) 0.6169(6) 0.0310(6)
C3GA C 0.5328(10) 0.7229(7) 0.0328(10)
C4GA C 0.5288(9) 0.7722(7) 0.0288(9)
O1HA O 0.4693(4) 0.1150(7) 0.0307(4)
O2HA O 0.4690(6) 0.3831(6) 0.0310(6)
C1HA C 0.5000 0.1977(9) 0.0000
C2HA C 0.5000 0.3079(17) 0.0000
C3HA C 0.4672(10) 0.2771(7) 0.0328(10)
C4HA C 0.4712(9) 0.2278(7) 0.0288(9)
C5HA C 0.5000 0.3614(12) 0.0000
C6HA C 0.5000 0.1392(7) 0.0000
Zn2AA Zn 0.45638(7) 0.04362(7) 0.04362(7)
O1IA O 0.5307(4) 0.1150(7) -0.0307(4)
O2IA O 0.5310(6) 0.3831(6) -0.0310(6)
C3IA C 0.5328(10) 0.2771(7) -0.0328(10)
C4IA C 0.5288(9) 0.2278(7) -0.0288(9)
O1ZA O 0.8850(7) 0.4693(4) -0.0307(4)
O2ZA O 0.6169(6) 0.4690(6) -0.0310(6)
C1ZA C 0.8023(9) 0.5000 0.0000
C2ZA C 0.6921(17) 0.5000 0.0000
C3ZA C 0.7229(7) 0.4672(10) -0.0328(10)
C4ZA C 0.7722(7) 0.4712(9) -0.0288(9)
C5ZA C 0.6386(12) 0.5000 0.0000
C6ZA C 0.8608(7) 0.5000 0.0000
O1AB O 0.8850(7) 0.5307(4) 0.0307(4)
O2AB O 0.6169(6) 0.5310(6) 0.0310(6)
C3AB C 0.7229(7) 0.5328(10) 0.0328(10)
C4AB C 0.7722(7) 0.5288(9) 0.0288(9)
O1BB O 0.1150(7) 0.5307(4) -0.0307(4)
O2BB O 0.3831(6) 0.5310(6) -0.0310(6)
C1BB C 0.1977(9) 0.5000 0.0000
C2BB C 0.3079(17) 0.5000 0.0000
C3BB C 0.2771(7) 0.5328(10) -0.0328(10)
C4BB C 0.2278(7) 0.5288(9) -0.0288(9)
C5BB C 0.3614(12) 0.5000 0.0000
C6BB C 0.1392(7) 0.5000 0.0000
O1CB O 0.1150(7) 0.4693(4) 0.0307(4)
O2CB O 0.3831(6) 0.4690(6) 0.0310(6)
C3CB C 0.2771(7) 0.4672(10) 0.0328(10)
C4CB C 0.2278(7) 0.4712(9) 0.0288(9)
Zn2XA Zn 0.04362(7) 0.45638(7) 0.04362(7)
O1D O 0.3850(7) 0.4693(4) 0.4693(4)
O1F O 0.6150(7) 0.5307(4) 0.4693(4)
O1H O 0.4693(4) 0.3850(7) 0.4693(4)
O1K O 0.5307(4) 0.6150(7) 0.4693(4)
O1AA O 0.4693(4) 0.0307(4) 0.1150(7)
O1CA O 0.3850(7) 0.0307(4) 0.0307(4)
O1XA O 0.0307(4) 0.4693(4) 0.1150(7)
O1EB O 0.0307(4) 0.3850(7) 0.0307(4)
Zn2B Zn 0.54362(7) 0.45638(7) -0.45638(7)
Zn2B_2 Zn 0.54362(7) 0.45638(7) 0.54362(7)
Zn2C Zn 0.45638(7) 0.54362(7) -0.45638(7)
Zn2C_2 Zn 0.45638(7) 0.54362(7) 0.54362(7)
Zn2X Zn 0.45638(7) 0.95638(7) -0.04362(7)
Zn2Y Zn 0.54362(7) 0.04362(7) -0.04362(7)
Zn2Z Zn 0.54362(7) 0.95638(7) 0.04362(7)
Zn2VA Zn 0.95638(7) 0.45638(7) -0.04362(7)
Zn2WA Zn 0.04362(7) 0.54362(7) -0.04362(7)
Zn2YA Zn 0.95638(7) 0.54362(7) 0.04362(7)
O4X O 0.5000 0.0000 0.0000
O4VA O 0.0000 0.5000 0.0000
loop_
_geom_bond_atom_site_label_1
_geom_bond_atom_site_label_2
_geom_bond_site_symmetry_1
_geom_bond_site_symmetry_2
O1 C6 1_555 1_555
O2 C5 1_555 1_555
C1 C4 1_555 1_555
C2 C3 1_555 1_555
C3 C4 1_555 1_555
C5 C2 1_555 1_555
C6 C1 1_555 1_555
Zn1 O2 1_555 1_555
O3 Zn1 1_555 1_555
Zn2 O1 1_555 1_555
O4 Zn2 1_555 1_555
O1A C6 1_555 1_555
O2A C5 1_555 1_555
C3A C2 1_555 1_555
C4A C1 1_555 1_555
Zn1A O3 1_555 1_555
Zn2A O4 1_555 1_555
O1B C6B 1_555 1_555
O2B C5B 1_555 1_555
C1B C4B 1_555 1_555
C2B C3B 1_555 1_555
C3B C4B 1_555 1_555
C5B C2B 1_555 1_555
C6B C1B 1_555 1_555
Zn1B O3 1_555 1_555
O1C C6B 1_555 1_555
O2C C5B 1_555 1_555
C3C C2B 1_555 1_555
C4C C1B 1_555 1_555
Zn1C O3 1_555 1_555
O1FA C6FA 1_555 1_555
O2FA Zn1C 1_555 1_555
C1FA C4FA 1_555 1_555
C2FA C3FA 1_555 1_555
C3FA C4FA 1_555 1_555
C5FA O2FA 1_555 1_555
C6FA C1FA 1_555 1_555
O1GA C6FA 1_555 1_555
O2GA Zn1A 1_555 1_555
C3GA C2FA 1_555 1_555
C4GA C1FA 1_555 1_555
O1HA C6HA 1_555 1_555
O2HA Zn1 1_555 1_555
C1HA C4HA 1_555 1_555
C2HA C3HA 1_555 1_555
C3HA C4HA 1_555 1_555
C5HA O2HA 1_555 1_555
C6HA C1HA 1_555 1_555
Zn2AA O1HA 1_555 1_555
O1IA C6HA 1_555 1_555
O2IA Zn1B 1_555 1_555
C3IA C2HA 1_555 1_555
C4IA C1HA 1_555 1_555
O1ZA C6ZA 1_555 1_555
O2ZA Zn1B 1_555 1_555
C1ZA C4ZA 1_555 1_555
C2ZA C3ZA 1_555 1_555
C3ZA C4ZA 1_555 1_555
C5ZA O2ZA 1_555 1_555
C6ZA C1ZA 1_555 1_555
O1AB C6ZA 1_555 1_555
O2AB Zn1A 1_555 1_555
C3AB C2ZA 1_555 1_555
C4AB C1ZA 1_555 1_555
O1BB C6BB 1_555 1_555
O2BB Zn1C 1_555 1_555
C1BB C4BB 1_555 1_555
C2BB C3BB 1_555 1_555
C3BB C4BB 1_555 1_555
C5BB O2BB 1_555 1_555
C6BB C1BB 1_555 1_555
O1CB C6BB 1_555 1_555
O2CB Zn1 1_555 1_555
C3CB C2BB 1_555 1_555
C4CB C1BB 1_555 1_555
Zn2XA O1CB 1_555 1_555
O1D Zn2 1_555 1_555
O1F Zn2A 1_555 1_555
O1H Zn2 1_555 1_555
O1K Zn2A 1_555 1_555
O1AA Zn2AA 1_555 1_555
O1CA Zn2AA 1_555 1_555
O1XA Zn2XA 1_555 1_555
O1EB Zn2XA 1_555 1_555
Zn2B O1B 1_555 1_555
Zn2B_2 O4 1_555 1_555
Zn2C O1C 1_555 1_555
Zn2C_2 O4 1_555 1_555
Zn2X O1FA 1_555 1_555
Zn2Y O1IA 1_555 1_555
Zn2Z O1GA 1_555 1_555
Zn2VA O1ZA 1_555 1_555
Zn2WA O1BB 1_555 1_555
Zn2YA O1AB 1_555 1_555
O4X Zn2AA 1_555 1_555
O4VA Zn2XA 1_555 1_555
O1A Zn2A 1_555 1_555
O2A Zn1A 1_555 1_555
C3A C4A 1_555 1_555
O2B Zn1B 1_555 1_555
O2C Zn1C 1_555 1_555
C3C C4C 1_555 1_555
C2FA C5FA 1_555 1_555
C5FA O2GA 1_555 1_555
C3GA C4GA 1_555 1_555
C2HA C5HA 1_555 1_555
C5HA O2IA 1_555 1_555
C3IA C4IA 1_555 1_555
C2ZA C5ZA 1_555 1_555
C5ZA O2AB 1_555 1_555
C3AB C4AB 1_555 1_555
C2BB C5BB 1_555 1_555
C5BB O2CB 1_555 1_555
C3CB C4CB 1_555 1_555
Zn2Y O4X 1_555 1_555
Zn2WA O4VA 1_555 1_555

#END
