
#######################################################################
#
#                 Cambridge Crystallographic Data Centre
#                                CCDC 
#
#######################################################################
#
# If this CIF has been generated from an entry in the Cambridge 
# Structural Database, then it will include bibliographic, chemical, 
# crystal, experimental, refinement or atomic coordinate data resulting 
# from the CCDC's data processing and validation procedures.
#
#######################################################################

data_HOMRIL
_symmetry_cell_setting           monoclinic
_symmetry_space_group_name_H-M   'P 21/n'
_symmetry_Int_Tables_number      14
_space_group_name_Hall           '-P 2yn'
loop_
_symmetry_equiv_pos_site_id
_symmetry_equiv_pos_as_xyz
1 x,y,z
2 1/2-x,1/2+y,1/2-z
3 -x,-y,-z
4 1/2+x,1/2-y,1/2+z
_cell_length_a                   11.2015(6)
_cell_length_b                   14.9693(8)
_cell_length_c                   21.4585(11)
_cell_angle_alpha                90
_cell_angle_beta                 92.0980(10)
_cell_angle_gamma                90
_cell_volume                     3595.72
loop_
_atom_site_label
_atom_site_type_symbol
_atom_site_fract_x
_atom_site_fract_y
_atom_site_fract_z
O23 O -0.409(6) 0.063(4) 0.666(3)
Si1 Si -1.0000 0.5000 0.5000
W1 W -1.22371(6) 0.42501(5) 0.39470(4)
W2 W -0.92474(7) 0.35630(5) 0.37584(4)
W3 W -0.90510(6) 0.27996(4) 0.53173(3)
W4 W -1.20809(6) 0.33791(5) 0.54726(3)
W5 W -1.30130(5) 0.56153(5) 0.52048(3)
W6 W -1.00979(6) 0.57922(6) 0.34522(4)
O1 O -1.0319(16) 0.4755(13) 0.4250(8)
O2 O -1.1368(18) 0.4651(15) 0.4954(9)
O3 O -0.9094(17) 0.4218(14) 0.4841(9)
O4 O -0.9767(15) 0.5882(12) 0.4598(8)
O5 O -1.1583(14) 0.5180(11) 0.3475(14)
O6 O -1.297(2) 0.4450(11) 0.5547(7)
O7 O -1.0927(15) 0.3509(12) 0.3702(15)
O8 O -1.1351(13) 0.3715(14) 0.6259(7)
O9 O -1.0739(13) 0.2677(16) 0.5332(7)
O10 O -0.9377(15) 0.4671(13) 0.3323(16)
O11 O -0.7693(17) 0.3943(14) 0.4053(7)
O12 O -0.9097(12) 0.3282(14) 0.6141(7)
O13 O -0.8634(14) 0.1764(10) 0.5475(10)
O14 O -0.7565(19) 0.3351(14) 0.5198(7)
O15 O -1.3311(12) 0.3821(10) 0.3451(6)
O16 O -1.239(2) 0.3419(11) 0.4594(7)
O17 O -0.9250(15) 0.2762(14) 0.4416(6)
O18 O -1.3063(15) 0.2601(11) 0.5681(8)
O19 O -1.310(2) 0.5086(9) 0.4387(6)
O20 O -0.8885(13) 0.2873(9) 0.3177(6)
O21 O -1.4418(13) 0.5926(13) 0.5308(8)
O22 O -1.0185(12) 0.6191(10) 0.2723(6)
Cu1 Cu -1.40245(18) 0.23778(14) 0.30033(9)
C1 C -1.5731(16) 0.3854(12) 0.2917(8)
H1 H -1.5811 0.3847 0.3347
C2 C -1.525(2) 0.353(2) 0.1992(10)
H2 H -1.4910 0.3236 0.1660
C3 C -1.6824(18) 0.5316(12) 0.2711(11)
H3 H -1.7443 0.5457 0.2400
H4 H -1.7206 0.5211 0.3103
C4 C -1.600(2) 0.6099(13) 0.2785(10)
H5 H -1.5561 0.6170 0.2407
H6 H -1.6468 0.6635 0.2841
C5 C -1.5106(17) 0.5998(15) 0.3340(12)
H7 H -1.4443 0.5632 0.3213
H8 H -1.5495 0.5686 0.3673
C6 C -1.462(2) 0.6873(18) 0.3590(11)
H9 H -1.4231 0.6771 0.3994
H10 H -1.5284 0.7280 0.3649
C7 C -1.2903(13) 0.6941(12) 0.2862(9)
H11 H -1.2758 0.6333 0.2821
C8 C -1.275(2) 0.8330(13) 0.2814(11)
H12 H -1.2461 0.8896 0.2722
C9 C -1.6323(17) 0.1752(15) 0.3592(9)
H13 H -1.6782 0.1746 0.3222
C10 C -1.4892(17) 0.1985(16) 0.4278(7)
H14 H -1.4185 0.2159 0.4484
C11 C -1.578(2) 0.1155(15) 0.5177(9)
H15 H -1.6545 0.1263 0.5356
H16 H -1.5168 0.1442 0.5442
C12 C -1.554(2) 0.0162(17) 0.5156(11)
H17 H -1.6229 -0.0119 0.4952
H18 H -1.5496 -0.0054 0.5582
C13 C -1.3061(16) 0.0579(14) 0.3375(9)
H19 H -1.3718 0.0310 0.3174
C14 C -1.1892(16) 0.1557(13) 0.3730(8)
H20 H -1.1534 0.2098 0.3839
C15 C -1.0335(19) 0.0553(14) 0.4211(9)
H21 H -0.9911 0.0101 0.3982
H22 H -0.9825 0.1076 0.4249
C16 C -1.058(2) 0.0207(14) 0.4848(10)
H23 H -1.0860 0.0691 0.5106
H24 H -1.1204 -0.0243 0.4818
N1 N -1.5146(12) 0.3260(10) 0.2598(6)
N2 N -1.593(3) 0.4283(16) 0.1941(9)
N3 N -1.6200(13) 0.4478(11) 0.2522(7)
N4 N -1.3687(18) 0.8201(12) 0.3164(10)
N5 N -1.3791(13) 0.7283(10) 0.3187(7)
N6 N -1.2248(13) 0.7579(10) 0.2604(7)
N7 N -1.5191(14) 0.2138(10) 0.3665(8)
N8 N -1.5766(13) 0.1556(12) 0.4527(7)
N9 N -1.6640(16) 0.1403(13) 0.4113(9)
N10 N -1.2917(12) 0.1489(10) 0.3425(7)
N11 N -1.2173(18) 0.0129(11) 0.3640(8)
N12 N -1.1435(16) 0.0790(11) 0.3863(8)
W1B W -0.77629(6) 0.57499(5) 0.60530(4)
W2B W -1.07526(7) 0.64370(5) 0.62416(4)
W3B W -1.09490(6) 0.72004(4) 0.46827(3)
W4B W -0.79191(6) 0.66209(5) 0.45274(3)
W5B W -0.69870(5) 0.43847(5) 0.47952(3)
W6B W -0.99021(6) 0.42078(6) 0.65478(4)
W6A W -1.49021(6) 0.07922(6) 0.15478(4)
O1B O -0.9681(16) 0.5245(13) 0.5750(8)
O2B O -0.8632(18) 0.5349(15) 0.5046(9)
O3B O -1.0906(17) 0.5782(14) 0.5159(9)
O4B O -1.0233(15) 0.4118(12) 0.5402(8)
O5B O -0.8417(14) 0.4820(11) 0.6525(14)
O6B O -0.703(2) 0.5550(11) 0.4453(7)
O7B O -0.9073(15) 0.6491(12) 0.6298(15)
O8B O -0.8649(13) 0.6285(14) 0.3741(7)
O9B O -0.9261(13) 0.7323(16) 0.4668(7)
O10B O -1.0623(15) 0.5329(13) 0.6677(16)
O11B O -1.2307(17) 0.6057(14) 0.5947(7)
O12B O -1.0903(12) 0.6718(14) 0.3859(7)
O13B O -1.1366(14) 0.8236(10) 0.4525(10)
O14B O -1.2435(19) 0.6649(14) 0.4802(7)
O15B O -0.6689(12) 0.6179(10) 0.6549(6)
O16B O -0.761(2) 0.6581(11) 0.5406(7)
O17B O -1.0750(15) 0.7238(14) 0.5584(6)
O18B O -0.6937(15) 0.7399(11) 0.4319(8)
O19B O -0.690(2) 0.4914(9) 0.5613(6)
O20B O -1.1115(13) 0.7127(9) 0.6823(6)
O21B O -0.5582(13) 0.4074(13) 0.4692(8)
O22A O -1.4815(12) 0.1191(10) 0.2277(6)
O22B O -0.9815(12) 0.3809(10) 0.7277(6)
O22C O -0.5185(12) 0.8809(10) 0.7723(6)
Cu1B Cu -0.59755(18) 0.76222(14) 0.69967(9)
Cu1A Cu -1.09755(18) 0.73778(14) 0.19967(9)
Cu1B_2 Cu -1.59755(18) -0.23778(14) 0.69967(9)
Cu1B_3 Cu -0.59755(18) -0.23778(14) 0.69967(9)
Cu1A_2 Cu -1.09755(18) -0.26222(14) 0.19967(9)
Cu1C Cu -0.90245(18) 0.26222(14) 0.80033(9)
C1A C -0.9269(16) -0.1146(12) 0.2083(8)
H1A H -0.9189 -0.1153 0.1653
C2A C -0.975(2) -0.147(2) 0.3008(10)
H2A H -1.0090 -0.1764 0.3340
C3A C -0.8176(18) 0.0316(12) 0.2289(11)
H3A H -0.7557 0.0457 0.2600
H4A H -0.7794 0.0211 0.1897
C4A C -0.900(2) 0.1099(13) 0.2215(10)
H5A H -0.9439 0.1170 0.2593
H6A H -0.8532 0.1635 0.2159
C5A C -0.9894(17) 0.0998(15) 0.1660(12)
H7A H -1.0557 0.0632 0.1787
H8A H -0.9505 0.0686 0.1327
C6A C -1.038(2) 0.1873(18) 0.1410(11)
H9A H -1.0769 0.1771 0.1006
H10A H -0.9716 0.2280 0.1351
C7A C -1.2097(13) 0.1941(12) 0.2138(9)
H11A H -1.2242 0.1333 0.2179
C8A C -1.225(2) 0.3330(13) 0.2186(11)
H12A H -1.2539 0.3896 0.2278
C9B C -1.3677(17) -0.1752(15) 0.6408(9)
H13B H -1.3218 -0.1746 0.6778
C10B C -1.5108(17) -0.1985(16) 0.5722(7)
H14B H -1.5815 -0.2159 0.5516
C11B C -1.422(2) -0.1155(15) 0.4823(9)
H15B H -1.3455 -0.1263 0.4644
H16B H -1.4832 -0.1442 0.4558
C12B C -1.446(2) -0.0162(17) 0.4844(11)
H17B H -1.3771 0.0119 0.5048
H18B H -1.4504 0.0054 0.4418
C13B C -0.6939(16) -0.0579(14) 0.6625(9)
H19B H -0.6282 -0.0310 0.6826
C14B C -0.8108(16) -0.1557(13) 0.6270(8)
H20B H -0.8466 -0.2098 0.6161
C15B C -0.9665(19) -0.0553(14) 0.5789(9)
H21B H -1.0089 -0.0101 0.6018
H22B H -1.0175 -0.1076 0.5751
C16B C -0.942(2) -0.0207(14) 0.5152(10)
H23B H -0.9140 -0.0691 0.4894
H24B H -0.8796 0.0243 0.5182
N1A N -0.9854(12) -0.1740(10) 0.2402(6)
N1B N -0.4854(12) 0.6740(10) 0.7402(6)
N2A N -0.907(3) -0.0717(16) 0.3059(9)
N3A N -0.8800(13) -0.0522(11) 0.2478(7)
N4A N -1.1313(18) 0.3201(12) 0.1836(10)
N5A N -1.1209(13) 0.2283(10) 0.1813(7)
N6A N -1.2752(13) 0.2579(10) 0.2396(7)
N6C N -0.7248(13) 0.7421(10) 0.7604(7)
N7B N -1.4809(14) -0.2138(10) 0.6335(8)
N7B_2 N -0.4809(14) 0.7862(10) 0.6335(8)
N8B N -1.4234(13) -0.1556(12) 0.5473(7)
N9B N -1.3360(16) -0.1403(13) 0.5887(9)
N10B N -0.7083(12) -0.1489(10) 0.6575(7)
N10B_2 N -0.7083(12) 0.8511(10) 0.6575(7)
N11B N -0.7827(18) -0.0129(11) 0.6360(8)
N12B N -0.8565(16) -0.0790(11) 0.6137(8)
loop_
_geom_bond_atom_site_label_1
_geom_bond_atom_site_label_2
_geom_bond_site_symmetry_1
_geom_bond_site_symmetry_2
Si1 O1 1_555 1_555
W1 O1 1_555 1_555
W2 O1 1_555 1_555
W3 O3 1_555 1_555
W4 O2 1_555 1_555
W5 O2 1_555 1_555
W6 O1 1_555 1_555
O2 Si1 1_555 1_555
O3 Si1 1_555 1_555
O4 Si1 1_555 1_555
O5 W1 1_555 1_555
O6 W4 1_555 1_555
O7 W1 1_555 1_555
O8 W4 1_555 1_555
O9 W3 1_555 1_555
O10 W2 1_555 1_555
O11 W2 1_555 1_555
O12 W3 1_555 1_555
O13 W3 1_555 1_555
O14 W3 1_555 1_555
O15 W1 1_555 1_555
O16 W1 1_555 1_555
O17 W2 1_555 1_555
O18 W4 1_555 1_555
O19 W1 1_555 1_555
O20 W2 1_555 1_555
O21 W5 1_555 1_555
O22 W6 1_555 1_555
Cu1 O15 1_555 1_555
C1 H1 1_555 1_555
C2 H2 1_555 1_555
C3 H3 1_555 1_555
H4 C3 1_555 1_555
C4 C3 1_555 1_555
H5 C4 1_555 1_555
H6 C4 1_555 1_555
C5 C4 1_555 1_555
H7 C5 1_555 1_555
H8 C5 1_555 1_555
C6 C5 1_555 1_555
H9 C6 1_555 1_555
H10 C6 1_555 1_555
C7 H11 1_555 1_555
C8 H12 1_555 1_555
C9 H13 1_555 1_555
C10 H14 1_555 1_555
C11 H15 1_555 1_555
H16 C11 1_555 1_555
C12 C11 1_555 1_555
H17 C12 1_555 1_555
H18 C12 1_555 1_555
C13 H19 1_555 1_555
C14 H20 1_555 1_555
C15 H21 1_555 1_555
H22 C15 1_555 1_555
C16 C15 1_555 1_555
H23 C16 1_555 1_555
H24 C16 1_555 1_555
N1 Cu1 1_555 1_555
N2 C2 1_555 1_555
N3 C1 1_555 1_555
N4 C8 1_555 1_555
N5 C6 1_555 1_555
N6 C7 1_555 1_555
N7 Cu1 1_555 1_555
N8 C10 1_555 1_555
N9 C9 1_555 1_555
N10 Cu1 1_555 1_555
N11 C13 1_555 1_555
N12 C14 1_555 1_555
W1B O1B 1_555 1_555
W2B O1B 1_555 1_555
W3B O4 1_555 1_555
W4B O4 1_555 1_555
W5B O3 1_555 1_555
W6B O8 1_555 1_555
W6A O22A 1_555 1_555
O1B Si1 1_555 1_555
O2B Si1 1_555 1_555
O3B Si1 1_555 1_555
O4B Si1 1_555 1_555
O5B W1B 1_555 1_555
O6B W4B 1_555 1_555
O7B W1B 1_555 1_555
O8B W6 1_555 1_555
O9B W3B 1_555 1_555
O10B W2B 1_555 1_555
O11B W5 1_555 1_555
O12B W6 1_555 1_555
O13B W3B 1_555 1_555
O14B W5 1_555 1_555
O15B W1B 1_555 1_555
O16B W1B 1_555 1_555
O17B W2B 1_555 1_555
O18B W4B 1_555 1_555
O19B W1B 1_555 1_555
O20B W2B 1_555 1_555
O21B W5B 1_555 1_555
O22A Cu1 1_555 1_555
O22B W6B 1_555 1_555
O22C Cu1B 1_555 1_555
Cu1B O15B 1_555 1_555
Cu1A O22 1_555 1_555
Cu1B_2 N7B 1_555 1_555
Cu1B_3 N10B 1_555 1_555
Cu1A_2 N1A 1_555 1_555
Cu1C O22B 1_555 1_555
C1A H1A 1_555 1_555
C2A H2A 1_555 1_555
C3A H3A 1_555 1_555
H4A C3A 1_555 1_555
C4A C3A 1_555 1_555
H5A C4A 1_555 1_555
H6A C4A 1_555 1_555
C5A C4A 1_555 1_555
H7A C5A 1_555 1_555
H8A C5A 1_555 1_555
C6A C5A 1_555 1_555
H9A C6A 1_555 1_555
H10A C6A 1_555 1_555
C7A H11A 1_555 1_555
C8A H12A 1_555 1_555
C9B H13B 1_555 1_555
C10B H14B 1_555 1_555
C11B H15B 1_555 1_555
H16B C11B 1_555 1_555
C12B C12 1_555 1_555
H17B C12B 1_555 1_555
H18B C12B 1_555 1_555
C13B H19B 1_555 1_555
C14B H20B 1_555 1_555
C15B H21B 1_555 1_555
H22B C15B 1_555 1_555
C16B C16 1_555 1_555
H23B C16B 1_555 1_555
H24B C16B 1_555 1_555
N1A C1A 1_555 1_555
N1B Cu1B 1_555 1_555
N2A C2A 1_555 1_555
N3A C1A 1_555 1_555
N4A C8A 1_555 1_555
N5A C6A 1_555 1_555
N6A Cu1 1_555 1_555
N6C Cu1B 1_555 1_555
N7B C9B 1_555 1_555
N7B_2 Cu1B 1_555 1_555
N8B C10B 1_555 1_555
N9B C9B 1_555 1_555
N10B C13B 1_555 1_555
N10B_2 Cu1B 1_555 1_555
N11B C13B 1_555 1_555
N12B C14B 1_555 1_555
W1 O2 1_555 1_555
W2 O3 1_555 1_555
W2 O7 1_555 1_555
W3 O17 1_555 1_555
W3 O4B 1_555 1_555
W4 O9 1_555 1_555
W4 O16 1_555 1_555
W4 O4B 1_555 1_555
W5 O6 1_555 1_555
W5 O19 1_555 1_555
W5 O3B 1_555 1_555
W6 O4 1_555 1_555
W6 O5 1_555 1_555
W6 O10 1_555 1_555
O2 O3B 1_555 1_555
O2 O4B 1_555 1_555
O3 O2B 1_555 1_555
O3 O4B 1_555 1_555
O4 O2B 1_555 1_555
O4 O3B 1_555 1_555
O11 W5B 1_555 1_555
O12 W6B 1_555 1_555
O14 W5B 1_555 1_555
C1 N1 1_555 1_555
C2 N1 1_555 1_555
C3 N3 1_555 1_555
C7 N5 1_555 1_555
C8 N6 1_555 1_555
C9 N7 1_555 1_555
C10 N7 1_555 1_555
C11 N8 1_555 1_555
C13 N10 1_555 1_555
C14 N10 1_555 1_555
C15 N12 1_555 1_555
N2 N3 1_555 1_555
N4 N5 1_555 1_555
N6 Cu1A 1_555 1_555
N8 N9 1_555 1_555
N11 N12 1_555 1_555
W1B O2B 1_555 1_555
W2B O3B 1_555 1_555
W2B O7B 1_555 1_555
W2B O11B 1_555 1_555
W3B O3B 1_555 1_555
W3B O12B 1_555 1_555
W3B O14B 1_555 1_555
W3B O17B 1_555 1_555
W4B O2B 1_555 1_555
W4B O8B 1_555 1_555
W4B O9B 1_555 1_555
W4B O16B 1_555 1_555
W5B O2B 1_555 1_555
W5B O6B 1_555 1_555
W5B O19B 1_555 1_555
W6B O1B 1_555 1_555
W6B O4B 1_555 1_555
W6B O5B 1_555 1_555
W6B O10B 1_555 1_555
C2A N1A 1_555 1_555
C3A N3A 1_555 1_555
C7A N5A 1_555 1_555
C7A N6A 1_555 1_555
C8A N6A 1_555 1_555
C10B N7B 1_555 1_555
C11B C12B 1_555 1_555
C11B N8B 1_555 1_555
C14B N10B 1_555 1_555
C15B C16B 1_555 1_555
C15B N12B 1_555 1_555
N2A N3A 1_555 1_555
N4A N5A 1_555 1_555
N8B N9B 1_555 1_555
N11B N12B 1_555 1_555

#END
