
#######################################################################
#
#                 Cambridge Crystallographic Data Centre
#                                CCDC 
#
#######################################################################
#
# If this CIF has been generated from an entry in the Cambridge 
# Structural Database, then it will include bibliographic, chemical, 
# crystal, experimental, refinement or atomic coordinate data resulting 
# from the CCDC's data processing and validation procedures.
#
#######################################################################

data_HOQMIL04
_symmetry_cell_setting           monoclinic
_symmetry_space_group_name_H-M   'C 2/c'
_symmetry_Int_Tables_number      15
_space_group_name_Hall           '-C 2yn'
loop_
_symmetry_equiv_pos_site_id
_symmetry_equiv_pos_as_xyz
1 x,y,z
2 -x,y,1/2-z
3 1/2+x,1/2+y,z
4 1/2-x,1/2+y,1/2-z
5 -x,-y,-z
6 x,-y,1/2+z
7 1/2-x,1/2-y,-z
8 1/2+x,1/2-y,1/2+z
_cell_length_a                   18.2716(9)
_cell_length_b                   17.2585(9)
_cell_length_c                   13.5539(7)
_cell_angle_alpha                90
_cell_angle_beta                 129.6663(13)
_cell_angle_gamma                90
_cell_volume                     3290.09
loop_
_atom_site_label
_atom_site_type_symbol
_atom_site_fract_x
_atom_site_fract_y
_atom_site_fract_z
Mg1 Mg 0.0000 0.19468(5) 0.2500
Mg2 Mg 0.2500 0.2500 0.5000
O1 O 0.08838(10) 0.11234(8) 0.38025(13)
O2 O 0.23028(10) 0.14904(8) 0.56215(13)
O3 O 0.22931(10) -0.18594(8) 0.85542(13)
O4 O 0.07484(10) -0.19956(8) 0.68586(13)
O5 O 0.09990(9) 0.27957(8) 0.38916(13)
N1 N 0.07426(11) 0.34015(9) 0.42264(16)
C1 C 0.16385(14) 0.02988(11) 0.55918(19)
C2 C 0.08676(15) -0.02059(13) 0.4908(2)
C3 C 0.08496(15) -0.08543(13) 0.5503(2)
C4 C 0.16068(14) -0.10121(11) 0.67796(19)
C5 C 0.23864(16) -0.05193(14) 0.7451(2)
C6 C 0.24005(16) 0.01378(14) 0.6864(3)
C7 C 0.16081(13) 0.10307(10) 0.49498(18)
C8 C 0.15528(13) -0.16789(10) 0.74556(18)
C9 C 0.08656(15) 0.41225(12) 0.3980(2)
C10 C 0.05691(16) 0.47584(12) 0.4258(2)
C11 C 0.01583(13) 0.46624(11) 0.48382(19)
C12 C 0.00752(17) 0.39056(13) 0.5120(3)
C13 C 0.03755(17) 0.32831(12) 0.4813(3)
H1 H 0.0350 -0.0107 0.4030
H2 H 0.0315 -0.1191 0.5032
H3 H 0.2916 -0.0631 0.8318
H4 H 0.2933 0.0476 0.7337
H5 H 0.1160 0.4195 0.3609
H6 H 0.0644 0.5264 0.4056
H7 H -0.0190 0.3816 0.5527
H8 H 0.0322 0.2771 0.5018
O5D O -0.09990(9) 0.72043(8) 0.61084(13)
N1D N -0.07426(11) 0.65985(9) 0.57736(16)
C9D C -0.08656(15) 0.58775(12) 0.6020(2)
C10D C -0.05691(16) 0.52416(12) 0.5742(2)
C11D C -0.01583(13) 0.53376(11) 0.51618(19)
C12D C -0.00752(17) 0.60944(13) 0.4880(3)
C13D C -0.03755(17) 0.67169(12) 0.5187(3)
H5D H -0.1160 0.5805 0.6391
H6D H -0.0644 0.4736 0.5944
H7D H 0.0190 0.6184 0.4473
H8D H -0.0322 0.7229 0.4982
O1A O -0.08838(10) 0.11234(8) 0.11975(13)
O2A O -0.23028(10) 0.14904(8) -0.06215(13)
O3A O -0.22931(10) -0.18594(8) -0.35542(13)
O4A O -0.07484(10) -0.19956(8) -0.18586(13)
C1A C -0.16385(14) 0.02988(11) -0.05918(19)
C2A C -0.08676(15) -0.02059(13) 0.0092(2)
C3A C -0.08496(15) -0.08543(13) -0.0503(2)
C4A C -0.16068(14) -0.10121(11) -0.17796(19)
C5A C -0.23864(16) -0.05193(14) -0.2451(2)
C6A C -0.24005(16) 0.01378(14) -0.1864(3)
C7A C -0.16081(13) 0.10307(10) 0.00502(18)
C8A C -0.15528(13) -0.16789(10) -0.24556(18)
H1A H -0.0350 -0.0107 0.0970
H2A H -0.0315 -0.1191 -0.0032
H3A H -0.2916 -0.0631 -0.3318
H4A H -0.2933 0.0476 -0.2337
Mg1D Mg 0.0000 -0.19468(5) -0.2500
Mg1D_2 Mg 0.0000 -0.19468(5) 0.7500
Mg1D_3 Mg 0.0000 0.80532(5) 0.7500
Mg2A Mg -0.2500 0.2500 0.0000
Mg2D Mg -0.2500 -0.2500 -0.5000
Mg2D_2 Mg -0.2500 0.7500 0.5000
Mg2E Mg 0.2500 -0.2500 1.0000
O2F O 0.26972(10) 0.35096(8) 0.43785(13)
O3E O 0.22931(10) 0.18594(8) 0.35542(13)
O3C O 0.27069(10) 0.31406(8) 0.64458(13)
O4D O -0.07484(10) 0.19956(8) 0.31414(13)
O4E O 0.07484(10) 0.19956(8) 0.18586(13)
O5A O -0.09990(9) 0.27957(8) 0.11084(13)
O5F O 0.40010(9) 0.22043(8) 0.61084(13)
O6 O 0.1329(3) 0.6464(2) 0.4158(4)
N2 N 0.2778(3) 0.6678(3) 0.6156(4)
C14 C 0.3782(7) 0.6515(8) 0.7012(8)
C15 C 0.2447(6) 0.7168(4) 0.6579(8)
C16 C 0.2208(5) 0.6339(3) 0.4955(6)
H9 H 0.4058 0.6696 0.6627
H10 H 0.3883 0.5956 0.7164
H11 H 0.4088 0.6784 0.7828
H12 H 0.1977 0.6898 0.6582
H13 H 0.2149 0.7618 0.6008
H14 H 0.2977 0.7341 0.7450
loop_
_geom_bond_atom_site_label_1
_geom_bond_atom_site_label_2
_geom_bond_site_symmetry_1
_geom_bond_site_symmetry_2
Mg1 O1 1_555 1_555
Mg2 O2 1_555 1_555
O1 C7 1_555 1_555
O2 C7 1_555 1_555
O3 C8 1_555 1_555
O4 C8 1_555 1_555
O5 Mg1 1_555 1_555
N1 O5 1_555 1_555
C1 C2 1_555 1_555
C2 C3 1_555 1_555
C3 C4 1_555 1_555
C4 C5 1_555 1_555
C5 C6 1_555 1_555
C6 C1 1_555 1_555
C7 C1 1_555 1_555
C8 C4 1_555 1_555
C9 N1 1_555 1_555
C10 C9 1_555 1_555
C11 C10 1_555 1_555
C12 C11 1_555 1_555
C13 N1 1_555 1_555
H1 C2 1_555 1_555
H2 C3 1_555 1_555
H3 C5 1_555 1_555
H4 C6 1_555 1_555
H5 C9 1_555 1_555
H6 C10 1_555 1_555
H7 C12 1_555 1_555
H8 C13 1_555 1_555
O6 C16 1_555 1_555
N2 C14 1_555 1_555
C14 H9 1_555 1_555
C15 N2 1_555 1_555
C16 N2 1_555 1_555
H10 C14 1_555 1_555
H11 C14 1_555 1_555
H12 C15 1_555 1_555
H13 C15 1_555 1_555
H14 C15 1_555 1_555
O5D N1D 1_555 1_555
N1D C9D 1_555 1_555
C9D C10D 1_555 1_555
C10D C11D 1_555 1_555
C11D C11 1_555 1_555
C12D C11D 1_555 1_555
C13D N1D 1_555 1_555
H5D C9D 1_555 1_555
H6D C10D 1_555 1_555
H7D C12D 1_555 1_555
H8D C13D 1_555 1_555
O1A Mg1 1_555 1_555
O2A C7A 1_555 1_555
O3A C8A 1_555 1_555
O4A C8A 1_555 1_555
C1A C2A 1_555 1_555
C2A C3A 1_555 1_555
C3A C4A 1_555 1_555
C4A C5A 1_555 1_555
C5A C6A 1_555 1_555
C6A C1A 1_555 1_555
C7A O1A 1_555 1_555
C8A C4A 1_555 1_555
H1A C2A 1_555 1_555
H2A C3A 1_555 1_555
H3A C5A 1_555 1_555
H4A C6A 1_555 1_555
Mg1D O4A 1_555 1_555
Mg1D_2 O4 1_555 1_555
Mg1D_3 O5D 1_555 1_555
Mg2A O2A 1_555 1_555
Mg2D O3A 1_555 1_555
Mg2D_2 O5D 1_555 1_555
Mg2E O3 1_555 1_555
O2F Mg2 1_555 1_555
O3E Mg2 1_555 1_555
O3C Mg2 1_555 1_555
O4D Mg1 1_555 1_555
O4E Mg1 1_555 1_555
O5A Mg1 1_555 1_555
O5F Mg2 1_555 1_555
Mg2 O5 1_555 1_555
C12 C13 1_555 1_555
C12D C13D 1_555 1_555
C1A C7A 1_555 1_555
Mg2A O5A 1_555 1_555

#END
