
#######################################################################
#
#                 Cambridge Crystallographic Data Centre
#                                CCDC 
#
#######################################################################
#
# If this CIF has been generated from an entry in the Cambridge 
# Structural Database, then it will include bibliographic, chemical, 
# crystal, experimental, refinement or atomic coordinate data resulting 
# from the CCDC's data processing and validation procedures.
#
#######################################################################

data_HORHEC
_symmetry_cell_setting           rhombohedral
_symmetry_space_group_name_H-M   'R -3'
_symmetry_Int_Tables_number      148
_space_group_name_Hall           '-R 3'
loop_
_symmetry_equiv_pos_site_id
_symmetry_equiv_pos_as_xyz
1 x,y,z
2 -y,x-y,z
3 -x+y,-x,z
4 2/3+x,1/3+y,1/3+z
5 2/3-y,1/3+x-y,1/3+z
6 2/3-x+y,1/3-x,1/3+z
7 1/3+x,2/3+y,2/3+z
8 1/3-y,2/3+x-y,2/3+z
9 1/3-x+y,2/3-x,2/3+z
10 -x,-y,-z
11 y,-x+y,-z
12 x-y,x,-z
13 1/3-x,2/3-y,2/3-z
14 1/3+y,2/3-x+y,2/3-z
15 1/3+x-y,2/3+x,2/3-z
16 2/3-x,1/3-y,1/3-z
17 2/3+y,1/3-x+y,1/3-z
18 2/3+x-y,1/3+x,1/3-z
_cell_length_a                   21.297(6)
_cell_length_b                   21.297(6)
_cell_length_c                   15.380(4)
_cell_angle_alpha                90
_cell_angle_beta                 90
_cell_angle_gamma                120
_cell_volume                     6041.21
loop_
_atom_site_label
_atom_site_type_symbol
_atom_site_fract_x
_atom_site_fract_y
_atom_site_fract_z
Cd1 Cd 0.0000 0.0000 0.0000
Cd2 Cd 0.0000 0.0000 0.5000
N1 N 0.16292(17) -0.01305(17) 0.1713(2)
N2 N 0.07117(18) -0.03158(18) 0.0875(2)
N3 N 0.20934(17) 0.13412(18) 0.3568(2)
N4 N 0.09889(17) 0.07910(17) 0.4118(2)
C1 C 0.28033(19) 0.0985(2) 0.1991(2)
C2 C 0.30902(19) 0.1594(2) 0.2530(2)
C3 C 0.3056(2) 0.1071(2) 0.1140(3)
H1 H 0.2865 0.0657 0.0773
C4 C 0.2257(2) 0.0230(2) 0.2303(3)
H2 H 0.2496 -0.0066 0.2345
H3 H 0.2086 0.0262 0.2891
C5 C 0.1229(2) 0.0146(2) 0.1388(3)
H4 H 0.1312 0.0618 0.1516
C6 C 0.0778(3) -0.0926(2) 0.0875(3)
H5 H 0.0476 -0.1357 0.0560
C7 C 0.1338(2) -0.0820(2) 0.1393(3)
H6 H 0.1497 -0.1156 0.1509
C8 C 0.2867(2) 0.1567(2) 0.3471(2)
H7 H 0.2967 0.1223 0.3793
H8 H 0.3164 0.2052 0.3735
C9 C 0.1641(2) 0.0872(2) 0.4175(2)
H9 H 0.1778 0.0632 0.4589
C10 C 0.1025(2) 0.1234(3) 0.3438(3)
H10 H 0.0633 0.1292 0.3240
C11 C 0.1701(2) 0.1574(3) 0.3098(3)
H11 H 0.1871 0.1907 0.2626
Cd1C Cd 0.6667 0.3333 0.3333
Cd1C_2 Cd -0.3333 0.3333 0.3333
Cd1C_3 Cd -0.3333 -0.6667 0.3333
Cd2C Cd 0.6667 0.3333 -0.1667
Cd2C_2 Cd -0.3333 0.3333 -0.1667
Cd2C_3 Cd -0.3333 -0.6667 -0.1667
N1O N 0.50375(17) 0.34638(17) 0.1620(2)
N1A N 0.01305(17) 0.17597(24) 0.1713(2)
N1P N -0.34638(17) 0.15736(24) 0.1620(2)
N1B N -0.17597(24) -0.16292(17) 0.1713(2)
N1Q N -0.15736(24) -0.50375(17) 0.1620(2)
N2O N 0.59550(18) 0.36491(18) 0.2458(2)
N2A N 0.03158(18) 0.10275(25) 0.0875(2)
N2P N -0.36491(18) 0.23058(25) 0.2458(2)
N2B N -0.10275(25) -0.07117(18) 0.0875(2)
N2Q N -0.23058(25) -0.59550(18) 0.2458(2)
N2I N -0.07117(18) 0.03158(18) -0.0875(2)
N2J N -0.03158(18) -0.10275(25) -0.0875(2)
N2K N 0.10275(25) 0.07117(18) -0.0875(2)
N3O N 0.45733(17) 0.19921(18) -0.0235(2)
N3A N -0.13412(18) 0.07522(25) 0.3568(2)
N3P N -0.19921(18) 0.25811(25) -0.0235(2)
N3B N -0.07522(25) -0.20934(17) 0.3568(2)
N3Q N -0.25811(25) -0.45733(17) -0.0235(2)
N4O N 0.56778(17) 0.25423(17) -0.0785(2)
N4A N -0.07910(17) 0.01979(24) 0.4118(2)
N4P N -0.25423(17) 0.31354(24) -0.0785(2)
N4B N -0.01979(24) -0.09889(17) 0.4118(2)
N4Q N -0.31354(24) -0.56778(17) -0.0785(2)
N4I N -0.09889(17) -0.07910(17) 0.5882(2)
N4J N 0.07910(17) -0.01979(24) 0.5882(2)
N4K N 0.01979(24) 0.09889(17) 0.5882(2)
C1O C 0.38634(19) 0.2348(2) 0.1342(2)
C1A C -0.0985(2) 0.18183(28) 0.1991(2)
C1P C -0.2348(2) 0.15150(28) 0.1342(2)
C1B C -0.18183(28) -0.28033(19) 0.1991(2)
C1Q C -0.15150(28) -0.38634(19) 0.1342(2)
C2O C 0.35765(19) 0.1739(2) 0.0803(2)
C2A C -0.1594(2) 0.14962(28) 0.2530(2)
C2P C -0.1739(2) 0.18371(28) 0.0803(2)
C2B C -0.14962(28) -0.30902(19) 0.2530(2)
C2Q C -0.18371(28) -0.35765(19) 0.0803(2)
C3O C 0.3611(2) 0.2262(2) 0.2193(3)
C3A C -0.1071(2) 0.1985(3) 0.1140(3)
C3P C -0.2262(2) 0.1348(3) 0.2193(3)
C3B C -0.1985(3) -0.3056(2) 0.1140(3)
C3Q C -0.1348(3) -0.3611(2) 0.2193(3)
H1O H 0.3802 0.2676 0.2560
H1A H -0.0657 0.2208 0.0773
H1P H -0.2676 0.1125 0.2560
H1B H -0.2208 -0.2865 0.0773
H1Q H -0.1125 -0.3802 0.2560
C4O C 0.4410(2) 0.3103(2) 0.1030(3)
C4A C -0.0230(2) 0.2027(3) 0.2303(3)
C4P C -0.3103(2) 0.1306(3) 0.1030(3)
C4B C -0.2027(3) -0.2257(2) 0.2303(3)
C4Q C -0.1306(3) -0.4410(2) 0.1030(3)
H2O H 0.4171 0.3399 0.0988
H2A H 0.0066 0.2562 0.2345
H2P H -0.3399 0.0771 0.0988
H2B H -0.2562 -0.2496 0.2345
H2Q H -0.0771 -0.4171 0.0988
H3O H 0.4581 0.3071 0.0442
H3A H -0.0262 0.1824 0.2891
H3P H -0.3071 0.1509 0.0442
H3B H -0.1824 -0.2086 0.2891
H3Q H -0.1509 -0.4581 0.0442
C5O C 0.5438(2) 0.3187(2) 0.1945(3)
C5A C -0.0146(2) 0.1083(3) 0.1388(3)
C5P C -0.3187(2) 0.2250(3) 0.1945(3)
C5B C -0.1083(3) -0.1229(2) 0.1388(3)
C5Q C -0.2250(3) -0.5438(2) 0.1945(3)
H4O H 0.5355 0.2715 0.1817
H4A H -0.0618 0.0694 0.1516
H4P H -0.2715 0.2639 0.1817
H4B H -0.0694 -0.1312 0.1516
H4Q H -0.2639 -0.5355 0.1817
C6O C 0.5889(3) 0.4259(2) 0.2458(3)
C6A C 0.0926(2) 0.1704(4) 0.0875(3)
C6P C -0.4259(2) 0.1629(4) 0.2458(3)
C6B C -0.1704(4) -0.0778(3) 0.0875(3)
C6Q C -0.1629(4) -0.5889(3) 0.2458(3)
H5O H 0.6191 0.4690 0.2773
H5A H 0.1357 0.1833 0.0560
H5P H -0.4690 0.1500 0.2773
H5B H -0.1833 -0.0476 0.0560
H5Q H -0.1500 -0.6191 0.2773
C7O C 0.5329(2) 0.4153(2) 0.1940(3)
C7A C 0.0820(2) 0.2158(3) 0.1393(3)
C7P C -0.4153(2) 0.1175(3) 0.1940(3)
C7B C -0.2158(3) -0.1338(2) 0.1393(3)
C7Q C -0.1175(3) -0.5329(2) 0.1940(3)
H6O H 0.5170 0.4489 0.1824
H6A H 0.1156 0.2653 0.1509
H6P H -0.4489 0.0680 0.1824
H6B H -0.2653 -0.1497 0.1509
H6Q H -0.0680 -0.5170 0.1824
C8O C 0.3800(2) 0.1766(2) -0.0138(2)
C8A C -0.1567(2) 0.1300(3) 0.3471(2)
C8P C -0.1766(2) 0.2033(3) -0.0138(2)
C8B C -0.1300(3) -0.2867(2) 0.3471(2)
C8Q C -0.2033(3) -0.3800(2) -0.0138(2)
H7O H 0.3700 0.2110 -0.0460
H7A H -0.1223 0.1744 0.3793
H7P H -0.2110 0.1589 -0.0460
H7B H -0.1744 -0.2967 0.3793
H7Q H -0.1589 -0.3700 -0.0460
H8O H 0.3503 0.1281 -0.0402
H8A H -0.2052 0.1112 0.3735
H8P H -0.1281 0.2221 -0.0402
H8B H -0.1112 -0.3164 0.3735
H8Q H -0.2221 -0.3503 -0.0402
C9O C 0.5026(2) 0.2461(2) -0.0842(2)
C9A C -0.0872(2) 0.0769(3) 0.4175(2)
C9P C -0.2461(2) 0.2564(3) -0.0842(2)
C9B C -0.0769(3) -0.1641(2) 0.4175(2)
C9Q C -0.2564(3) -0.5026(2) -0.0842(2)
H9O H 0.4889 0.2701 -0.1256
H9A H -0.0632 0.1146 0.4589
H9P H -0.2701 0.2187 -0.1256
H9B H -0.1146 -0.1778 0.4589
H9Q H -0.2187 -0.4889 -0.1256
C10O C 0.5642(2) 0.2099(3) -0.0105(3)
C10A C -0.1234(3) -0.0209(4) 0.3438(3)
C10P C -0.2099(3) 0.3542(4) -0.0105(3)
C10B C 0.0209(4) -0.1025(2) 0.3438(3)
C10Q C -0.3542(4) -0.5642(2) -0.0105(3)
H10O H 0.6034 0.2041 0.0093
H10A H -0.1292 -0.0659 0.3240
H10P H -0.2041 0.3992 0.0093
H10B H 0.0659 -0.0633 0.3240
H10Q H -0.3992 -0.6034 0.0093
C11O C 0.4966(2) 0.1759(3) 0.0235(3)
C11A C -0.1574(3) 0.0127(4) 0.3098(3)
C11P C -0.1759(3) 0.3206(4) 0.0235(3)
C11B C -0.0127(4) -0.1701(2) 0.3098(3)
C11Q C -0.3206(4) -0.4966(2) 0.0235(3)
H11O H 0.4796 0.1426 0.0707
H11A H -0.1907 -0.0036 0.2626
H11P H -0.1426 0.3369 0.0707
H11B H 0.0036 -0.1871 0.2626
H11Q H -0.3369 -0.4796 0.0707
Cl1 Cl 0.03338(10) 0.30176(10) 0.44918(12)
O3 O 0.0768(5) 0.2708(5) 0.4281(5)
O4 O -0.0277(4) 0.2485(4) 0.4973(6)
O5 O 0.0102(5) 0.3194(4) 0.3754(4)
O6 O 0.0716(3) 0.3632(3) 0.5017(4)
O1 O 0.1555(10) 0.3115(10) 0.3781(13)
O2 O -0.0783(10) 0.2095(10) 0.5565(11)
loop_
_geom_bond_atom_site_label_1
_geom_bond_atom_site_label_2
_geom_bond_site_symmetry_1
_geom_bond_site_symmetry_2
Cd1 N2 1_555 1_555
Cd2 N4 1_555 1_555
Cl1 O3 1_555 1_555
O4 Cl1 1_555 1_555
O5 Cl1 1_555 1_555
O6 Cl1 1_555 1_555
N1 C4 1_555 1_555
N2 C5 1_555 1_555
N3 C8 1_555 1_555
N4 C9 1_555 1_555
C1 C2 1_555 1_555
C2 C8 1_555 1_555
C3 C1 1_555 1_555
H1 C3 1_555 1_555
C4 C1 1_555 1_555
H2 C4 1_555 1_555
H3 C4 1_555 1_555
C5 N1 1_555 1_555
H4 C5 1_555 1_555
C6 N2 1_555 1_555
H5 C6 1_555 1_555
C7 N1 1_555 1_555
H6 C7 1_555 1_555
C8 H7 1_555 1_555
H8 C8 1_555 1_555
C9 N3 1_555 1_555
H9 C9 1_555 1_555
C10 N4 1_555 1_555
H10 C10 1_555 1_555
C11 N3 1_555 1_555
H11 C11 1_555 1_555
Cd1C N2O 1_555 1_555
Cd1C_2 N2P 1_555 1_555
Cd1C_3 N2Q 1_555 1_555
Cd2C N4O 1_555 1_555
Cd2C_2 N4P 1_555 1_555
Cd2C_3 N4Q 1_555 1_555
N1O C4O 1_555 1_555
N1A C4A 1_555 1_555
N1P C4P 1_555 1_555
N1B C4B 1_555 1_555
N1Q C4Q 1_555 1_555
N2O C5O 1_555 1_555
N2A Cd1 1_555 1_555
N2P C5P 1_555 1_555
N2B Cd1 1_555 1_555
N2Q C5Q 1_555 1_555
N2I Cd1 1_555 1_555
N2J Cd1 1_555 1_555
N2K Cd1 1_555 1_555
N3O C8O 1_555 1_555
N3A C8A 1_555 1_555
N3P C8P 1_555 1_555
N3B C8B 1_555 1_555
N3Q C8Q 1_555 1_555
N4O C9O 1_555 1_555
N4A Cd2 1_555 1_555
N4P C9P 1_555 1_555
N4B Cd2 1_555 1_555
N4Q C9Q 1_555 1_555
N4I Cd2 1_555 1_555
N4J Cd2 1_555 1_555
N4K Cd2 1_555 1_555
C1O C2O 1_555 1_555
C1A C2A 1_555 1_555
C1P C2P 1_555 1_555
C1B C2B 1_555 1_555
C1Q C2Q 1_555 1_555
C2O C3 1_555 1_555
C2A C3P 1_555 1_555
C2P C3A 1_555 1_555
C2B C3Q 1_555 1_555
C2Q C3B 1_555 1_555
C3O C2 1_555 1_555
C3A C1A 1_555 1_555
C3P C1P 1_555 1_555
C3B C1B 1_555 1_555
C3Q C1Q 1_555 1_555
H1O C3O 1_555 1_555
H1A C3A 1_555 1_555
H1P C3P 1_555 1_555
H1B C3B 1_555 1_555
H1Q C3Q 1_555 1_555
C4O C1O 1_555 1_555
C4A C1A 1_555 1_555
C4P C1P 1_555 1_555
C4B C1B 1_555 1_555
C4Q C1Q 1_555 1_555
H2O C4O 1_555 1_555
H2A C4A 1_555 1_555
H2P C4P 1_555 1_555
H2B C4B 1_555 1_555
H2Q C4Q 1_555 1_555
H3O C4O 1_555 1_555
H3A C4A 1_555 1_555
H3P C4P 1_555 1_555
H3B C4B 1_555 1_555
H3Q C4Q 1_555 1_555
C5O N1O 1_555 1_555
C5A N1A 1_555 1_555
C5P N1P 1_555 1_555
C5B N1B 1_555 1_555
C5Q N1Q 1_555 1_555
H4O C5O 1_555 1_555
H4A C5A 1_555 1_555
H4P C5P 1_555 1_555
H4B C5B 1_555 1_555
H4Q C5Q 1_555 1_555
C6O N2O 1_555 1_555
C6A N2A 1_555 1_555
C6P N2P 1_555 1_555
C6B N2B 1_555 1_555
C6Q N2Q 1_555 1_555
H5O C6O 1_555 1_555
H5A C6A 1_555 1_555
H5P C6P 1_555 1_555
H5B C6B 1_555 1_555
H5Q C6Q 1_555 1_555
C7O N1O 1_555 1_555
C7A N1A 1_555 1_555
C7P N1P 1_555 1_555
C7B N1B 1_555 1_555
C7Q N1Q 1_555 1_555
H6O C7O 1_555 1_555
H6A C7A 1_555 1_555
H6P C7P 1_555 1_555
H6B C7B 1_555 1_555
H6Q C7Q 1_555 1_555
C8O C2O 1_555 1_555
C8A C2A 1_555 1_555
C8P C2P 1_555 1_555
C8B C2B 1_555 1_555
C8Q C2Q 1_555 1_555
H7O C8O 1_555 1_555
H7A C8A 1_555 1_555
H7P C8P 1_555 1_555
H7B C8B 1_555 1_555
H7Q C8Q 1_555 1_555
H8O C8O 1_555 1_555
H8A C8A 1_555 1_555
H8P C8P 1_555 1_555
H8B C8B 1_555 1_555
H8Q C8Q 1_555 1_555
C9O N3O 1_555 1_555
C9A N3A 1_555 1_555
C9P N3P 1_555 1_555
C9B N3B 1_555 1_555
C9Q N3Q 1_555 1_555
H9O C9O 1_555 1_555
H9A C9A 1_555 1_555
H9P C9P 1_555 1_555
H9B C9B 1_555 1_555
H9Q C9Q 1_555 1_555
C10O N4O 1_555 1_555
C10A N4A 1_555 1_555
C10P N4P 1_555 1_555
C10B N4B 1_555 1_555
C10Q N4Q 1_555 1_555
H10O C10O 1_555 1_555
H10A C10A 1_555 1_555
H10P C10P 1_555 1_555
H10B C10B 1_555 1_555
H10Q C10Q 1_555 1_555
C11O N3O 1_555 1_555
C11A N3A 1_555 1_555
C11P N3P 1_555 1_555
C11B N3B 1_555 1_555
C11Q N3Q 1_555 1_555
H11O C11O 1_555 1_555
H11A C11A 1_555 1_555
H11P C11P 1_555 1_555
H11B C11B 1_555 1_555
H11Q C11Q 1_555 1_555
C6 C7 1_555 1_555
C10 C11 1_555 1_555
N2A C5A 1_555 1_555
N2B C5B 1_555 1_555
N4A C9A 1_555 1_555
N4B C9B 1_555 1_555
C1O C3O 1_555 1_555
C6O C7O 1_555 1_555
C6A C7A 1_555 1_555
C6P C7P 1_555 1_555
C6B C7B 1_555 1_555
C6Q C7Q 1_555 1_555
C10O C11O 1_555 1_555
C10A C11A 1_555 1_555
C10P C11P 1_555 1_555
C10B C11B 1_555 1_555
C10Q C11Q 1_555 1_555

#END
