
#######################################################################
#
#                 Cambridge Crystallographic Data Centre
#                                CCDC 
#
#######################################################################
#
# If this CIF has been generated from an entry in the Cambridge 
# Structural Database, then it will include bibliographic, chemical, 
# crystal, experimental, refinement or atomic coordinate data resulting 
# from the CCDC's data processing and validation procedures.
#
#######################################################################

data_HORJOP
_symmetry_cell_setting           monoclinic
_symmetry_space_group_name_H-M   'C 2/c'
_symmetry_Int_Tables_number      15
_space_group_name_Hall           '-C 2yn'
loop_
_symmetry_equiv_pos_site_id
_symmetry_equiv_pos_as_xyz
1 x,y,z
2 -x,y,1/2-z
3 1/2+x,1/2+y,z
4 1/2-x,1/2+y,1/2-z
5 -x,-y,-z
6 x,-y,1/2+z
7 1/2-x,1/2-y,-z
8 1/2+x,1/2-y,1/2+z
_cell_length_a                   9.4288(6)
_cell_length_b                   12.9976(8)
_cell_length_c                   6.3958(4)
_cell_angle_alpha                90
_cell_angle_beta                 91.616(2)
_cell_angle_gamma                90
_cell_volume                     783.505
loop_
_atom_site_label
_atom_site_type_symbol
_atom_site_fract_x
_atom_site_fract_y
_atom_site_fract_z
Fe1 Fe 0.0000 0.427806(19) 0.2500
Cl1 Cl -0.14604(3) 0.42932(2) 0.57133(4)
N1 N 0.14752(11) 0.32878(8) 0.42762(16)
H1 H 0.1526 0.3596 0.5588
C1 C 0.29732(13) 0.32878(10) 0.36202(19)
H2 H 0.3284 0.4005 0.3390
H3 H 0.3041 0.2913 0.2279
C2 C 0.10470(13) 0.22155(10) 0.4745(2)
H4 H 0.1054 0.1805 0.3442
H5 H 0.0066 0.2216 0.5257
N1F N 0.35248(11) 0.17122(8) 0.57238(16)
H1F H 0.3474 0.1404 0.4412
C1F C 0.20268(13) 0.17122(10) 0.63798(19)
H2F H 0.1716 0.0995 0.6610
H3F H 0.1959 0.2087 0.7721
C2F C 0.39530(13) 0.27845(10) 0.5255(2)
H4F H 0.3946 0.3195 0.6558
H5F H 0.4934 0.2784 0.4743
Cl1A Cl 0.14604(3) 0.42932(2) -0.07133(4)
Fe1D Fe 0.0000 0.572194(19) -0.2500
Fe1D_2 Fe 0.0000 0.572194(19) 0.7500
Fe1F Fe 0.5000 0.072194(19) 0.7500
Cl1D Cl 0.14604(3) 0.57068(2) 0.42867(4)
Cl1E Cl -0.14604(3) 0.57068(2) 0.07133(4)
N1A N -0.14752(11) 0.32878(8) 0.07238(16)
loop_
_geom_bond_atom_site_label_1
_geom_bond_atom_site_label_2
_geom_bond_site_symmetry_1
_geom_bond_site_symmetry_2
Fe1 Cl1 1_555 1_555
Cl1 Fe1D_2 1_555 1_555
N1 Fe1 1_555 1_555
H1 N1 1_555 1_555
C1 N1 1_555 1_555
H2 C1 1_555 1_555
H3 C1 1_555 1_555
C2 N1 1_555 1_555
H4 C2 1_555 1_555
H5 C2 1_555 1_555
N1F H1F 1_555 1_555
C1F C2 1_555 1_555
H2F C1F 1_555 1_555
H3F C1F 1_555 1_555
C2F C1 1_555 1_555
H4F C2F 1_555 1_555
H5F C2F 1_555 1_555
Cl1A Fe1 1_555 1_555
Fe1D Cl1A 1_555 1_555
Fe1D_2 Cl1D 1_555 1_555
Fe1F N1F 1_555 1_555
Cl1D Fe1 1_555 1_555
Cl1E Fe1 1_555 1_555
N1A Fe1 1_555 1_555
N1F C1F 1_555 1_555
N1F C2F 1_555 1_555
Fe1D Cl1E 1_555 1_555

#END
