
#######################################################################
#
#                 Cambridge Crystallographic Data Centre
#                                CCDC 
#
#######################################################################
#
# If this CIF has been generated from an entry in the Cambridge 
# Structural Database, then it will include bibliographic, chemical, 
# crystal, experimental, refinement or atomic coordinate data resulting 
# from the CCDC's data processing and validation procedures.
#
#######################################################################

data_HOVGIK
_symmetry_cell_setting           monoclinic
_symmetry_space_group_name_H-M   'P 21/c'
_symmetry_Int_Tables_number      14
_space_group_name_Hall           '-P 2ybc'
loop_
_symmetry_equiv_pos_site_id
_symmetry_equiv_pos_as_xyz
1 x,y,z
2 -x,1/2+y,1/2-z
3 -x,-y,-z
4 x,1/2-y,1/2+z
_cell_length_a                   11.1597(5)
_cell_length_b                   22.0750(9)
_cell_length_c                   17.4340(7)
_cell_angle_alpha                90
_cell_angle_beta                 99.424(4)
_cell_angle_gamma                90
_cell_volume                     4236.91
loop_
_atom_site_label
_atom_site_type_symbol
_atom_site_fract_x
_atom_site_fract_y
_atom_site_fract_z
Cd1 Cd 0.36763(3) 0.442613(19) 0.47128(2)
O1 O 0.3460(4) 0.5435(2) 0.4602(2)
O2 O -0.1770(3) 0.92834(17) 0.1201(2)
O3 O 0.4970(4) 0.6039(2) 0.4446(3)
O4 O -0.2786(4) 0.84997(18) 0.0637(2)
N1 N 0.9322(4) 0.5025(2) -0.2589(3)
N2 N 1.0561(4) 0.4418(2) -0.1846(2)
H1 H 1.1159 0.4185 -0.1665
N3 N 0.4636(4) 0.4469(2) 0.3633(3)
N4 N 0.7251(4) 0.4356(2) 0.1466(3)
H2 H 0.7631 0.4068 0.1736
N5 N 0.5898(4) 0.5100(2) 0.1085(3)
N6 N 1.2562(4) 0.4535(2) -0.4279(2)
N7 N 0.8823(4) 0.4954(2) -0.1933(3)
N8 N 0.6666(4) 0.5033(2) 0.0560(3)
C1 C 0.5711(5) 0.4600(3) 0.2313(3)
C2 C 0.4125(5) 0.4813(3) 0.3031(3)
H3 H 0.3398 0.5009 0.3065
N9 N 1.0327(5) 0.3858(2) 0.0450(3)
C3 C 0.6281(5) 0.4682(3) 0.1617(3)
C4 C 1.1114(5) 0.4649(3) -0.3132(3)
C5 C 1.2090(5) 0.4250(3) -0.3039(3)
H4 H 1.2272 0.4017 -0.2591
C6 C 1.0356(5) 0.4698(3) -0.2522(3)
C7 C 0.4627(5) 0.4889(3) 0.2371(3)
H5 H 0.4245 0.5131 0.1967
C8 C 0.9471(5) 0.4392(3) -0.0717(3)
C9 C 1.0882(5) 0.4984(3) -0.3815(3)
H6 H 1.0229 0.5251 -0.3901
C10 C 0.9605(5) 0.4583(2) -0.1505(3)
C11 C 0.5676(5) 0.4190(3) 0.3578(3)
H7 H 0.6042 0.3952 0.3991
C12 C 0.6234(5) 0.4241(3) 0.2926(3)
H8 H 0.6954 0.4036 0.2902
C13 C 1.1632(5) 0.4917(3) -0.4362(3)
H9 H 1.1479 0.5150 -0.4812
C14 C 0.8440(5) 0.4394(3) 0.0385(3)
C15 C 1.0357(5) 0.4037(3) -0.0282(3)
H10 H 1.1013 0.3916 -0.0512
C16 C 0.8488(5) 0.4573(2) -0.0370(3)
H11 H 0.7873 0.4811 -0.0642
C17 C -0.0997(5) 0.8295(3) 0.1525(3)
C18 C 0.7464(5) 0.4589(3) 0.0806(3)
C19 C 1.2785(5) 0.4206(3) -0.3626(3)
H12 H 1.3435 0.3937 -0.3563
C20 C 0.3879(5) 0.5862(3) 0.4327(3)
C21 C 0.9375(5) 0.4040(3) 0.0767(3)
H13 H 0.9340 0.3922 0.1275
C22 C 0.1488(6) 0.7040(3) 0.2792(4)
C23 C -0.1891(5) 0.8715(3) 0.1098(3)
C24 C 0.0888(6) 0.8085(3) 0.2370(4)
H14 H 0.1597 0.8228 0.2671
C25 C 0.0643(6) 0.7465(3) 0.2332(3)
C26 C 0.3503(6) 0.6743(3) 0.3367(4)
H15 H 0.4338 0.6806 0.3428
C27 C 0.0062(6) 0.8489(3) 0.1956(4)
H16 H 0.0240 0.8901 0.1974
C28 C -0.0429(6) 0.7258(3) 0.1878(4)
H17 H -0.0599 0.6845 0.1844
C29 C 0.2732(6) 0.7122(3) 0.2884(4)
H18 H 0.3052 0.7434 0.2620
C30 C 0.3051(6) 0.6270(3) 0.3764(3)
C31 C 0.1036(6) 0.6556(3) 0.3163(4)
H19 H 0.0204 0.6484 0.3085
C32 C 0.1818(6) 0.6174(3) 0.3652(4)
H20 H 0.1503 0.5853 0.3903
C33 C -0.1235(6) 0.7668(3) 0.1480(4)
H21 H -0.1946 0.7529 0.1178
Cd1_2 Cd 1.36763(3) 0.442613(19) -0.52872(2)
Cd1A Cd -0.36763(3) 0.942613(19) 0.02872(2)
Cd1B Cd 0.63237(3) 0.557387(19) 0.52872(2)
O2A O 0.1770(3) 0.42834(17) 0.3799(2)
O3B O 0.5030(4) 0.3961(2) 0.5554(3)
O4A O 0.2786(4) 0.34997(18) 0.4363(2)
N6_2 N 0.2562(4) 0.4535(2) 0.5721(2)
O5 O 0.6422(5) 0.5915(2) 0.9486(3)
N10 N 0.6634(6) 0.6557(3) 0.8516(4)
C34 C 0.6884(6) 0.6057(3) 0.8925(4)
H22 H 0.7454 0.5794 0.8775
C35 C 0.7251(8) 0.6678(4) 0.7876(5)
H23 H 0.7911 0.6398 0.7885
H24 H 0.7560 0.7085 0.7915
H25 H 0.6694 0.6633 0.7398
C36 C 0.5763(13) 0.6992(5) 0.8687(8)
H26 H 0.5709 0.6975 0.9230
H27 H 0.4984 0.6902 0.8386
H28 H 0.6012 0.7390 0.8558
C37 C -0.0781(10) 0.7258(5) 0.4430(7)
H29 H -0.1120 0.7568 0.4717
H30 H -0.1320 0.6916 0.4360
H31 H -0.0677 0.7414 0.3931
N11 N 0.0391(9) 0.7071(3) 0.4856(5)
C38 C 0.1325(11) 0.7511(5) 0.4954(8)
H32 H 0.1548 0.7604 0.4459
H33 H 0.2018 0.7356 0.5296
H34 H 0.1041 0.7872 0.5174
O6 O 0.1607(17) 0.6371(6) 0.5512(7)
C39 C 0.0483(17) 0.6466(9) 0.5096(9)
H35 H -0.0125 0.6176 0.4989
O7 O 0.6159(7) 0.8083(3) 0.7322(4)
N12 N 0.4899(7) 0.8114(3) 0.6156(4)
C40 C 0.5545(9) 0.8359(4) 0.6783(6)
H36 H 0.5534 0.8780 0.6820
C41 C 0.4132(9) 0.8497(5) 0.5570(6)
H37 H 0.3292 0.8438 0.5609
H38 H 0.4266 0.8386 0.5058
H39 H 0.4342 0.8915 0.5663
C42 C 0.4782(11) 0.7461(4) 0.6064(7)
H40 H 0.5069 0.7340 0.5597
H41 H 0.3944 0.7348 0.6031
H42 H 0.5255 0.7264 0.6503
loop_
_geom_bond_atom_site_label_1
_geom_bond_atom_site_label_2
_geom_bond_site_symmetry_1
_geom_bond_site_symmetry_2
Cd1 O1 1_555 1_555
O1 C20 1_555 1_555
O2 C23 1_555 1_555
O3 C20 1_555 1_555
O4 C23 1_555 1_555
N1 N7 1_555 1_555
N2 H1 1_555 1_555
N3 Cd1 1_555 1_555
N4 H2 1_555 1_555
N5 N8 1_555 1_555
N6 C13 1_555 1_555
N7 C10 1_555 1_555
N8 C18 1_555 1_555
C1 C3 1_555 1_555
C2 N3 1_555 1_555
H3 C2 1_555 1_555
N9 C15 1_555 1_555
C3 N4 1_555 1_555
C4 C5 1_555 1_555
C5 H4 1_555 1_555
C6 N1 1_555 1_555
C7 C1 1_555 1_555
H5 C7 1_555 1_555
C8 C10 1_555 1_555
C9 C4 1_555 1_555
H6 C9 1_555 1_555
C10 N2 1_555 1_555
C11 N3 1_555 1_555
H7 C11 1_555 1_555
C12 C1 1_555 1_555
H8 C12 1_555 1_555
C13 C9 1_555 1_555
H9 C13 1_555 1_555
C14 C16 1_555 1_555
C15 C8 1_555 1_555
H10 C15 1_555 1_555
C16 C8 1_555 1_555
H11 C16 1_555 1_555
C17 C23 1_555 1_555
C18 N4 1_555 1_555
C19 N6 1_555 1_555
H12 C19 1_555 1_555
C20 C30 1_555 1_555
C21 N9 1_555 1_555
H13 C21 1_555 1_555
C22 C25 1_555 1_555
C24 H14 1_555 1_555
C25 C24 1_555 1_555
C26 H15 1_555 1_555
C27 C17 1_555 1_555
H16 C27 1_555 1_555
C28 C25 1_555 1_555
H17 C28 1_555 1_555
C29 C22 1_555 1_555
H18 C29 1_555 1_555
C30 C26 1_555 1_555
C31 C22 1_555 1_555
H19 C31 1_555 1_555
C32 C30 1_555 1_555
H20 C32 1_555 1_555
C33 C17 1_555 1_555
H21 C33 1_555 1_555
O5 C34 1_555 1_555
N10 C34 1_555 1_555
C34 H22 1_555 1_555
C35 N10 1_555 1_555
H23 C35 1_555 1_555
H24 C35 1_555 1_555
H25 C35 1_555 1_555
C36 N10 1_555 1_555
H26 C36 1_555 1_555
H27 C36 1_555 1_555
H28 C36 1_555 1_555
C37 H29 1_555 1_555
H30 C37 1_555 1_555
H31 C37 1_555 1_555
N11 C37 1_555 1_555
C38 N11 1_555 1_555
H32 C38 1_555 1_555
H33 C38 1_555 1_555
H34 C38 1_555 1_555
O6 C39 1_555 1_555
C39 N11 1_555 1_555
H35 C39 1_555 1_555
O7 C40 1_555 1_555
N12 C40 1_555 1_555
C40 H36 1_555 1_555
C41 N12 1_555 1_555
H37 C41 1_555 1_555
H38 C41 1_555 1_555
H39 C41 1_555 1_555
C42 N12 1_555 1_555
H40 C42 1_555 1_555
H41 C42 1_555 1_555
H42 C42 1_555 1_555
Cd1_2 N6 1_555 1_555
Cd1A O2 1_555 1_555
Cd1B O3 1_555 1_555
O2A Cd1 1_555 1_555
O3B Cd1 1_555 1_555
O4A Cd1 1_555 1_555
N6_2 Cd1 1_555 1_555
O4 Cd1A 1_555 1_555
N2 C6 1_555 1_555
N5 C3 1_555 1_555
C2 C7 1_555 1_555
C4 C6 1_555 1_555
C5 C19 1_555 1_555
C11 C12 1_555 1_555
C14 C18 1_555 1_555
C14 C21 1_555 1_555
C24 C27 1_555 1_555
C26 C29 1_555 1_555
C28 C33 1_555 1_555
C31 C32 1_555 1_555

#END
