
#######################################################################
#
#                 Cambridge Crystallographic Data Centre
#                                CCDC 
#
#######################################################################
#
# If this CIF has been generated from an entry in the Cambridge 
# Structural Database, then it will include bibliographic, chemical, 
# crystal, experimental, refinement or atomic coordinate data resulting 
# from the CCDC's data processing and validation procedures.
#
#######################################################################

data_HOWQAM
_symmetry_cell_setting           orthorhombic
_symmetry_space_group_name_H-M   'P b c a'
_symmetry_Int_Tables_number      61
_space_group_name_Hall           '-P 2ac 2ab'
loop_
_symmetry_equiv_pos_site_id
_symmetry_equiv_pos_as_xyz
1 x,y,z
2 1/2-x,-y,1/2+z
3 -x,1/2+y,1/2-z
4 1/2+x,1/2-y,-z
5 -x,-y,-z
6 1/2+x,y,1/2-z
7 x,1/2-y,1/2+z
8 1/2-x,1/2+y,z
_cell_length_a                   13.2087(15)
_cell_length_b                   13.0913(15)
_cell_length_c                   26.916(3)
_cell_angle_alpha                90
_cell_angle_beta                 90
_cell_angle_gamma                90
_cell_volume                     4654.29
loop_
_atom_site_label
_atom_site_type_symbol
_atom_site_fract_x
_atom_site_fract_y
_atom_site_fract_z
Cd1 Cd 0.19647(3) 0.19481(3) 0.170875(16)
N1 N 0.1051(4) 0.0789(4) 0.22118(19)
N2 N 0.1189(4) 0.1160(4) 0.1035(2)
O1 O 0.0425(5) 0.3156(5) 0.1635(3)
O2 O 0.1563(4) 0.3338(4) 0.2208(2)
O3 O 0.1691(4) 0.5436(4) 0.16479(17)
O4 O 0.1622(4) 0.6728(4) 0.2166(2)
O5 O 0.2839(8) 0.2897(8) 0.1123(4)
C1 C 0.0770(5) 0.3600(5) 0.2000(3)
C2 C 0.0130(4) 0.4411(4) 0.2235(2)
C3 C 0.0390(4) 0.5447(4) 0.2259(2)
C4 C 0.1298(4) 0.5891(4) 0.2001(2)
C5 C 0.0216(4) 0.1087(4) 0.2460(2)
H1 H 0.0033 0.1772 0.2440
C6 C 0.1300(5) -0.0194(5) 0.2241(3)
H2 H 0.1879 -0.0418 0.2078
C7 C -0.0726(5) 0.4099(5) 0.2492(3)
H3 H -0.0917 0.3415 0.2487
C8 C 0.0294(9) 0.1453(10) 0.0887(4)
H4 H -0.0027 0.1984 0.1053
C9 C -0.0199(9) 0.0990(10) 0.0482(4)
H5 H -0.0846 0.1208 0.0396
C10 C 0.0240(6) 0.0238(5) 0.0217(3)
C11 C 0.1126(8) -0.0094(8) 0.0410(4)
H6 H 0.1454 -0.0646 0.0264
C12 C 0.1546(8) 0.0365(8) 0.0815(4)
H7 H 0.2137 0.0082 0.0942
Cd1G Cd 0.30353(3) 0.69481(3) 0.170875(16)
Cd1B Cd -0.19647(3) 0.69481(3) 0.329125(16)
Cd1E Cd -0.30353(3) 0.19481(3) 0.329125(16)
Cd1B_2 Cd -0.19647(3) -0.30519(3) 0.329125(16)
Cd1D Cd -0.19647(3) -0.19481(3) -0.170875(16)
N1B N -0.1051(4) 0.5789(4) 0.27882(19)
N2D N -0.1189(4) -0.1160(4) -0.1035(2)
N2B N -0.1189(4) 0.6160(4) 0.3965(2)
O1B O -0.0425(5) -0.1844(5) 0.3365(3)
O1B_2 O -0.0425(5) 0.8156(5) 0.3365(3)
O2B O -0.1563(4) -0.1662(4) 0.2792(2)
O2B_2 O -0.1563(4) 0.8338(4) 0.2792(2)
O3B O -0.1691(4) 0.0436(4) 0.33521(17)
O4G O 0.3378(4) 0.1728(4) 0.2166(2)
O4B O -0.1622(4) 0.1728(4) 0.2834(2)
O4E O -0.3378(4) 0.6728(4) 0.2834(2)
O5B O -0.2839(8) 0.7897(8) 0.3877(4)
C1B C -0.0770(5) -0.1400(5) 0.3000(3)
C2B C -0.0130(4) -0.0589(4) 0.2765(2)
C3B C -0.0390(4) 0.0447(4) 0.2741(2)
C4B C -0.1298(4) 0.0891(4) 0.2999(2)
C5B C -0.0216(4) 0.6087(4) 0.2540(2)
H1B H -0.0033 0.6772 0.2560
C6B C -0.1300(5) 0.4806(5) 0.2759(3)
H2B H -0.1879 0.4582 0.2922
C7B C 0.0726(5) -0.0901(5) 0.2508(3)
H3B H 0.0917 -0.1585 0.2513
C8D C -0.0294(9) -0.1453(10) -0.0887(4)
H4D H 0.0027 -0.1984 -0.1053
C9D C 0.0199(9) -0.0990(10) -0.0482(4)
H5D H 0.0846 -0.1208 -0.0396
C10D C -0.0240(6) -0.0238(5) -0.0217(3)
C11D C -0.1126(8) 0.0094(8) -0.0410(4)
H6D H -0.1454 0.0646 -0.0264
C12D C -0.1546(8) -0.0365(8) -0.0815(4)
H7D H -0.2137 -0.0082 -0.0942
loop_
_geom_bond_atom_site_label_1
_geom_bond_atom_site_label_2
_geom_bond_site_symmetry_1
_geom_bond_site_symmetry_2
Cd1 N1 1_555 1_555
N1 C5 1_555 1_555
N2 Cd1 1_555 1_555
O1 Cd1 1_555 1_555
O2 Cd1 1_555 1_555
O3 C4 1_555 1_555
O4 C4 1_555 1_555
O5 Cd1 1_555 1_555
C1 O1 1_555 1_555
C2 C1 1_555 1_555
C3 C2 1_555 1_555
C4 C3 1_555 1_555
C5 H1 1_555 1_555
C6 N1 1_555 1_555
H2 C6 1_555 1_555
C7 C2 1_555 1_555
H3 C7 1_555 1_555
C8 N2 1_555 1_555
H4 C8 1_555 1_555
C9 C8 1_555 1_555
H5 C9 1_555 1_555
C10 C9 1_555 1_555
C11 C10 1_555 1_555
H6 C11 1_555 1_555
C12 N2 1_555 1_555
H7 C12 1_555 1_555
Cd1G O4 1_555 1_555
Cd1B N1B 1_555 1_555
Cd1E O4B 1_555 1_555
Cd1B_2 O1B 1_555 1_555
Cd1D N2D 1_555 1_555
N1B C5B 1_555 1_555
N2D C8D 1_555 1_555
N2B Cd1B 1_555 1_555
O1B C1B 1_555 1_555
O1B_2 Cd1B 1_555 1_555
O2B Cd1B_2 1_555 1_555
O2B_2 Cd1B 1_555 1_555
O3B C4B 1_555 1_555
O4G Cd1 1_555 1_555
O4B C4B 1_555 1_555
O4E Cd1B 1_555 1_555
O5B Cd1B 1_555 1_555
C1B O2B 1_555 1_555
C2B C1B 1_555 1_555
C3B C5 1_555 1_555
C4B C3B 1_555 1_555
C5B C3 1_555 1_555
H1B C5B 1_555 1_555
C6B C7 1_555 1_555
H2B C6B 1_555 1_555
C7B C6 1_555 1_555
H3B C7B 1_555 1_555
C8D H4D 1_555 1_555
C9D C8D 1_555 1_555
H5D C9D 1_555 1_555
C10D C10 1_555 1_555
C11D C10D 1_555 1_555
H6D C11D 1_555 1_555
C12D N2D 1_555 1_555
H7D C12D 1_555 1_555
O2 C1 1_555 1_555
C11 C12 1_555 1_555
N1B C6B 1_555 1_555
C2B C3B 1_555 1_555
C2B C7B 1_555 1_555
C9D C10D 1_555 1_555
C11D C12D 1_555 1_555

#END
