
#######################################################################
#
#                 Cambridge Crystallographic Data Centre
#                                CCDC 
#
#######################################################################
#
# If this CIF has been generated from an entry in the Cambridge 
# Structural Database, then it will include bibliographic, chemical, 
# crystal, experimental, refinement or atomic coordinate data resulting 
# from the CCDC's data processing and validation procedures.
#
#######################################################################

data_HOWQER01
_symmetry_cell_setting           orthorhombic
_symmetry_space_group_name_H-M   'C m c m'
_symmetry_Int_Tables_number      63
_space_group_name_Hall           '-C 2n 2'
loop_
_symmetry_equiv_pos_site_id
_symmetry_equiv_pos_as_xyz
1 x,y,z
2 -x,-y,1/2+z
3 -x,y,1/2-z
4 x,-y,-z
5 1/2+x,1/2+y,z
6 1/2-x,1/2-y,1/2+z
7 1/2-x,1/2+y,1/2-z
8 1/2+x,1/2-y,-z
9 -x,-y,-z
10 x,y,1/2-z
11 x,-y,1/2+z
12 -x,y,z
13 1/2-x,1/2-y,-z
14 1/2+x,1/2+y,1/2-z
15 1/2+x,1/2-y,1/2+z
16 1/2-x,1/2+y,z
_cell_length_a                   13.7068(5)
_cell_length_b                   14.0495(5)
_cell_length_c                   13.9218(5)
_cell_angle_alpha                90
_cell_angle_beta                 90
_cell_angle_gamma                90
_cell_volume                     2680.97
loop_
_atom_site_label
_atom_site_type_symbol
_atom_site_fract_x
_atom_site_fract_y
_atom_site_fract_z
B1 B 0.7651(13) 0.453(2) 0.0103(15)
F1 F 0.8514(6) 0.4972(11) 0.0417(8)
F2 F 0.7211(11) 0.4262(10) 0.0935(8)
F3 F 0.7800(13) 0.3824(13) -0.0429(9)
F4 F 0.7069(13) 0.504(2) -0.0402(12)
B1C B 0.7651(13) 0.547(2) -0.0103(15)
F1C F 0.8514(6) 0.5028(11) -0.0417(8)
F2C F 0.7211(11) 0.5738(10) -0.0935(8)
F3C F 0.7800(13) 0.6176(13) 0.0429(9)
F4C F 0.7069(13) 0.496(2) 0.0402(12)
Ag1 Ag 0.5000 0.62671(3) 0.2500
N1 N 0.6643(3) 0.6497(2) 0.2500
N2 N 0.5000 0.7216(3) 0.4179(2)
O1 O 0.5000 0.47665(17) 0.1484(2)
C1 C 0.5000 0.3919(2) 0.1628(2)
N3 N 0.5000 0.3462(2) 0.2500
C2 C 0.5000 0.3197(2) 0.0835(2)
Co1 Co 0.5000 0.21091(3) 0.2500
C3 C 0.5000 0.3439(3) -0.0126(3)
N4 N 0.5000 0.22748(16) 0.11102(18)
N5 N 0.3603(2) 0.19550(17) 0.2500
N6 N 0.5000 0.0751(2) 0.2500
H1 H 0.5000 0.4080 -0.0295
C4 C 0.5000 0.1611(3) 0.0422(3)
C5 C 0.3310(2) 0.1042(2) 0.2500
C6 C 0.2916(3) 0.2636(2) 0.2500
C7 C 0.4114(3) 0.0306(2) 0.2500
C8 C 0.5000 0.1887(3) -0.0537(3)
H2 H 0.5000 0.0968 0.0584
C9 C 0.2322(3) 0.0818(2) 0.2500
C10 C 0.1941(3) 0.2399(3) 0.2500
H3 H 0.3099 0.3273 0.2500
O2 O 0.3959(3) -0.0542(2) 0.2500
H4 H 0.5000 0.1414 -0.1005
H5 H 0.2131 0.0183 0.2500
H6 H 0.1478 0.2882 0.2500
N1B N 0.3357(3) 0.6497(2) 0.2500
N2B N 0.5000 0.7216(3) 0.0821(2)
O1B O 0.5000 0.47665(17) 0.3516(2)
C1B C 0.5000 0.3919(2) 0.3372(2)
C2B C 0.5000 0.3197(2) 0.4165(2)
C3B C 0.5000 0.3439(3) 0.5126(3)
N4B N 0.5000 0.22748(16) 0.38898(18)
N5B N 0.6397(2) 0.19550(17) 0.2500
N2A N 0.5000 0.2784(3) -0.0821(2)
N2C N 0.5000 0.2784(3) 0.5821(2)
H1B H 0.5000 0.4080 0.5295
C4B C 0.5000 0.1611(3) 0.4578(3)
Ag1A Ag 0.5000 0.37329(3) 0.7500
Ag1A_2 Ag 0.5000 0.37329(3) -0.2500
C7B C 0.5886(3) 0.0306(2) 0.2500
C5B C 0.6690(2) 0.1042(2) 0.2500
C6B C 0.7084(3) 0.2636(2) 0.2500
C8B C 0.5000 0.1887(3) 0.5537(3)
H2B H 0.5000 0.0968 0.4416
O2B O 0.6041(3) -0.0542(2) 0.2500
C9B C 0.7678(3) 0.0818(2) 0.2500
C10B C 0.8059(3) 0.2399(3) 0.2500
H3B H 0.6901 0.3273 0.2500
H4B H 0.5000 0.1414 0.6005
N1D N 0.1643(3) 0.1497(2) 0.2500
H5B H 0.7869 0.0183 0.2500
N1F N 0.8357(3) 0.1497(2) 0.2500
H6B H 0.8522 0.2882 0.2500
Ag1D Ag 0.0000 0.12671(3) 0.2500
Ag1D_2 Ag 1.0000 0.12671(3) 0.2500
loop_
_geom_bond_atom_site_label_1
_geom_bond_atom_site_label_2
_geom_bond_site_symmetry_1
_geom_bond_site_symmetry_2
Ag1 N1 1_555 1_555
N2 Ag1 1_555 1_555
O1 Ag1 1_555 1_555
C1 O1 1_555 1_555
N3 C1 1_555 1_555
C2 C1 1_555 1_555
Co1 N3 1_555 1_555
C3 C2 1_555 1_555
N4 C2 1_555 1_555
N5 Co1 1_555 1_555
N6 Co1 1_555 1_555
H1 C3 1_555 1_555
C4 N4 1_555 1_555
C5 N5 1_555 1_555
C6 N5 1_555 1_555
C7 N6 1_555 1_555
C8 C4 1_555 1_555
H2 C4 1_555 1_555
C9 C5 1_555 1_555
C10 C6 1_555 1_555
H3 C6 1_555 1_555
O2 C7 1_555 1_555
H4 C8 1_555 1_555
H5 C9 1_555 1_555
H6 C10 1_555 1_555
B1 F1 1_555 1_555
F1 B1C 1_555 1_555
F2 B1 1_555 1_555
F3 B1 1_555 1_555
F4 B1 1_555 1_555
N1B Ag1 1_555 1_555
N2B Ag1 1_555 1_555
O1B Ag1 1_555 1_555
C1B N3 1_555 1_555
C2B C1B 1_555 1_555
C3B C2B 1_555 1_555
N4B Co1 1_555 1_555
N5B Co1 1_555 1_555
N2A C3 1_555 1_555
N2C C3B 1_555 1_555
H1B C3B 1_555 1_555
C4B N4B 1_555 1_555
Ag1A N2C 1_555 1_555
Ag1A_2 N2A 1_555 1_555
C7B N6 1_555 1_555
C5B N5B 1_555 1_555
C6B N5B 1_555 1_555
C8B N2C 1_555 1_555
H2B C4B 1_555 1_555
O2B C7B 1_555 1_555
C9B C5B 1_555 1_555
C10B C6B 1_555 1_555
H3B C6B 1_555 1_555
H4B C8B 1_555 1_555
N1D C9 1_555 1_555
H5B C9B 1_555 1_555
N1F C9B 1_555 1_555
H6B C10B 1_555 1_555
Ag1D N1D 1_555 1_555
Ag1D_2 N1F 1_555 1_555
B1C B1 1_555 1_555
F1C B1 1_555 1_555
F2C F4 1_555 1_555
F3C B1C 1_555 1_555
F4C B1 1_555 1_555
Co1 N4 1_555 1_555
C5 C7 1_555 1_555
C8 N2A 1_555 1_555
C10 N1D 1_555 1_555
F1 F1C 1_555 1_555
F2 F4C 1_555 1_555
F4 B1C 1_555 1_555
F4 F4C 1_555 1_555
O1B C1B 1_555 1_555
C2B N4B 1_555 1_555
C4B C8B 1_555 1_555
C7B C5B 1_555 1_555
C10B N1F 1_555 1_555
B1C F1C 1_555 1_555
B1C F2C 1_555 1_555
B1C F4C 1_555 1_555

#END
