
#######################################################################
#
#                 Cambridge Crystallographic Data Centre
#                                CCDC 
#
#######################################################################
#
# If this CIF has been generated from an entry in the Cambridge 
# Structural Database, then it will include bibliographic, chemical, 
# crystal, experimental, refinement or atomic coordinate data resulting 
# from the CCDC's data processing and validation procedures.
#
#######################################################################

data_HOWSIX
_symmetry_cell_setting           tetragonal
_symmetry_space_group_name_H-M   'P 43 21 2'
_symmetry_Int_Tables_number      96
_space_group_name_Hall           'P 4nw 2abw'
loop_
_symmetry_equiv_pos_site_id
_symmetry_equiv_pos_as_xyz
1 x,y,z
2 -x,-y,1/2+z
3 1/2-y,1/2+x,3/4+z
4 1/2+y,1/2-x,1/4+z
5 1/2-x,1/2+y,3/4-z
6 1/2+x,1/2-y,1/4-z
7 y,x,-z
8 -y,-x,1/2-z
_cell_length_a                   12.50850(10)
_cell_length_b                   12.50850(10)
_cell_length_c                   70.2284(15)
_cell_angle_alpha                90
_cell_angle_beta                 90
_cell_angle_gamma                90
_cell_volume                     10988.1
loop_
_atom_site_label
_atom_site_type_symbol
_atom_site_fract_x
_atom_site_fract_y
_atom_site_fract_z
O22 O 0.3824(15) 0.6815(18) -0.2150(3)
O23 O 0.488(2) 0.531(3) -0.2869(5)
Cu1 Cu 0.61801(7) 1.37977(7) -0.166871(11)
Cu2 Cu 0.68690(6) 1.44081(7) -0.132708(11)
Cu3 Cu 0.6036(2) 0.77676(13) -0.254534(18)
Cu4 Cu 0.65481(18) 0.97478(13) -0.249713(19)
O1 O 0.5433(3) 1.4786(4) -0.12555(6)
O2 O 0.6938(4) 0.5797(3) -0.14690(6)
O3 O 0.6542(3) 1.2910(3) -0.12644(6)
O4 O -0.1713(3) 1.4015(4) -0.14202(6)
O5 O 0.7428(3) 1.0102(3) -0.14224(5)
O6 O 0.6006(3) 1.2413(3) -0.15570(6)
O7 O -0.2302(4) 1.3536(4) -0.17095(6)
C1 C 0.0416(4) 1.3893(5) -0.15263(8)
H1 H 0.0272 1.3952 -0.1397
O8 O 0.0232(5) 1.3447(7) -0.22291(7)
C2 C 0.0813(7) 1.3733(8) -0.19159(10)
C3 C 0.6376(5) 0.9188(5) -0.18233(8)
H2 H 0.6332 0.9889 -0.1867
C4 C 0.6563(5) 0.7087(5) -0.17015(8)
C5 C 0.6583(6) 0.7913(4) -0.15722(7)
H3 H 0.6695 0.7766 -0.1444
N1 N 0.2867(4) 1.5095(4) -0.14707(8)
C6 C -0.1547(4) 1.3761(4) -0.15873(7)
C7 C 0.6558(5) 0.9858(4) -0.14895(7)
C8 C 0.4724(5) 1.4750(5) -0.13831(9)
C9 C 0.6137(4) 1.2263(4) -0.13863(8)
C10 C 0.1085(6) 1.3664(10) -0.21203(10)
C11 C 0.6435(5) 0.8989(4) -0.16321(8)
O9 O 0.6014(8) 0.7799(6) -0.22697(7)
C12 C 0.6434(6) 0.7282(6) -0.18947(9)
H4 H 0.6384 0.6724 -0.1982
C13 C 0.6383(6) 0.8345(5) -0.19534(8)
C14 C 0.6624(6) 0.5966(4) -0.16363(9)
C15 C -0.0406(5) 1.3715(5) -0.16539(8)
C16 C 0.2337(4) 1.4201(5) -0.14529(8)
O10 O 0.6456(10) 0.9442(6) -0.22217(8)
C17 C 0.1667(6) 1.3891(8) -0.17876(11)
H5 H 0.2366 1.3935 -0.1832
C18 C 0.1450(5) 1.3982(5) -0.15921(9)
C19 C 0.6277(8) 0.8576(5) -0.21657(9)
O11 O 0.1974(6) 1.3826(9) -0.21808(8)
C20 C 0.5685(6) 1.1226(4) -0.12981(9)
H6 H 0.6092 1.1017 -0.1185
C21 C 0.3726(6) 1.5384(7) -0.13446(13)
H7 H 0.3499 1.5250 -0.1213
C22 C -0.0201(6) 1.3623(6) -0.18515(9)
H8 H -0.0757 1.3489 -0.1936
O12 O 0.2500(5) 1.3595(5) -0.13162(9)
C23 C 0.3937(5) 1.1104(6) -0.14316(14)
H9 H 0.3210 1.0886 -0.1403
H10 H 0.3917 1.1694 -0.1521
C24 C 0.4535(6) 1.1416(5) -0.12504(12)
H11 H 0.4314 1.0975 -0.1144
H12 H 0.4411 1.2160 -0.1219
C25 C 0.2726(7) 1.5943(6) -0.16142(13)
H13 H 0.2028 1.6277 -0.1604
H14 H 0.2823 1.5672 -0.1742
O13 O 0.671(3) 1.1417(10) -0.2483(3)
O14 O 0.6368(4) 0.5260(3) -0.17577(6)
O15 O 0.4829(3) 1.4292(4) -0.15433(7)
N2 N 0.5656(4) 1.0352(3) -0.14388(7)
O16 O 1.0256(9) 0.5086(14) -0.24942(15)
O17 O 0.8041(10) 0.9494(10) -0.24914(15)
O18 O 0.5615(8) 1.3344(6) -0.19463(9)
C26 C 0.8125(13) 0.8558(9) -0.25257(18)
O19 O 0.7708(8) 0.7755(11) -0.25404(16)
O20 O 1.2060(15) 0.5433(10) -0.2453(2)
O21 O 0.586(2) 0.6095(15) -0.2561(3)
C27 C 1.1061(7) 0.5568(10) -0.24627(13)
C28 C 0.4570(6) 1.0190(6) -0.15096(12)
H15 H 0.4284 0.9514 -0.1465
H16 H 0.4558 1.0195 -0.1648
C29 C 0.9459(15) 0.841(2) -0.2491(3)
C30 C 1.1287(10) 0.8713(10) -0.2500
C31 C 0.3937(8) 1.6513(9) -0.1367(2)
H17 H 0.3516 1.6933 -0.1278
H18 H 0.4689 1.6671 -0.1347
C32 C 0.3627(13) 1.6720(9) -0.1558(2)
H19 H 0.4234 1.6625 -0.1642
H20 H 0.3379 1.7452 -0.1570
C33 C 0.9826(15) 0.7223(15) -0.2468(5)
C34 C 1.015(3) 0.913(3) -0.2468(3)
C35 C 1.0808(11) 0.6817(13) -0.2484(3)
C36 C 1.145(3) 0.758(3) -0.2459(4)
O16G O 1.4914(14) 0.9744(9) -0.25058(15)
O17G O 1.0506(10) 1.1959(10) -0.25086(15)
C26G C 1.1442(9) 1.1875(13) -0.24743(18)
O19G O 1.2245(11) 1.2292(8) -0.24596(16)
O20G O 1.4567(10) 0.7940(15) -0.2547(2)
C27G C 1.4432(10) 0.8939(7) -0.25373(13)
C29G C 1.159(2) 1.0541(15) -0.2509(3)
C33G C 1.2777(15) 1.0174(15) -0.2532(5)
C34G C 1.087(3) 0.985(3) -0.2532(3)
C35G C 1.3183(13) 0.9192(11) -0.2516(3)
C36G C 1.242(3) 0.855(3) -0.2541(4)
Cu1G Cu 0.62023(7) 1.38199(7) -0.333129(11)
Cu2G Cu 0.55919(7) 1.31310(6) -0.367292(11)
Cu3G Cu 1.22324(13) 1.3964(2) -0.245466(18)
Cu4G Cu 1.02522(13) 1.34519(18) -0.250287(19)
O1G O 0.5214(4) 1.4567(3) -0.37445(6)
O2G O 1.4203(3) 1.3062(4) -0.35310(6)
O3G O 0.7090(3) 1.3458(3) -0.37356(6)
O4G O 0.5985(4) 2.1713(3) -0.35798(6)
O5G O 0.9898(3) 1.2572(3) -0.35776(5)
O6G O 0.7587(3) 1.3994(3) -0.34430(6)
O7G O 0.6464(4) 2.2302(4) -0.32905(6)
C1G C 0.6107(5) 1.9584(4) -0.34737(8)
H1G H 0.6048 1.9728 -0.3603
O8G O 0.6553(7) 1.9768(5) -0.27709(7)
C2G C 0.6267(8) 1.9187(7) -0.30841(10)
C3G C 1.0812(5) 1.3624(5) -0.31767(8)
H2G H 1.0111 1.3668 -0.3133
C4G C 1.2913(5) 1.3437(5) -0.32985(8)
C5G C 1.2087(4) 1.3417(6) -0.34278(7)
H3G H 1.2234 1.3305 -0.3556
N1G N 0.4905(4) 1.7133(4) -0.35293(8)
C6G C 0.6239(4) 2.1547(4) -0.34127(7)
C7G C 1.0142(4) 1.3442(5) -0.35105(7)
C8G C 0.5250(5) 1.5276(5) -0.36169(9)
C9G C 0.7737(4) 1.3863(4) -0.36137(8)
C10G C 0.6336(10) 1.8915(6) -0.28797(10)
C11G C 1.1011(4) 1.3565(5) -0.33679(8)
O9G O 1.2201(6) 1.3986(8) -0.27303(7)
C12G C 1.2718(6) 1.3566(6) -0.31053(9)
H4G H 1.3276 1.3616 -0.3018
C13G C 1.1655(5) 1.3617(6) -0.30466(8)
C14G C 1.4034(4) 1.3376(6) -0.33637(9)
C15G C 0.6285(5) 2.0406(5) -0.33461(8)
C16G C 0.5799(5) 1.7663(4) -0.35471(8)
O10G O 1.0558(6) 1.3544(10) -0.27783(8)
C17G C 0.6109(8) 1.8333(6) -0.32124(11)
H5G H 0.6065 1.7634 -0.3168
C18G C 0.6018(5) 1.8550(5) -0.34079(9)
C19G C 1.1424(5) 1.3723(8) -0.28343(9)
O11G O 0.6174(9) 1.8026(6) -0.28192(8)
C20G C 0.8774(4) 1.4315(6) -0.37019(9)
H6G H 0.8983 1.3908 -0.3815
C21G C 0.4616(7) 1.6274(6) -0.36554(13)
H7G H 0.4750 1.6501 -0.3787
C22G C 0.6377(6) 2.0201(6) -0.31485(9)
H8G H 0.6511 2.0757 -0.3064
O12G O 0.6405(5) 1.7500(5) -0.36838(9)
C23G C 0.8896(6) 1.6063(5) -0.35684(14)
H9G H 0.9114 1.6790 -0.3597
H10G H 0.8306 1.6083 -0.3479
C24G C 0.8584(5) 1.5465(6) -0.37496(12)
H11G H 0.9025 1.5686 -0.3856
H12G H 0.7840 1.5589 -0.3781
C25G C 0.4057(6) 1.7274(7) -0.33858(13)
H13G H 0.3723 1.7972 -0.3396
H14G H 0.4328 1.7177 -0.3258
O13G O 0.8583(10) 1.329(3) -0.2517(3)
O14G O 1.4740(3) 1.3632(4) -0.32423(6)
O15G O 0.5708(4) 1.5171(3) -0.34567(7)
N2G N 0.9648(3) 1.4344(4) -0.35612(7)
O18G O 0.6656(6) 1.4385(8) -0.30537(9)
O21G O 1.3905(15) 1.414(2) -0.2439(3)
C28G C 0.9810(6) 1.5430(6) -0.34904(12)
H15G H 1.0486 1.5716 -0.3535
H16G H 0.9805 1.5442 -0.3352
C31G C 0.3487(9) 1.6063(8) -0.3633(2)
H17G H 0.3067 1.6484 -0.3722
H18G H 0.3329 1.5311 -0.3653
C32G C 0.3280(9) 1.6373(13) -0.3442(2)
H19G H 0.3375 1.5766 -0.3358
H20G H 0.2548 1.6621 -0.3430
Cu1_2 Cu -0.38199(7) 1.37977(7) -0.166871(11)
Cu1_3 Cu 0.61801(7) 0.37977(7) -0.166871(11)
Cu1G_2 Cu 0.62023(7) 2.38199(7) -0.333129(11)
Cu1G_3 Cu 1.62023(7) 1.38199(7) -0.333129(11)
Cu2_2 Cu -0.31310(6) 1.44081(7) -0.132708(11)
Cu2_3 Cu 0.68690(6) 0.44081(7) -0.132708(11)
Cu2B Cu 1.05919(7) 1.18690(6) -0.382708(11)
Cu2D Cu 0.81310(6) 0.94081(7) -0.117292(11)
Cu2G_2 Cu 0.55919(7) 2.31310(6) -0.367292(11)
Cu2G_3 Cu 1.55919(7) 1.31310(6) -0.367292(11)
Cu3_2 Cu 0.6036(2) 1.77676(13) -0.254534(18)
Cu3_3 Cu 1.6036(2) 0.77676(13) -0.254534(18)
Cu3G_2 Cu 0.22324(13) 1.3964(2) -0.245466(18)
Cu3G_3 Cu 1.22324(13) 0.3964(2) -0.245466(18)
Cu4_2 Cu 0.65481(18) 1.97478(13) -0.249713(19)
Cu4_3 Cu 1.65481(18) 0.97478(13) -0.249713(19)
Cu4G_2 Cu 0.02522(13) 1.34519(18) -0.250287(19)
Cu4G_3 Cu 1.02522(13) 0.34519(18) -0.250287(19)
O2_2 O 0.6938(4) 1.5797(3) -0.14690(6)
O2G_2 O 0.4203(3) 1.3062(4) -0.35310(6)
O4_2 O 0.8287(3) 1.4015(4) -0.14202(6)
O4G_2 O 0.5985(4) 1.1713(3) -0.35798(6)
O5B O 0.4898(3) 1.2428(3) -0.39224(5)
O5D O 0.7572(3) 1.5102(3) -0.10776(5)
O7_2 O 0.7698(4) 1.3536(4) -0.17095(6)
O7G_2 O 0.6464(4) 1.2302(4) -0.32905(6)
O8_2 O 1.0232(5) 1.3447(7) -0.22291(7)
O8G_2 O 0.6553(7) 0.9768(5) -0.27709(7)
O11_2 O 1.1974(6) 1.3826(9) -0.21808(8)
O11G_2 O 0.6174(9) 0.8026(6) -0.28192(8)
O14_2 O 0.6368(4) 1.5260(3) -0.17577(6)
O14G_2 O 0.4740(3) 1.3632(4) -0.32423(6)
O16_2 O 1.0256(9) 1.5086(14) -0.24942(15)
O16G_2 O 0.4914(14) 0.9744(9) -0.25058(15)
O20_2 O 1.2060(15) 1.5433(10) -0.2453(2)
O20G_2 O 0.4567(10) 0.7940(15) -0.2547(2)
loop_
_geom_bond_atom_site_label_1
_geom_bond_atom_site_label_2
_geom_bond_site_symmetry_1
_geom_bond_site_symmetry_2
Cu1 Cu2 1_555 1_555
Cu2 O1 1_555 1_555
Cu3 Cu4 1_555 1_555
Cu4 O10 1_555 1_555
O1 C8 1_555 1_555
O2 C14 1_555 1_555
O3 Cu2 1_555 1_555
O4 C6 1_555 1_555
O5 C7 1_555 1_555
O6 Cu1 1_555 1_555
O7 C6 1_555 1_555
C1 H1 1_555 1_555
O8 C10 1_555 1_555
C2 C10 1_555 1_555
C3 H2 1_555 1_555
C4 C5 1_555 1_555
C5 H3 1_555 1_555
N1 C16 1_555 1_555
C6 C15 1_555 1_555
C7 C11 1_555 1_555
C8 C21 1_555 1_555
C9 O3 1_555 1_555
C10 O11 1_555 1_555
C11 C3 1_555 1_555
O9 Cu3 1_555 1_555
C12 C4 1_555 1_555
H4 C12 1_555 1_555
C13 C3 1_555 1_555
C14 C4 1_555 1_555
C15 C1 1_555 1_555
C16 C18 1_555 1_555
O10 C19 1_555 1_555
C17 C2 1_555 1_555
H5 C17 1_555 1_555
C18 C1 1_555 1_555
C19 O9 1_555 1_555
O11 Cu3G_2 1_555 1_555
C20 C9 1_555 1_555
H6 C20 1_555 1_555
C21 N1 1_555 1_555
H7 C21 1_555 1_555
C22 C2 1_555 1_555
H8 C22 1_555 1_555
O12 C16 1_555 1_555
C23 H9 1_555 1_555
H10 C23 1_555 1_555
C24 C20 1_555 1_555
H11 C24 1_555 1_555
H12 C24 1_555 1_555
C25 N1 1_555 1_555
H13 C25 1_555 1_555
H14 C25 1_555 1_555
O13 Cu4 1_555 1_555
O14 C14 1_555 1_555
O15 Cu1 1_555 1_555
N2 C7 1_555 1_555
O16 C27 1_555 1_555
O17 Cu4 1_555 1_555
O18 Cu1 1_555 1_555
C26 O17 1_555 1_555
O19 Cu3 1_555 1_555
O20 C27 1_555 1_555
O21 Cu3 1_555 1_555
C27 C35 1_555 1_555
C28 C23 1_555 1_555
H15 C28 1_555 1_555
H16 C28 1_555 1_555
C29 C26 1_555 1_555
C30 C34 1_555 1_555
C31 C21 1_555 1_555
H17 C31 1_555 1_555
H18 C31 1_555 1_555
C32 C25 1_555 1_555
H19 C32 1_555 1_555
H20 C32 1_555 1_555
C33 C29 1_555 1_555
C34 C29 1_555 1_555
C35 C33 1_555 1_555
C36 C30 1_555 1_555
O16G C27G 1_555 1_555
O17G C26G 1_555 1_555
C26G O19G 1_555 1_555
O19G Cu3G 1_555 1_555
O20G C27G 1_555 1_555
C27G C35G 1_555 1_555
C29G C26G 1_555 1_555
C33G C29G 1_555 1_555
C34G C30 1_555 1_555
C35G C33G 1_555 1_555
C36G C30 1_555 1_555
Cu1G Cu2G 1_555 1_555
Cu2G O1G 1_555 1_555
Cu3G Cu4G 1_555 1_555
Cu4G O17G 1_555 1_555
O1G C8G 1_555 1_555
O2G C14G 1_555 1_555
O3G Cu2G 1_555 1_555
O4G C6G 1_555 1_555
O5G C7G 1_555 1_555
O6G Cu1G 1_555 1_555
O7G C6G 1_555 1_555
C1G H1G 1_555 1_555
O8G C10G 1_555 1_555
C2G C10G 1_555 1_555
C3G H2G 1_555 1_555
C4G C5G 1_555 1_555
C5G H3G 1_555 1_555
N1G C16G 1_555 1_555
C6G C15G 1_555 1_555
C7G C11G 1_555 1_555
C8G C21G 1_555 1_555
C9G O3G 1_555 1_555
C10G O11G 1_555 1_555
C11G C3G 1_555 1_555
O9G Cu3G 1_555 1_555
C12G C4G 1_555 1_555
H4G C12G 1_555 1_555
C13G C3G 1_555 1_555
C14G C4G 1_555 1_555
C15G C1G 1_555 1_555
C16G C18G 1_555 1_555
O10G Cu4G 1_555 1_555
C17G C2G 1_555 1_555
H5G C17G 1_555 1_555
C18G C1G 1_555 1_555
C19G O9G 1_555 1_555
O11G Cu3_2 1_555 1_555
C20G C9G 1_555 1_555
H6G C20G 1_555 1_555
C21G N1G 1_555 1_555
H7G C21G 1_555 1_555
C22G C2G 1_555 1_555
H8G C22G 1_555 1_555
O12G C16G 1_555 1_555
C23G H9G 1_555 1_555
H10G C23G 1_555 1_555
C24G C20G 1_555 1_555
H11G C24G 1_555 1_555
H12G C24G 1_555 1_555
C25G N1G 1_555 1_555
H13G C25G 1_555 1_555
H14G C25G 1_555 1_555
O13G Cu4G 1_555 1_555
O14G C14G 1_555 1_555
O15G Cu1G 1_555 1_555
N2G C7G 1_555 1_555
O18G Cu1G 1_555 1_555
O21G Cu3G 1_555 1_555
C28G C23G 1_555 1_555
H15G C28G 1_555 1_555
H16G C28G 1_555 1_555
C31G C21G 1_555 1_555
H17G C31G 1_555 1_555
H18G C31G 1_555 1_555
C32G C25G 1_555 1_555
H19G C32G 1_555 1_555
H20G C32G 1_555 1_555
Cu1_2 O7 1_555 1_555
Cu1_3 O14 1_555 1_555
Cu1G_2 O7G 1_555 1_555
Cu1G_3 O14G 1_555 1_555
Cu2_2 O4 1_555 1_555
Cu2_3 O2 1_555 1_555
Cu2B O5G 1_555 1_555
Cu2D O5 1_555 1_555
Cu2G_2 O4G 1_555 1_555
Cu2G_3 O2G 1_555 1_555
Cu3_2 Cu4_2 1_555 1_555
Cu3_3 O20G 1_555 1_555
Cu3G_2 Cu4G_2 1_555 1_555
Cu3G_3 O20 1_555 1_555
Cu4_2 O8G 1_555 1_555
Cu4_3 O16G 1_555 1_555
Cu4G_2 O8 1_555 1_555
Cu4G_3 O16 1_555 1_555
O2_2 Cu2 1_555 1_555
O2G_2 Cu2G 1_555 1_555
O4_2 Cu2 1_555 1_555
O4G_2 Cu2G 1_555 1_555
O5B Cu2G 1_555 1_555
O5D Cu2 1_555 1_555
O7_2 Cu1 1_555 1_555
O7G_2 Cu1G 1_555 1_555
O8_2 Cu4G 1_555 1_555
O8G_2 Cu4 1_555 1_555
O11_2 Cu3G 1_555 1_555
O11G_2 Cu3 1_555 1_555
O14_2 Cu1 1_555 1_555
O14G_2 Cu1G 1_555 1_555
O16_2 Cu4G 1_555 1_555
O16G_2 Cu4 1_555 1_555
O20_2 Cu3G 1_555 1_555
O20G_2 Cu3 1_555 1_555
O6 C9 1_555 1_555
C5 C11 1_555 1_555
C8 O15 1_555 1_555
C12 C13 1_555 1_555
C13 C19 1_555 1_555
C15 C22 1_555 1_555
C17 C18 1_555 1_555
C20 N2 1_555 1_555
C23 C24 1_555 1_555
N2 C28 1_555 1_555
C26 O19 1_555 1_555
C31 C32 1_555 1_555
C35 C36 1_555 1_555
C29G C34G 1_555 1_555
C35G C36G 1_555 1_555
O6G C9G 1_555 1_555
C5G C11G 1_555 1_555
C8G O15G 1_555 1_555
C12G C13G 1_555 1_555
C13G C19G 1_555 1_555
C15G C22G 1_555 1_555
O10G C19G 1_555 1_555
C17G C18G 1_555 1_555
C20G N2G 1_555 1_555
C23G C24G 1_555 1_555
N2G C28G 1_555 1_555
C31G C32G 1_555 1_555
Cu1_2 Cu2_2 1_555 1_555
Cu1_3 Cu2_3 1_555 1_555
Cu1G_2 Cu2G_2 1_555 1_555
Cu1G_3 Cu2G_3 1_555 1_555
Cu3_3 Cu4_3 1_555 1_555
Cu3G_3 Cu4G_3 1_555 1_555

#END
