
#######################################################################
#
#                 Cambridge Crystallographic Data Centre
#                                CCDC 
#
#######################################################################
#
# If this CIF has been generated from an entry in the Cambridge 
# Structural Database, then it will include bibliographic, chemical, 
# crystal, experimental, refinement or atomic coordinate data resulting 
# from the CCDC's data processing and validation procedures.
#
#######################################################################

data_HOWSET
_symmetry_cell_setting           tetragonal
_symmetry_space_group_name_H-M   'P 41 21 2'
_symmetry_Int_Tables_number      92
_space_group_name_Hall           'P 4abw 2nw'
loop_
_symmetry_equiv_pos_site_id
_symmetry_equiv_pos_as_xyz
1 x,y,z
2 -x,-y,1/2+z
3 1/2-y,1/2+x,1/4+z
4 1/2+y,1/2-x,3/4+z
5 1/2-x,1/2+y,1/4-z
6 1/2+x,1/2-y,3/4-z
7 y,x,-z
8 -y,-x,1/2-z
_cell_length_a                   12.47360(10)
_cell_length_b                   12.47360(10)
_cell_length_c                   70.2884(8)
_cell_angle_alpha                90
_cell_angle_beta                 90
_cell_angle_gamma                90
_cell_volume                     10936.2
loop_
_atom_site_label
_atom_site_type_symbol
_atom_site_fract_x
_atom_site_fract_y
_atom_site_fract_z
O22 O -0.3248(12) 0.3622(12) 0.1580(2)
O23 O 0.4625(14) 1.2974(17) 0.16396(18)
Cu1 Cu 0.31190(5) 0.42238(5) 0.116755(9)
Cu2 Cu 0.38252(5) 0.36155(5) 0.082712(9)
Cu3 Cu -0.03520(11) 0.33602(16) -0.000716(16)
Cu4 Cu -0.23264(14) 0.3825(2) 0.004711(17)
O1 O 0.2279(3) 0.3371(3) 0.07828(5)
O2 O 0.3980(3) 1.2218(3) 0.09453(5)
O3 O 0.3014(3) 0.5607(3) 0.10222(5)
O4 O -0.5461(3) 0.4649(3) 0.12404(6)
O5 O 0.1709(3) 0.3798(3) 0.10762(5)
O6 O 0.3495(3) 1.2740(3) 0.12381(5)
O7 O 0.3636(4) 0.5069(3) 0.07366(5)
O8 O 0.2553(3) 0.9930(3) 0.10818(5)
O9 O -0.4823(3) 0.4116(3) 0.09542(6)
C1 C 0.3341(4) 0.5786(4) 0.08577(7)
C2 C 0.1553(4) 0.3548(4) 0.09082(6)
C3 C 0.3380(4) 0.7736(4) 0.09248(7)
H1 H 0.3278 0.7578 0.1053
N1 N 0.4347(4) 1.0168(3) 0.10603(6)
C4 C -0.0410(5) 0.3687(4) 0.09702(8)
H2 H -0.0259 0.3740 0.1099
C5 C -0.1071(6) 0.3491(9) 0.03759(9)
C6 C 0.3507(4) 0.8805(4) 0.08661(6)
C7 C 0.3618(8) 0.8449(6) 0.03296(8)
C8 C 0.3442(4) 0.9678(4) 0.10121(6)
C9 C 0.3578(5) 0.9049(5) 0.06719(8)
H3 H 0.3637 0.9755 0.0631
C10 C 0.3406(4) 0.6921(4) 0.07925(7)
C11 C -0.4743(4) 0.4584(4) 0.11158(9)
C12 C -0.1470(4) 0.3782(5) 0.09055(8)
O10 O -0.2007(5) 0.3660(9) 0.03210(7)
O11 O -0.0317(4) 0.3300(6) 0.02682(6)
C13 C 0.0408(4) 0.3515(4) 0.08415(7)
O12 O 0.4484(7) 0.3070(6) 0.05637(8)
C14 C 0.0205(5) 0.3410(7) 0.06456(8)
H4 H 0.0760 0.3288 0.0560
N2 N -0.2851(3) 0.4936(4) 0.10259(9)
C15 C 0.3883(4) 1.2086(4) 0.11191(7)
C16 C -0.2351(4) 0.4044(5) 0.10501(8)
C17 C 0.3498(6) 0.7154(5) 0.06006(8)
H5 H 0.3518 0.6604 0.0512
O13 O -0.2500(4) 0.3426(5) 0.11838(7)
O14 O -0.2448(9) 0.2173(10) 0.00502(16)
O15 O 0.3779(9) 0.7664(5) 0.02259(7)
C18 C -0.0842(5) 0.3494(8) 0.05848(9)
O16 O 0.3539(7) 0.9392(5) 0.02813(6)
C19 C -0.1683(5) 0.3690(6) 0.07138(10)
H6 H -0.2383 0.3758 0.0670
C20 C -0.3741(5) 0.5210(6) 0.11589(12)
H7 H -0.3519 0.5102 0.1291
C21 C 0.3558(6) 0.8209(5) 0.05423(7)
O17 O -0.0601(9) 0.1854(8) -0.00198(13)
C22 C 0.5529(5) 1.1228(5) 0.12463(10)
H8 H 0.5666 1.1972 0.1278
H9 H 0.5770 1.0775 0.1350
C23 C 0.4327(4) 1.1039(4) 0.12017(7)
H10 H 0.3932 1.0825 0.1316
C24 C 0.5420(5) 0.9981(5) 0.09851(10)
H11 H 0.5410 0.9962 0.0847
H12 H 0.5708 0.9309 0.1032
O18 O -0.5007(10) -0.0358(7) -0.00123(14)
C25 C -0.2677(6) 0.5787(6) 0.08831(12)
H13 H -0.2744 0.5519 0.0754
H14 H -0.1987 0.6135 0.0899
C26 C 0.6080(5) 1.0913(5) 0.10554(11)
H15 H 0.6819 1.0702 0.1076
H16 H 0.6062 1.1503 0.0966
C27 C -0.2952(10) 0.0067(10) -0.0010(2)
C28 C -0.3916(6) 0.6405(6) 0.1117(2)
H17 H -0.4660 0.6597 0.1138
H18 H -0.3472 0.6840 0.1200
C29 C -0.3171(14) -0.0844(11) -0.0015(2)
C30 C -0.3651(7) 0.6558(8) 0.09401(19)
H19 H -0.3442 0.7300 0.0922
H20 H -0.4262 0.6412 0.0859
C31 C -0.4557(16) -0.1085(7) -0.00370(12)
C32 C -0.1821(18) 0.0431(16) -0.0004(3)
C33 C -0.1580(9) 0.1641(15) 0.00149(18)
O19 O 0.1434(8) 0.3311(11) -0.00374(19)
O20 O -0.4684(10) -0.2128(10) -0.00513(16)
O21 O -0.4106(12) 0.4001(17) 0.0078(2)
C34 C -0.1346(6) -0.1346(6) 0.0000
C35 C -0.1129(8) -0.0424(8) -0.00118(16)
C36 C -0.2382(8) -0.1656(7) -0.00374(14)
O14F O 0.2173(10) -0.2448(9) -0.00502(16)
O17F O 0.1854(8) -0.0601(9) 0.00198(13)
O18F O -0.0358(7) -0.5007(10) 0.00123(14)
C27F C 0.0067(10) -0.2952(10) 0.0010(2)
C29F C -0.0844(11) -0.3171(14) 0.0015(2)
C31F C -0.1085(7) -0.4557(16) 0.00370(12)
C32F C 0.0431(16) -0.1821(18) 0.0004(3)
C33F C 0.1641(15) -0.1580(9) -0.00149(18)
O20F O -0.2128(10) -0.4684(10) 0.00513(16)
C35F C -0.0424(8) -0.1129(8) 0.00118(16)
C36F C -0.1656(7) -0.2382(8) 0.00374(14)
Cu1F Cu 0.42238(5) 0.31190(5) -0.116755(9)
Cu2F Cu 0.36155(5) 0.38252(5) -0.082712(9)
Cu3F Cu 0.33602(16) -0.03520(11) 0.000716(16)
Cu4F Cu 0.3825(2) -0.23264(14) -0.004711(17)
O1F O 0.3371(3) 0.2279(3) -0.07828(5)
O2F O 1.2218(3) 0.3980(3) -0.09453(5)
O3F O 0.5607(3) 0.3014(3) -0.10222(5)
O4F O 0.4649(3) -0.5461(3) -0.12404(6)
O5F O 0.3798(3) 0.1709(3) -0.10762(5)
O6F O 1.2740(3) 0.3495(3) -0.12381(5)
O7F O 0.5069(3) 0.3636(4) -0.07366(5)
O8F O 0.9930(3) 0.2553(3) -0.10818(5)
O9F O 0.4116(3) -0.4823(3) -0.09542(6)
C1F C 0.5786(4) 0.3341(4) -0.08577(7)
C2F C 0.3548(4) 0.1553(4) -0.09082(6)
C3F C 0.7736(4) 0.3380(4) -0.09248(7)
H1F H 0.7578 0.3278 -0.1053
N1F N 1.0168(3) 0.4347(4) -0.10603(6)
C4F C 0.3687(4) -0.0410(5) -0.09702(8)
H2F H 0.3740 -0.0259 -0.1099
C5F C 0.3491(9) -0.1071(6) -0.03759(9)
C6F C 0.8805(4) 0.3507(4) -0.08661(6)
C7F C 0.8449(6) 0.3618(8) -0.03296(8)
C8F C 0.9678(4) 0.3442(4) -0.10121(6)
C9F C 0.9049(5) 0.3578(5) -0.06719(8)
H3F H 0.9755 0.3637 -0.0631
C10F C 0.6921(4) 0.3406(4) -0.07925(7)
C11F C 0.4584(4) -0.4743(4) -0.11158(9)
C12F C 0.3782(5) -0.1470(4) -0.09055(8)
O10F O 0.3660(9) -0.2007(5) -0.03210(7)
O11F O 0.3300(6) -0.0317(4) -0.02682(6)
C13F C 0.3515(4) 0.0408(4) -0.08415(7)
O12F O 0.3070(6) 0.4484(7) -0.05637(8)
C14F C 0.3410(7) 0.0205(5) -0.06456(8)
H4F H 0.3288 0.0760 -0.0560
N2F N 0.4936(4) -0.2851(3) -0.10259(9)
C15F C 1.2086(4) 0.3883(4) -0.11191(7)
C16F C 0.4044(5) -0.2351(4) -0.10501(8)
C17F C 0.7154(5) 0.3498(6) -0.06006(8)
H5F H 0.6604 0.3518 -0.0512
O13F O 0.3426(5) -0.2500(4) -0.11838(7)
O15F O 0.7664(5) 0.3779(9) -0.02259(7)
C18F C 0.3494(8) -0.0842(5) -0.05848(9)
O16F O 0.9392(5) 0.3539(7) -0.02813(6)
C19F C 0.3690(6) -0.1683(5) -0.07138(10)
H6F H 0.3758 -0.2383 -0.0670
C20F C 0.5210(6) -0.3741(5) -0.11589(12)
H7F H 0.5102 -0.3519 -0.1291
C21F C 0.8209(5) 0.3558(6) -0.05423(7)
C22F C 1.1228(5) 0.5529(5) -0.12463(10)
H8F H 1.1972 0.5666 -0.1278
H9F H 1.0775 0.5770 -0.1350
C23F C 1.1039(4) 0.4327(4) -0.12017(7)
H10F H 1.0825 0.3932 -0.1316
C24F C 0.9981(5) 0.5420(5) -0.09851(10)
H11F H 0.9962 0.5410 -0.0847
H12F H 0.9309 0.5708 -0.1032
C25F C 0.5787(6) -0.2677(6) -0.08831(12)
H13F H 0.5519 -0.2744 -0.0754
H14F H 0.6135 -0.1987 -0.0899
C26F C 1.0913(5) 0.6080(5) -0.10554(11)
H15F H 1.0702 0.6819 -0.1076
H16F H 1.1503 0.6062 -0.0966
C28F C 0.6405(6) -0.3916(6) -0.1117(2)
H17F H 0.6597 -0.4660 -0.1138
H18F H 0.6840 -0.3472 -0.1200
C30F C 0.6558(8) -0.3651(7) -0.09401(19)
H19F H 0.7300 -0.3442 -0.0922
H20F H 0.6412 -0.4262 -0.0859
O19F O 0.3311(11) 0.1434(8) 0.00374(19)
O21F O 0.4001(17) -0.4106(12) -0.0078(2)
Cu1_2 Cu -0.68810(5) 0.42238(5) 0.116755(9)
Cu1_3 Cu 0.31190(5) 1.42238(5) 0.116755(9)
Cu1C Cu 0.92238(5) 0.18810(5) -0.133245(9)
Cu1D Cu 0.18810(5) 0.92238(5) 0.133245(9)
Cu1F_2 Cu 0.42238(5) -0.68810(5) -0.116755(9)
Cu1F_3 Cu 1.42238(5) 0.31190(5) -0.116755(9)
Cu2_2 Cu -0.61748(5) 0.36155(5) 0.082712(9)
Cu2_3 Cu 0.38252(5) 1.36155(5) 0.082712(9)
Cu2F_2 Cu 0.36155(5) -0.61748(5) -0.082712(9)
Cu2F_3 Cu 1.36155(5) 0.38252(5) -0.082712(9)
Cu3_2 Cu -0.03520(11) -0.66398(16) -0.000716(16)
Cu3_3 Cu 0.96480(11) 0.33602(16) -0.000716(16)
Cu3F_2 Cu -0.66398(16) -0.03520(11) 0.000716(16)
Cu3F_3 Cu 0.33602(16) 0.96480(11) 0.000716(16)
Cu4_2 Cu -0.23264(14) -0.6175(2) 0.004711(17)
Cu4_3 Cu 0.76736(14) 0.3825(2) 0.004711(17)
Cu4F_2 Cu -0.6175(2) -0.23264(14) -0.004711(17)
Cu4F_3 Cu 0.3825(2) 0.76736(14) -0.004711(17)
O2_2 O 0.3980(3) 0.2218(3) 0.09453(5)
O2F_2 O 0.2218(3) 0.3980(3) -0.09453(5)
O4_2 O 0.4539(3) 0.4649(3) 0.12404(6)
O4F_2 O 0.4649(3) 0.4539(3) -0.12404(6)
O6_2 O 0.3495(3) 0.2740(3) 0.12381(5)
O6F_2 O 0.2740(3) 0.3495(3) -0.12381(5)
O8C O 0.4930(3) 0.2447(3) -0.14182(5)
O8D O 0.2447(3) 0.4930(3) 0.14182(5)
O9_2 O 0.5177(3) 0.4116(3) 0.09542(6)
O9F_2 O 0.4116(3) 0.5177(3) -0.09542(6)
O15_2 O 0.3779(9) -0.2336(5) 0.02259(7)
O15F_2 O -0.2336(5) 0.3779(9) -0.02259(7)
O16_2 O 0.3539(7) -0.0608(5) 0.02813(6)
O16F_2 O -0.0608(5) 0.3539(7) -0.02813(6)
O18_2 O 0.4993(10) -0.0358(7) -0.00123(14)
O18F_2 O -0.0358(7) 0.4993(10) 0.00123(14)
O20_2 O 0.5316(10) -0.2128(10) -0.00513(16)
O20F_2 O -0.2128(10) 0.5316(10) 0.00513(16)
loop_
_geom_bond_atom_site_label_1
_geom_bond_atom_site_label_2
_geom_bond_site_symmetry_1
_geom_bond_site_symmetry_2
Cu1 Cu2 1_555 1_555
Cu2 O1 1_555 1_555
Cu3 Cu4 1_555 1_555
Cu4 O10 1_555 1_555
O1 C2 1_555 1_555
O2 C15 1_555 1_555
O3 Cu1 1_555 1_555
O4 C11 1_555 1_555
O5 Cu1 1_555 1_555
O6 C15 1_555 1_555
O7 Cu2 1_555 1_555
O8 C8 1_555 1_555
O9 C11 1_555 1_555
C1 O3 1_555 1_555
C2 O5 1_555 1_555
C3 H1 1_555 1_555
N1 C8 1_555 1_555
C4 H2 1_555 1_555
C5 O10 1_555 1_555
C6 C3 1_555 1_555
C7 O15 1_555 1_555
C8 C6 1_555 1_555
C9 C6 1_555 1_555
H3 C9 1_555 1_555
C10 C1 1_555 1_555
C11 C20 1_555 1_555
C12 C4 1_555 1_555
O11 Cu3 1_555 1_555
C13 C2 1_555 1_555
O12 Cu2 1_555 1_555
C14 C13 1_555 1_555
H4 C14 1_555 1_555
N2 C16 1_555 1_555
C15 C23 1_555 1_555
C16 C12 1_555 1_555
C17 C10 1_555 1_555
H5 C17 1_555 1_555
O13 C16 1_555 1_555
O14 Cu4 1_555 1_555
O15 Cu4F_3 1_555 1_555
C18 C5 1_555 1_555
O16 C7 1_555 1_555
C19 C12 1_555 1_555
H6 C19 1_555 1_555
C20 N2 1_555 1_555
H7 C20 1_555 1_555
C21 C7 1_555 1_555
O17 Cu3 1_555 1_555
C22 H8 1_555 1_555
H9 C22 1_555 1_555
C23 N1 1_555 1_555
H10 C23 1_555 1_555
C24 N1 1_555 1_555
H11 C24 1_555 1_555
H12 C24 1_555 1_555
O18 C31 1_555 1_555
C25 N2 1_555 1_555
H13 C25 1_555 1_555
H14 C25 1_555 1_555
C26 C22 1_555 1_555
H15 C26 1_555 1_555
H16 C26 1_555 1_555
C27 C29 1_555 1_555
C28 C20 1_555 1_555
H17 C28 1_555 1_555
H18 C28 1_555 1_555
C29 C31 1_555 1_555
C30 C25 1_555 1_555
H19 C30 1_555 1_555
H20 C30 1_555 1_555
C31 O20 1_555 1_555
C32 C27 1_555 1_555
C33 O14 1_555 1_555
O19 Cu3 1_555 1_555
O20 Cu4F_2 1_555 1_555
O21 Cu4 1_555 1_555
C34 C35 1_555 1_555
C35 C32 1_555 1_555
C36 C29 1_555 1_555
O14F C33F 1_555 1_555
O17F C33F 1_555 1_555
O18F C31F 1_555 1_555
C27F C29F 1_555 1_555
C29F C31F 1_555 1_555
C31F O20F 1_555 1_555
C32F C27F 1_555 1_555
C33F C32F 1_555 1_555
O20F Cu4_2 1_555 1_555
C35F C34 1_555 1_555
C36F C34 1_555 1_555
Cu1F Cu2F 1_555 1_555
Cu2F O1F 1_555 1_555
Cu3F O17F 1_555 1_555
Cu4F O14F 1_555 1_555
O1F C2F 1_555 1_555
O2F C15F 1_555 1_555
O3F Cu1F 1_555 1_555
O4F C11F 1_555 1_555
O5F Cu1F 1_555 1_555
O6F C15F 1_555 1_555
O7F Cu2F 1_555 1_555
O8F C8F 1_555 1_555
O9F C11F 1_555 1_555
C1F O3F 1_555 1_555
C2F O5F 1_555 1_555
C3F H1F 1_555 1_555
N1F C8F 1_555 1_555
C4F H2F 1_555 1_555
C5F O10F 1_555 1_555
C6F C3F 1_555 1_555
C7F O15F 1_555 1_555
C8F C6F 1_555 1_555
C9F C6F 1_555 1_555
H3F C9F 1_555 1_555
C10F C1F 1_555 1_555
C11F C20F 1_555 1_555
C12F C4F 1_555 1_555
O10F Cu4F 1_555 1_555
O11F Cu3F 1_555 1_555
C13F C2F 1_555 1_555
O12F Cu2F 1_555 1_555
C14F C13F 1_555 1_555
H4F C14F 1_555 1_555
N2F C16F 1_555 1_555
C15F C23F 1_555 1_555
C16F C12F 1_555 1_555
C17F C10F 1_555 1_555
H5F C17F 1_555 1_555
O13F C16F 1_555 1_555
O15F Cu4_3 1_555 1_555
C18F C5F 1_555 1_555
O16F C7F 1_555 1_555
C19F C12F 1_555 1_555
H6F C19F 1_555 1_555
C20F N2F 1_555 1_555
H7F C20F 1_555 1_555
C21F C7F 1_555 1_555
C22F H8F 1_555 1_555
H9F C22F 1_555 1_555
C23F N1F 1_555 1_555
H10F C23F 1_555 1_555
C24F N1F 1_555 1_555
H11F C24F 1_555 1_555
H12F C24F 1_555 1_555
C25F N2F 1_555 1_555
H13F C25F 1_555 1_555
H14F C25F 1_555 1_555
C26F C22F 1_555 1_555
H15F C26F 1_555 1_555
H16F C26F 1_555 1_555
C28F C20F 1_555 1_555
H17F C28F 1_555 1_555
H18F C28F 1_555 1_555
C30F C25F 1_555 1_555
H19F C30F 1_555 1_555
H20F C30F 1_555 1_555
O19F Cu3F 1_555 1_555
O21F Cu4F 1_555 1_555
Cu1_2 O4 1_555 1_555
Cu1_3 O6 1_555 1_555
Cu1C O8F 1_555 1_555
Cu1D O8 1_555 1_555
Cu1F_2 O4F 1_555 1_555
Cu1F_3 O6F 1_555 1_555
Cu2_2 O9 1_555 1_555
Cu2_3 O2 1_555 1_555
Cu2F_2 O9F 1_555 1_555
Cu2F_3 O2F 1_555 1_555
Cu3_2 O18F 1_555 1_555
Cu3_3 O16F 1_555 1_555
Cu3F_2 O18 1_555 1_555
Cu3F_3 O16 1_555 1_555
Cu4_2 Cu3_2 1_555 1_555
Cu4_3 Cu3_3 1_555 1_555
Cu4F_2 Cu3F_2 1_555 1_555
Cu4F_3 Cu3F_3 1_555 1_555
O2_2 Cu2 1_555 1_555
O2F_2 Cu2F 1_555 1_555
O4_2 Cu1 1_555 1_555
O4F_2 Cu1F 1_555 1_555
O6_2 Cu1 1_555 1_555
O6F_2 Cu1F 1_555 1_555
O8C Cu1F 1_555 1_555
O8D Cu1 1_555 1_555
O9_2 Cu2 1_555 1_555
O9F_2 Cu2F 1_555 1_555
O15_2 Cu4F 1_555 1_555
O15F_2 Cu4 1_555 1_555
O16_2 Cu3F 1_555 1_555
O16F_2 Cu3 1_555 1_555
O18_2 Cu3F 1_555 1_555
O18F_2 Cu3 1_555 1_555
O20_2 Cu4F 1_555 1_555
O20F_2 Cu4 1_555 1_555
O7 C1 1_555 1_555
C3 C10 1_555 1_555
C4 C13 1_555 1_555
C5 O11 1_555 1_555
C9 C21 1_555 1_555
C14 C18 1_555 1_555
C17 C21 1_555 1_555
C18 C19 1_555 1_555
O17 C33 1_555 1_555
C22 C23 1_555 1_555
C24 C26 1_555 1_555
C28 C30 1_555 1_555
C32 C33 1_555 1_555
C34 C36 1_555 1_555
C29F C36F 1_555 1_555
C32F C35F 1_555 1_555
Cu3F Cu4F 1_555 1_555
O7F C1F 1_555 1_555
C3F C10F 1_555 1_555
C4F C13F 1_555 1_555
C5F O11F 1_555 1_555
C9F C21F 1_555 1_555
C14F C18F 1_555 1_555
C17F C21F 1_555 1_555
C18F C19F 1_555 1_555
C22F C23F 1_555 1_555
C24F C26F 1_555 1_555
C28F C30F 1_555 1_555
Cu1_2 Cu2_2 1_555 1_555
Cu1_3 Cu2_3 1_555 1_555
Cu1F_2 Cu2F_2 1_555 1_555
Cu1F_3 Cu2F_3 1_555 1_555

#END
