
#######################################################################
#
#                 Cambridge Crystallographic Data Centre
#                                CCDC 
#
#######################################################################
#
# If this CIF has been generated from an entry in the Cambridge 
# Structural Database, then it will include bibliographic, chemical, 
# crystal, experimental, refinement or atomic coordinate data resulting 
# from the CCDC's data processing and validation procedures.
#
#######################################################################

data_HOXGEH
_symmetry_cell_setting           rhombohedral
_symmetry_space_group_name_H-M   'R -3'
_symmetry_Int_Tables_number      148
_space_group_name_Hall           '-R 3'
loop_
_symmetry_equiv_pos_site_id
_symmetry_equiv_pos_as_xyz
1 x,y,z
2 -y,x-y,z
3 -x+y,-x,z
4 2/3+x,1/3+y,1/3+z
5 2/3-y,1/3+x-y,1/3+z
6 2/3-x+y,1/3-x,1/3+z
7 1/3+x,2/3+y,2/3+z
8 1/3-y,2/3+x-y,2/3+z
9 1/3-x+y,2/3-x,2/3+z
10 -x,-y,-z
11 y,-x+y,-z
12 x-y,x,-z
13 1/3-x,2/3-y,2/3-z
14 1/3+y,2/3-x+y,2/3-z
15 1/3+x-y,2/3+x,2/3-z
16 2/3-x,1/3-y,1/3-z
17 2/3+y,1/3-x+y,1/3-z
18 2/3+x-y,1/3+x,1/3-z
_cell_length_a                   32.1550(14)
_cell_length_b                   32.1550(14)
_cell_length_c                   9.3233(6)
_cell_angle_alpha                90
_cell_angle_beta                 90
_cell_angle_gamma                120
_cell_volume                     8348.29
loop_
_atom_site_label
_atom_site_type_symbol
_atom_site_fract_x
_atom_site_fract_y
_atom_site_fract_z
Sn1 Sn 1.206389(11) -0.143988(8) 0.46496(2)
Sn2 Sn 1.222610(8) 0.110260(8) 0.54121(2)
O1 O 1.21745(8) 0.05621(8) 0.6909(3)
O2 O 1.14352(9) 0.02289(9) 0.6077(3)
O3 O 1.17503(8) -0.06006(8) 0.5954(3)
O4 O 1.20344(9) -0.10744(9) 0.6655(3)
O5 O 1.14465(11) -0.14757(8) 0.3963(2)
C1 C 1.17285(12) 0.02351(12) 0.6948(4)
C2 C 1.15650(13) -0.01237(12) 0.8157(4)
H1 H 1.1314 -0.0439 0.7789
H2 H 1.1416 -0.0023 0.8908
C3 C 1.19554(12) -0.01851(11) 0.8835(4)
C4 C 1.21275(13) 0.00239(12) 1.0165(4)
H3 H 1.1998 0.0201 1.0604
C5 C 1.24820(13) -0.00188(12) 1.0868(4)
H4 H 1.2596 0.0132 1.1773
C6 C 1.26719(13) -0.02799(13) 1.0258(4)
H5 H 1.2920 -0.0306 1.0729
C7 C 1.24951(12) -0.05012(12) 0.8953(4)
H6 H 1.2619 -0.0687 0.8541
C8 C 1.21413(11) -0.04587(11) 0.8229(4)
C9 C 1.19626(12) -0.07256(12) 0.6840(4)
C10 C 1.22264(13) 0.07558(14) 0.3504(4)
H7 H 1.2504 0.0974 0.2920
H8 H 1.1931 0.0664 0.2969
H9 H 1.2245 0.0468 0.3733
C11 C 1.18307(13) 0.13159(12) 0.6703(4)
H10 H 1.1704 0.1103 0.7536
H11 H 1.1564 0.1298 0.6146
H12 H 1.2040 0.1647 0.7029
C12 C 1.26419(12) -0.07915(12) 0.3893(4)
H13 H 1.2782 -0.0855 0.3047
H14 H 1.2527 -0.0571 0.3633
H15 H 1.2886 -0.0646 0.4645
C13 C 1.19578(13) -0.19995(12) 0.6041(4)
H16 H 1.1862 -0.1944 0.6989
H17 H 1.1705 -0.2306 0.5658
H18 H 1.2257 -0.2009 0.6126
Sn1L Sn 1.126944(11) -0.189345(8) 0.20171(2)
Sn2J Sn 1.110260(8) -0.112350(11) 0.45879(2)
O3K O 1.23509(11) 0.17503(8) 0.4046(3)
O5L O 1.18868(11) -0.18576(8) 0.2704(2)
O5K O 1.29222(14) 0.14465(11) 0.6037(2)
O6 O 0.97367(17) 0.06819(16) 0.0526(6)
O7 O 0.05065(18) 0.0987(2) 0.6471(7)
O8? O 0.0000 0.0000 0.5702(15)
loop_
_geom_bond_atom_site_label_1
_geom_bond_atom_site_label_2
_geom_bond_site_symmetry_1
_geom_bond_site_symmetry_2
Sn1 O4 1_555 1_555
Sn2 O1 1_555 1_555
O1 C1 1_555 1_555
O2 C1 1_555 1_555
O3 C9 1_555 1_555
O4 C9 1_555 1_555
O5 Sn1 1_555 1_555
C1 C2 1_555 1_555
C2 H1 1_555 1_555
H2 C2 1_555 1_555
C3 C2 1_555 1_555
C4 C3 1_555 1_555
H3 C4 1_555 1_555
C5 C4 1_555 1_555
H4 C5 1_555 1_555
C6 C5 1_555 1_555
H5 C6 1_555 1_555
C7 C6 1_555 1_555
H6 C7 1_555 1_555
C8 C3 1_555 1_555
C9 C8 1_555 1_555
C10 Sn2 1_555 1_555
H7 C10 1_555 1_555
H8 C10 1_555 1_555
H9 C10 1_555 1_555
C11 Sn2 1_555 1_555
H10 C11 1_555 1_555
H11 C11 1_555 1_555
H12 C11 1_555 1_555
C12 Sn1 1_555 1_555
H13 C12 1_555 1_555
H14 C12 1_555 1_555
H15 C12 1_555 1_555
C13 Sn1 1_555 1_555
H16 C13 1_555 1_555
H17 C13 1_555 1_555
H18 C13 1_555 1_555
Sn1L O5 1_555 1_555
Sn2J O3 1_555 1_555
O3K Sn2 1_555 1_555
O5L Sn1 1_555 1_555
O5K Sn2 1_555 1_555
O5 Sn2J 1_555 1_555
C7 C8 1_555 1_555
Sn1L O5L 1_555 1_555

#END
