
#######################################################################
#
#                 Cambridge Crystallographic Data Centre
#                                CCDC 
#
#######################################################################
#
# If this CIF has been generated from an entry in the Cambridge 
# Structural Database, then it will include bibliographic, chemical, 
# crystal, experimental, refinement or atomic coordinate data resulting 
# from the CCDC's data processing and validation procedures.
#
#######################################################################

data_HOXRUJ
_symmetry_cell_setting           orthorhombic
_symmetry_space_group_name_H-M   'P n m a'
_symmetry_Int_Tables_number      62
_space_group_name_Hall           '-P 2ac 2n'
loop_
_symmetry_equiv_pos_site_id
_symmetry_equiv_pos_as_xyz
1 x,y,z
2 1/2-x,-y,1/2+z
3 -x,1/2+y,-z
4 1/2+x,1/2-y,1/2-z
5 -x,-y,-z
6 1/2+x,y,1/2-z
7 x,1/2-y,z
8 1/2-x,1/2+y,1/2+z
_cell_length_a                   15.385(3)
_cell_length_b                   6.7260(13)
_cell_length_c                   14.241(3)
_cell_angle_alpha                90
_cell_angle_beta                 90
_cell_angle_gamma                90
_cell_volume                     1473.65
loop_
_atom_site_label
_atom_site_type_symbol
_atom_site_fract_x
_atom_site_fract_y
_atom_site_fract_z
C1 C -0.0722(10) 0.7500 0.5677(10)
C2 C -0.0025(9) 0.7500 0.4931(9)
C3 C 0.0855(9) 0.7500 0.5085(10)
C4 C 0.1285(10) 0.7500 0.6045(11)
C5 C 0.1764(13) 0.7500 0.2734(14)
C6 C 0.1088(11) 0.7500 0.3477(13)
C7 C 0.0211(11) 0.7500 0.3330(10)
C8 C -0.0253(15) 0.7500 0.2373(11)
Eu1 Eu 0.19677(5) 0.2500 0.62385(6)
K1 K 0.2683(3) 0.2500 0.3101(3)
N1 N -0.0333(7) 0.7500 0.4045(7)
N2 N 0.1422(8) 0.7500 0.4374(10)
O1 O -0.1514(6) 0.7500 0.5359(7)
O2 O -0.0498(9) 0.7500 0.6505(7)
O3 O 0.1466(6) 0.5858(11) 0.6402(7)
O4 O 0.2103(7) 0.5901(13) 0.2500(8)
O5 O 0.0214(14) 0.7500 0.1658(9)
O6 O -0.1067(9) 0.7500 0.2384(8)
O7 O 0.3168(15) 0.069(4) 0.5691(14)
H1 H 0.3153 -0.0437 0.5909
H2 H 0.2904 -0.0981 0.5603
O3F O 0.1466(6) 0.9142(11) 0.6402(7)
O4F O 0.2103(7) 0.9099(13) 0.2500(8)
O7F O 0.3168(15) 0.431(4) 0.5691(14)
H1F H 0.3153 0.5437 0.5909
H2F H 0.2904 0.5981 0.5603
Eu1_2 Eu 0.19677(5) 1.2500 0.62385(6)
Eu1A Eu 0.30323(5) 0.7500 0.12385(6)
Eu1B Eu -0.19677(5) 0.7500 0.37615(6)
K1_2 K 0.2683(3) 1.2500 0.3101(3)
K1A K 0.2317(3) 0.7500 0.8101(3)
K1B K -0.2683(3) 0.7500 0.6899(3)
N1B N 0.0333(7) 0.2500 0.5955(7)
O1B O 0.1514(6) 0.2500 0.4641(7)
O3A O 0.3534(6) 0.4142(11) 0.1402(7)
O3F_2 O 0.1466(6) -0.0858(11) 0.6402(7)
O3G O 0.3534(6) 0.0858(11) 0.1402(7)
O4A O 0.2897(7) 0.4099(13) 0.7500(8)
O4F_2 O 0.2103(7) -0.0901(13) 0.2500(8)
O4G O 0.2897(7) 0.0901(13) 0.7500(8)
O6B O 0.1067(9) 0.2500 0.7616(8)
O8 O 0.5925(12) 0.2500 0.3403(11)
O9? O 0.2922(16) 0.011(4) 0.535(2)
loop_
_geom_bond_atom_site_label_1
_geom_bond_atom_site_label_2
_geom_bond_site_symmetry_1
_geom_bond_site_symmetry_2
C1 C2 1_555 1_555
C2 C3 1_555 1_555
C3 C4 1_555 1_555
C4 O3 1_555 1_555
C5 C6 1_555 1_555
C6 C7 1_555 1_555
C7 C8 1_555 1_555
C8 O5 1_555 1_555
Eu1 O3 1_555 1_555
K1 O4 1_555 1_555
N1 C2 1_555 1_555
N2 C3 1_555 1_555
O1 C1 1_555 1_555
O2 C1 1_555 1_555
O3 K1A 1_555 1_555
O4 C5 1_555 1_555
O6 C8 1_555 1_555
O7 Eu1 1_555 1_555
H1 O7 1_555 1_555
H2 O7 1_555 1_555
O3F C4 1_555 1_555
O4F C5 1_555 1_555
O7F Eu1 1_555 1_555
H1F O7F 1_555 1_555
H2F O7F 1_555 1_555
Eu1_2 O3F 1_555 1_555
Eu1A O4 1_555 1_555
Eu1B N1 1_555 1_555
K1_2 O4F 1_555 1_555
K1A O3F 1_555 1_555
K1B O1 1_555 1_555
N1B Eu1 1_555 1_555
O1B Eu1 1_555 1_555
O3A K1 1_555 1_555
O3F_2 Eu1 1_555 1_555
O3G K1 1_555 1_555
O4A Eu1 1_555 1_555
O4F_2 K1 1_555 1_555
O4G Eu1 1_555 1_555
O6B Eu1 1_555 1_555
C6 N2 1_555 1_555
C7 N1 1_555 1_555
K1 O1B 1_555 1_555
O1 Eu1B 1_555 1_555
O6 Eu1B 1_555 1_555
O4F Eu1A 1_555 1_555
Eu1A O3A 1_555 1_555
K1A O4A 1_555 1_555

#END
