
#######################################################################
#
#                 Cambridge Crystallographic Data Centre
#                                CCDC 
#
#######################################################################
#
# If this CIF has been generated from an entry in the Cambridge 
# Structural Database, then it will include bibliographic, chemical, 
# crystal, experimental, refinement or atomic coordinate data resulting 
# from the CCDC's data processing and validation procedures.
#
#######################################################################

data_HOZBUV
_symmetry_cell_setting           monoclinic
_symmetry_space_group_name_H-M   'P 2/c'
_symmetry_Int_Tables_number      13
_space_group_name_Hall           '-P 2yc'
loop_
_symmetry_equiv_pos_site_id
_symmetry_equiv_pos_as_xyz
1 x,y,z
2 -x,y,1/2-z
3 -x,-y,-z
4 x,-y,1/2+z
_cell_length_a                   12.8331(19)
_cell_length_b                   15.626(2)
_cell_length_c                   7.5450(11)
_cell_angle_alpha                90
_cell_angle_beta                 93.225(3)
_cell_angle_gamma                90
_cell_volume                     1510.6
loop_
_atom_site_label
_atom_site_type_symbol
_atom_site_fract_x
_atom_site_fract_y
_atom_site_fract_z
Cd1 Cd 1.0000 0.45889(4) 0.7500
Cd2 Cd 1.5000 1.0000 1.0000
O1 O 1.1688(4) 0.5410(3) 0.7339(7)
O2 O 1.0619(4) 0.5711(3) 0.9420(6)
N1 N 1.3802(5) 0.7330(4) 0.8910(7)
O3 O 0.8858(6) 0.3612(4) 0.6143(8)
N2 N 1.4975(4) 0.6225(4) 1.0009(7)
C1 C 1.2218(5) 0.6477(4) 0.9470(8)
H1 H 1.2630 0.6213 1.0439
H2 H 1.1835 0.6950 0.9954
C2 C 1.1448(5) 0.5827(4) 0.8674(8)
N3 N 1.6249(5) 0.5357(4) 1.1257(9)
H3 H 1.6842 0.5276 1.1818
H4 H 1.5867 0.4927 1.0930
C3 C 1.5278(6) 0.7749(5) 1.0281(10)
N4 N 1.6554(5) 0.6803(4) 1.1440(7)
N5 N 1.4722(6) 0.8494(4) 0.9816(10)
C4 C 1.4704(5) 0.7033(5) 0.9770(8)
C5 C 1.2952(6) 0.6822(5) 0.8098(9)
H5 H 1.3241 0.6345 0.7466
H6 H 1.2554 0.7172 0.7240
C6 C 1.5922(5) 0.6146(5) 1.0895(8)
C7 C 1.3868(7) 0.8194(5) 0.9006(12)
H7 H 1.3344 0.8550 0.8531
C8 C 1.6233(6) 0.7590(5) 1.1174(9)
H8 H 1.6647 0.8045 1.1586
O4 O 1.4101(12) 0.9911(8) 1.2248(18)
O1A O 0.8312(4) 0.5410(3) 0.7661(7)
O2A O 0.9381(4) 0.5711(3) 0.5580(6)
N1A N 0.6198(5) 0.7330(4) 0.6090(7)
O3A O 1.1142(6) 0.3612(4) 0.8857(8)
N2A N 0.5025(4) 0.6225(4) 0.4991(7)
C1A C 0.7782(5) 0.6477(4) 0.5530(8)
H1A H 0.7370 0.6213 0.4561
H2A H 0.8165 0.6950 0.5046
C2A C 0.8552(5) 0.5827(4) 0.6326(8)
N3A N 0.3751(5) 0.5357(4) 0.3743(9)
H3A H 0.3158 0.5276 0.3182
H4A H 0.4133 0.4927 0.4070
C3A C 0.4722(6) 0.7749(5) 0.4719(10)
N4A N 0.3446(5) 0.6803(4) 0.3560(7)
N5A N 0.5278(6) 0.8494(4) 0.5184(10)
C4A C 0.5296(5) 0.7033(5) 0.5230(8)
C5A C 0.7048(6) 0.6822(5) 0.6902(9)
H5A H 0.6759 0.6345 0.7534
H6A H 0.7446 0.7172 0.7760
C6A C 0.4078(5) 0.6146(5) 0.4105(8)
C7A C 0.6132(7) 0.8194(5) 0.5994(12)
H7A H 0.6656 0.8550 0.6469
C8A C 0.3767(6) 0.7590(5) 0.3826(9)
H8A H 0.3353 0.8045 0.3414
O4A O 1.5899(12) 0.9911(8) 1.2752(18)
Cd1B Cd 1.0000 0.54111(4) 0.2500
Cd1B_2 Cd 1.0000 0.54111(4) 1.2500
Cd2A Cd 0.5000 1.0000 0.5000
Cd2A_2 Cd 1.5000 1.0000 1.5000
O2B O 0.9381(4) 0.4289(3) 1.0580(6)
O2C O 1.0619(4) 0.4289(3) 0.4420(6)
N5B N 1.5278(6) 1.1506(4) 1.0184(10)
O4B O 1.5899(12) 1.0089(8) 0.7752(18)
O4C O 1.4101(12) 1.0089(8) 0.7248(18)
loop_
_geom_bond_atom_site_label_1
_geom_bond_atom_site_label_2
_geom_bond_site_symmetry_1
_geom_bond_site_symmetry_2
Cd1 O1 1_555 1_555
Cd2 N5 1_555 1_555
O1 C2 1_555 1_555
O2 Cd1 1_555 1_555
N1 C4 1_555 1_555
O3 Cd1 1_555 1_555
N2 C4 1_555 1_555
C1 H1 1_555 1_555
H2 C1 1_555 1_555
C2 O2 1_555 1_555
N3 H3 1_555 1_555
H4 N3 1_555 1_555
C3 N5 1_555 1_555
N4 C6 1_555 1_555
N5 C7 1_555 1_555
C4 C3 1_555 1_555
C5 N1 1_555 1_555
H5 C5 1_555 1_555
H6 C5 1_555 1_555
C6 N2 1_555 1_555
C7 N1 1_555 1_555
H7 C7 1_555 1_555
C8 C3 1_555 1_555
H8 C8 1_555 1_555
O4 Cd2 1_555 1_555
O1A Cd1 1_555 1_555
O2A Cd1 1_555 1_555
N1A C4A 1_555 1_555
O3A Cd1 1_555 1_555
N2A C4A 1_555 1_555
C1A H1A 1_555 1_555
H2A C1A 1_555 1_555
C2A O1A 1_555 1_555
N3A H3A 1_555 1_555
H4A N3A 1_555 1_555
C3A N5A 1_555 1_555
N4A C6A 1_555 1_555
N5A C7A 1_555 1_555
C4A C3A 1_555 1_555
C5A N1A 1_555 1_555
H5A C5A 1_555 1_555
H6A C5A 1_555 1_555
C6A N2A 1_555 1_555
C7A N1A 1_555 1_555
H7A C7A 1_555 1_555
C8A C3A 1_555 1_555
H8A C8A 1_555 1_555
O4A Cd2 1_555 1_555
Cd1B O2A 1_555 1_555
Cd1B_2 O2 1_555 1_555
Cd2A N5A 1_555 1_555
Cd2A_2 O4 1_555 1_555
O2B Cd1 1_555 1_555
O2C Cd1 1_555 1_555
N5B Cd2 1_555 1_555
O4B Cd2 1_555 1_555
O4C Cd2 1_555 1_555
C1 C2 1_555 1_555
C1 C5 1_555 1_555
N3 C6 1_555 1_555
N4 C8 1_555 1_555
O2A C2A 1_555 1_555
C1A C2A 1_555 1_555
C1A C5A 1_555 1_555
N3A C6A 1_555 1_555
N4A C8A 1_555 1_555
O4A Cd2A_2 1_555 1_555
Cd1B O2C 1_555 1_555
Cd1B_2 O2B 1_555 1_555

#END
