
#######################################################################
#
#                 Cambridge Crystallographic Data Centre
#                                CCDC 
#
#######################################################################
#
# If this CIF has been generated from an entry in the Cambridge 
# Structural Database, then it will include bibliographic, chemical, 
# crystal, experimental, refinement or atomic coordinate data resulting 
# from the CCDC's data processing and validation procedures.
#
#######################################################################

data_HUCBEN
_symmetry_cell_setting           monoclinic
_symmetry_space_group_name_H-M   'C 2/m'
_symmetry_Int_Tables_number      12
_space_group_name_Hall           '-C 2y'
loop_
_symmetry_equiv_pos_site_id
_symmetry_equiv_pos_as_xyz
1 x,y,z
2 -x,y,-z
3 1/2+x,1/2+y,z
4 1/2-x,1/2+y,-z
5 -x,-y,-z
6 x,-y,z
7 1/2-x,1/2-y,-z
8 1/2+x,1/2-y,z
_cell_length_a                   36.5251(12)
_cell_length_b                   9.8281(3)
_cell_length_c                   10.1059(4)
_cell_angle_alpha                90
_cell_angle_beta                 105.682(4)
_cell_angle_gamma                90
_cell_volume                     3492.7
loop_
_atom_site_label
_atom_site_type_symbol
_atom_site_fract_x
_atom_site_fract_y
_atom_site_fract_z
In1 In -0.10788(2) 1.0000 0.06605(9)
O1 O -0.05991(18) 0.8587(6) 0.1227(8)
O2 O -0.11454(16) 0.7632(6) 0.0523(8)
O3 O 0.4000(2) 0.5000 0.8486(8)
O4 O 0.3429(2) 0.5000 0.8829(9)
O5 O 0.3540(3) 0.5000 0.1891(10)
O6 O 0.4079(4) 0.5000 0.3535(12)
C2 C -0.0798(3) 0.7534(9) 0.0949(9)
C3 C -0.0591(2) 0.6200(8) 0.1128(10)
C4 C -0.0799(3) 0.5000 0.0914(13)
H5 H -0.1069 0.5000 0.0637
C5 C -0.0201(2) 0.6197(9) 0.1477(10)
H6 H -0.0070 0.7041 0.1577
C6 C 0.0008(3) 0.5000 0.1687(14)
C7 C 0.0433(3) 0.5000 0.2054(14)
C8 C 0.0640(2) 0.6218(8) 0.2242(10)
H7 H 0.0508 0.7062 0.2122
C9 C 0.1037(2) 0.6205(8) 0.2606(9)
H8 H 0.1173 0.7041 0.2749
C10 C 0.1233(4) 0.5000 0.2757(13)
C11 C 0.1657(3) 0.5000 0.3238(14)
C12 C 0.1859(5) 0.4058(19) 0.4239(19)
H9 H 0.1734 0.3278 0.4486
C13 C 0.2248(5) 0.4077(17) 0.4686(19)
H10 H 0.2388 0.3361 0.5245
C14 C 0.2455(3) 0.5000 0.4147(12)
C15 C 0.2886(3) 0.5000 0.4661(14)
C16 C 0.3061(3) 0.5000 0.6049(12)
H11 H 0.2914 0.5000 0.6692
C17 C 0.3461(3) 0.5000 0.6507(13)
C18 C 0.3676(3) 0.5000 0.5584(12)
H12 H 0.3946 0.5000 0.5906
C19 C 0.3501(3) 0.5000 0.4177(13)
C20 C 0.3106(4) 0.5000 0.3728(13)
H13 H 0.2984 0.5000 0.2770
C21 C 0.3634(3) 0.5000 0.7997(12)
C22 C 0.3731(4) 0.5000 0.3158(14)
In1B In 0.39212(2) -0.5000 1.06605(9)
In1B_2 In 0.39212(2) 0.5000 1.06605(9)
In1B_3 In 0.39212(2) 0.5000 0.06605(9)
In1_2 In -0.10788(2) 0.0000 0.06605(9)
In1B_4 In 0.39212(2) -0.5000 0.06605(9)
In1_3 In -0.10788(2) -1.0000 0.06605(9)
O1E O -0.05991(18) 0.1413(6) 0.1227(8)
O1E_2 O -0.05991(18) 1.1413(6) 0.1227(8)
O1_2 O -0.05991(18) -0.1413(6) 0.1227(8)
O1E_3 O -0.05991(18) -0.8587(6) 0.1227(8)
O2E O -0.11454(16) 0.2368(6) 0.0523(8)
O2E_2 O -0.11454(16) 1.2368(6) 0.0523(8)
O2_2 O -0.11454(16) -0.2368(6) 0.0523(8)
O2E_3 O -0.11454(16) -0.7632(6) 0.0523(8)
O3_2 O 0.4000(2) -0.5000 0.8486(8)
O3B O -0.1000(2) 1.0000 -0.1514(8)
O3B_2 O -0.1000(2) 0.0000 -0.1514(8)
O4_2 O 0.3429(2) -0.5000 0.8829(9)
O4B O -0.1571(2) 1.0000 -0.1171(9)
O4B_2 O -0.1571(2) 0.0000 -0.1171(9)
O5B O -0.1460(3) 1.0000 0.1891(10)
O5B_2 O -0.1460(3) 0.0000 0.1891(10)
O5_2 O 0.3540(3) -0.5000 0.1891(10)
O6_2 O 0.4079(4) -0.5000 0.3535(12)
C2E C -0.0798(3) 0.2466(9) 0.0949(9)
C2_2 C -0.0798(3) -0.2466(9) 0.0949(9)
C2E_2 C -0.0798(3) -0.7534(9) 0.0949(9)
C3E C -0.0591(2) 0.3800(8) 0.1128(10)
C3_2 C -0.0591(2) -0.3800(8) 0.1128(10)
C3E_2 C -0.0591(2) -0.6200(8) 0.1128(10)
C4_2 C -0.0799(3) -0.5000 0.0914(13)
H5_2 H -0.1069 -0.5000 0.0637
C5E C -0.0201(2) 0.3803(9) 0.1477(10)
C5_2 C -0.0201(2) -0.3803(9) 0.1477(10)
C5E_2 C -0.0201(2) -0.6197(9) 0.1477(10)
H6E H -0.0070 0.2959 0.1577
H6_2 H -0.0070 -0.2959 0.1577
H6E_2 H -0.0070 -0.7041 0.1577
C6_2 C 0.0008(3) -0.5000 0.1687(14)
C7_2 C 0.0433(3) -0.5000 0.2054(14)
C8E C 0.0640(2) 0.3782(8) 0.2242(10)
C8_2 C 0.0640(2) -0.3782(8) 0.2242(10)
C8E_2 C 0.0640(2) -0.6218(8) 0.2242(10)
H7E H 0.0508 0.2938 0.2122
H7_2 H 0.0508 -0.2938 0.2122
H7E_2 H 0.0508 -0.7062 0.2122
C9E C 0.1037(2) 0.3795(8) 0.2606(9)
C9_2 C 0.1037(2) -0.3795(8) 0.2606(9)
C9E_2 C 0.1037(2) -0.6205(8) 0.2606(9)
H8E H 0.1173 0.2959 0.2749
H8_2 H 0.1173 -0.2959 0.2749
H8E_2 H 0.1173 -0.7041 0.2749
C10_2 C 0.1233(4) -0.5000 0.2757(13)
C11_2 C 0.1657(3) -0.5000 0.3238(14)
C12E C 0.1859(5) 0.5942(19) 0.4239(19)
C12_2 C 0.1859(5) -0.5942(19) 0.4239(19)
C12E_2 C 0.1859(5) -0.4058(19) 0.4239(19)
H9E H 0.1734 0.6722 0.4486
H9_2 H 0.1734 -0.6722 0.4486
H9E_2 H 0.1734 -0.3278 0.4486
C13E C 0.2248(5) 0.5923(17) 0.4686(19)
C13_2 C 0.2248(5) -0.5923(17) 0.4686(19)
C13E_2 C 0.2248(5) -0.4077(17) 0.4686(19)
H10E H 0.2388 0.6639 0.5245
H10_2 H 0.2388 -0.6639 0.5245
H10E_2 H 0.2388 -0.3361 0.5245
C14_2 C 0.2455(3) -0.5000 0.4147(12)
C15_2 C 0.2886(3) -0.5000 0.4661(14)
C16_2 C 0.3061(3) -0.5000 0.6049(12)
H11_2 H 0.2914 -0.5000 0.6692
C17_2 C 0.3461(3) -0.5000 0.6507(13)
C18_2 C 0.3676(3) -0.5000 0.5584(12)
H12_2 H 0.3946 -0.5000 0.5906
C19_2 C 0.3501(3) -0.5000 0.4177(13)
C20_2 C 0.3106(4) -0.5000 0.3728(13)
H13_2 H 0.2984 -0.5000 0.2770
C21_2 C 0.3634(3) -0.5000 0.7997(12)
C22_2 C 0.3731(4) -0.5000 0.3158(14)
N1 N 0.0127(6) 0.0000 0.637(2)
H1 H 0.0119 0.0000 0.7271
H2 H 0.0377 0.0000 0.6348
C1 C -0.0066(8) -0.116(3) 0.567(3)
H3 H 0.0013 -0.2005 0.6205
H4 H -0.0346 -0.1060 0.5462
N1A N -0.0127(6) 0.0000 0.363(2)
H1A H -0.0119 0.0000 0.2729
H2A H -0.0377 0.0000 0.3652
C1A C 0.0066(8) -0.116(3) 0.433(3)
C1D C 0.0066(8) 0.116(3) 0.433(3)
C1E C -0.0066(8) 0.116(3) 0.567(3)
H3D H -0.0013 0.2005 0.3795
H3E H 0.0013 0.2005 0.6205
H3A H -0.0013 -0.2005 0.3795
H4D H 0.0346 0.1060 0.4538
H4E H -0.0346 0.1060 0.5462
H4A H 0.0346 -0.1060 0.4538
C23? C 0.1877(5) 0.5858(18) 0.2630(18)
H14? H 0.1747 0.6451 0.1897
C24? C 0.2267(5) 0.5894(16) 0.3097(14)
H15? H 0.2414 0.6547 0.2752
loop_
_geom_bond_atom_site_label_1
_geom_bond_atom_site_label_2
_geom_bond_site_symmetry_1
_geom_bond_site_symmetry_2
N1 H1 1_555 1_555
H2 N1 1_555 1_555
C1 N1 1_555 1_555
H3 C1 1_555 1_555
H4 C1 1_555 1_555
In1 O1 1_555 1_555
O1 C2 1_555 1_555
O2 In1 1_555 1_555
O3 C21 1_555 1_555
O4 C21 1_555 1_555
O5 C22 1_555 1_555
O6 C22 1_555 1_555
C2 O2 1_555 1_555
C3 C2 1_555 1_555
C4 C3 1_555 1_555
H5 C4 1_555 1_555
C5 C3 1_555 1_555
H6 C5 1_555 1_555
C6 C5 1_555 1_555
C7 C6 1_555 1_555
C8 C7 1_555 1_555
H7 C8 1_555 1_555
C9 C8 1_555 1_555
H8 C9 1_555 1_555
C10 C9 1_555 1_555
C11 C10 1_555 1_555
C12 C11 1_555 1_555
H9 C12 1_555 1_555
C13 C12 1_555 1_555
H10 C13 1_555 1_555
C14 C13 1_555 1_555
C15 C14 1_555 1_555
C16 C15 1_555 1_555
H11 C16 1_555 1_555
C17 C16 1_555 1_555
C18 C17 1_555 1_555
H12 C18 1_555 1_555
C19 C18 1_555 1_555
C20 C15 1_555 1_555
H13 C20 1_555 1_555
C21 C17 1_555 1_555
C22 C19 1_555 1_555
N1A H1A 1_555 1_555
H2A N1A 1_555 1_555
C1A C1 1_555 1_555
C1D N1A 1_555 1_555
C1E N1 1_555 1_555
H3D C1D 1_555 1_555
H3E C1E 1_555 1_555
H3A C1A 1_555 1_555
H4D C1D 1_555 1_555
H4E C1E 1_555 1_555
H4A C1A 1_555 1_555
In1B O3_2 1_555 1_555
In1B_2 O3 1_555 1_555
In1B_3 O5 1_555 1_555
In1_2 O1E 1_555 1_555
In1B_4 O5_2 1_555 1_555
In1_3 O1E_3 1_555 1_555
O1E C2E 1_555 1_555
O1E_2 In1 1_555 1_555
O1_2 In1_2 1_555 1_555
O1E_3 C2E_2 1_555 1_555
O2E In1_2 1_555 1_555
O2E_2 In1 1_555 1_555
O2_2 In1_2 1_555 1_555
O2E_3 In1_3 1_555 1_555
O3_2 C21_2 1_555 1_555
O3B In1 1_555 1_555
O3B_2 In1_2 1_555 1_555
O4_2 In1B 1_555 1_555
O4B In1 1_555 1_555
O4B_2 In1_2 1_555 1_555
O5B In1 1_555 1_555
O5B_2 In1_2 1_555 1_555
O5_2 C22_2 1_555 1_555
O6_2 C22_2 1_555 1_555
C2E O2E 1_555 1_555
C2_2 O1_2 1_555 1_555
C2E_2 O2E_3 1_555 1_555
C3E C4 1_555 1_555
C3_2 C2_2 1_555 1_555
C3E_2 C2E_2 1_555 1_555
C4_2 C3_2 1_555 1_555
H5_2 C4_2 1_555 1_555
C5E C6 1_555 1_555
C5_2 C3_2 1_555 1_555
C5E_2 C3E_2 1_555 1_555
H6E C5E 1_555 1_555
H6_2 C5_2 1_555 1_555
H6E_2 C5E_2 1_555 1_555
C6_2 C5_2 1_555 1_555
C7_2 C6_2 1_555 1_555
C8E C7 1_555 1_555
C8_2 C7_2 1_555 1_555
C8E_2 C7_2 1_555 1_555
H7E C8E 1_555 1_555
H7_2 C8_2 1_555 1_555
H7E_2 C8E_2 1_555 1_555
C9E C10 1_555 1_555
C9_2 C8_2 1_555 1_555
C9E_2 C8E_2 1_555 1_555
H8E C9E 1_555 1_555
H8_2 C9_2 1_555 1_555
H8E_2 C9E_2 1_555 1_555
C10_2 C9_2 1_555 1_555
C11_2 C10_2 1_555 1_555
C12E C11 1_555 1_555
C12_2 C11_2 1_555 1_555
C12E_2 C11_2 1_555 1_555
H9E C12E 1_555 1_555
H9_2 C12_2 1_555 1_555
H9E_2 C12E_2 1_555 1_555
C13E C14 1_555 1_555
C13_2 C12_2 1_555 1_555
C13E_2 C12E_2 1_555 1_555
H10E C13E 1_555 1_555
H10_2 C13_2 1_555 1_555
H10E_2 C13E_2 1_555 1_555
C14_2 C13_2 1_555 1_555
C15_2 C14_2 1_555 1_555
C16_2 C15_2 1_555 1_555
H11_2 C16_2 1_555 1_555
C17_2 C16_2 1_555 1_555
C18_2 C17_2 1_555 1_555
H12_2 C18_2 1_555 1_555
C19_2 C18_2 1_555 1_555
C20_2 C15_2 1_555 1_555
H13_2 C20_2 1_555 1_555
C21_2 O4_2 1_555 1_555
C22_2 C19_2 1_555 1_555
O4 In1B_2 1_555 1_555
C19 C20 1_555 1_555
N1A C1A 1_555 1_555
C1D C1E 1_555 1_555
O2_2 C2_2 1_555 1_555
C2E C3E 1_555 1_555
C3E C5E 1_555 1_555
C3E_2 C4_2 1_555 1_555
C5E_2 C6_2 1_555 1_555
C8E C9E 1_555 1_555
C9E_2 C10_2 1_555 1_555
C12E C13E 1_555 1_555
C13E_2 C14_2 1_555 1_555
C17_2 C21_2 1_555 1_555
C19_2 C20_2 1_555 1_555

#END
