
#######################################################################
#
#                 Cambridge Crystallographic Data Centre
#                                CCDC 
#
#######################################################################
#
# If this CIF has been generated from an entry in the Cambridge 
# Structural Database, then it will include bibliographic, chemical, 
# crystal, experimental, refinement or atomic coordinate data resulting 
# from the CCDC's data processing and validation procedures.
#
#######################################################################

data_HUCBOX02
_symmetry_cell_setting           monoclinic
_symmetry_space_group_name_H-M   'P 21/n'
_symmetry_Int_Tables_number      14
_space_group_name_Hall           '-P 2yn'
loop_
_symmetry_equiv_pos_site_id
_symmetry_equiv_pos_as_xyz
1 x,y,z
2 1/2-x,1/2+y,1/2-z
3 -x,-y,-z
4 1/2+x,1/2-y,1/2+z
_cell_length_a                   13.796(2)
_cell_length_b                   19.430(4)
_cell_length_c                   12.057(3)
_cell_angle_alpha                90
_cell_angle_beta                 139.172(10)
_cell_angle_gamma                90
_cell_volume                     2113.02
loop_
_atom_site_label
_atom_site_type_symbol
_atom_site_fract_x
_atom_site_fract_y
_atom_site_fract_z
Cu1 Cu 1.18396(14) 0.06497(5) 0.22400(18)
Cu2 Cu 1.78689(14) -0.04892(5) 0.23123(18)
Cu3 Cu 1.94593(14) 0.08248(5) 0.23144(18)
Cu4 Cu 0.57124(15) 0.55850(5) -0.19685(19)
S1 S 0.8003(3) 0.41541(11) 0.1094(4)
S2 S 1.2791(3) 0.10656(13) 0.0840(4)
O1 O 1.3362(7) 0.0947(3) 0.2454(9)
O2 O 1.1489(7) 0.1595(3) 0.2265(9)
O3 O 1.6468(7) 0.3584(3) 0.2215(9)
O4 O 1.4179(7) 0.3621(3) 0.0959(9)
O5 O 0.7888(8) 0.4828(3) 0.0472(10)
O6 O 0.8551(7) 0.4196(3) 0.2713(9)
O7 O 0.6652(7) 0.3753(3) -0.0147(9)
O8 O 1.8214(9) 0.1287(3) 0.2288(11)
O9 O 0.9271(8) 0.1606(3) 0.1182(10)
O10 O 1.3074(8) 0.3933(3) 0.1990(11)
O11 O 1.2594(9) 0.0429(4) 0.0053(11)
C1 C 1.4174(11) 0.1506(5) 0.1272(13)
O12 O 1.9744(7) -0.0052(3) 0.3399(8)
C2 C 1.5228(10) 0.2537(4) 0.1489(12)
C3 C 1.1403(11) 0.3026(4) 0.1969(13)
H1 H 1.2073 0.2797 0.2095
O13 O 1.1471(8) 0.1487(5) -0.0277(10)
C4 C 1.0424(11) 0.4082(5) 0.1848(13)
H2 H 1.0456 0.4559 0.1934
O14 O 1.0238(7) 0.0259(3) 0.1752(9)
C5 C 1.6244(10) 0.2157(4) 0.1745(13)
H3 H 1.6946 0.2377 0.1914
C6 C 1.0386(10) 0.2662(4) 0.1709(13)
C7 C 1.5184(11) 0.1119(4) 0.1559(13)
H4 H 1.5190 0.0642 0.1628
O15 O 1.6973(10) 0.0382(3) 0.1789(14)
O16 O 1.2816(10) 0.4745(4) 0.3039(13)
C8 C 1.4201(10) 0.2218(4) 0.1259(12)
H5 H 1.3533 0.2475 0.1097
C9 C 0.9378(11) 0.3712(4) 0.1523(13)
C10 C 0.9356(11) 0.2998(4) 0.1455(13)
H6 H 0.8649 0.2751 0.1237
C11 C 1.6183(11) 0.1445(4) 0.1742(13)
C12 C 1.1413(11) 0.3746(4) 0.2042(13)
C13 C 1.7245(12) 0.1002(5) 0.1992(14)
C14 C 1.0408(11) 0.1883(4) 0.1728(13)
C15 C 1.5298(12) 0.3311(5) 0.1535(14)
C16 C 1.2509(12) 0.4168(4) 0.2354(14)
Cu1A Cu 1.31604(14) 0.56497(5) 0.27600(18)
Cu2A Cu 1.71311(14) 0.45108(5) 0.26877(18)
Cu2A_2 Cu 0.71311(14) 0.45108(5) 0.26877(18)
Cu2B Cu 1.21311(14) 0.04892(5) -0.23123(18)
Cu3C Cu 0.44593(14) 0.41752(5) -0.26856(18)
Cu3_2 Cu 0.94593(14) 0.08248(5) 0.23144(18)
Cu4B Cu 1.42876(15) 0.44150(5) 0.19685(19)
Cu4C Cu 2.07124(15) -0.05850(5) 0.30315(19)
Cu4C_2 Cu 1.07124(15) -0.05850(5) 0.30315(19)
O3A O 1.8532(7) -0.1416(3) 0.2785(9)
O4B O 0.5821(7) 0.6379(3) -0.0959(9)
O6A O 1.6449(7) -0.0804(3) 0.2287(9)
O7C O 2.1652(7) 0.1247(3) 0.4853(9)
O9_2 O 1.9271(8) 0.1606(3) 0.1182(10)
O10B O 0.6926(8) 0.6067(3) -0.1990(11)
O11B O 1.7406(9) -0.0429(4) -0.0053(11)
O12C O 0.4744(7) 0.5052(3) -0.1601(8)
O14_2 O 2.0238(7) 0.0259(3) 0.1752(9)
O14C O 0.5238(7) 0.4741(3) -0.3248(9)
O16A O 1.2184(10) -0.0255(4) 0.1961(13)
loop_
_geom_bond_atom_site_label_1
_geom_bond_atom_site_label_2
_geom_bond_site_symmetry_1
_geom_bond_site_symmetry_2
Cu1 O1 1_555 1_555
Cu2 O12 1_555 1_555
Cu3 O8 1_555 1_555
Cu4 O5 1_555 1_555
S1 O5 1_555 1_555
S2 O1 1_555 1_555
O2 Cu1 1_555 1_555
O3 C15 1_555 1_555
O4 C15 1_555 1_555
O6 S1 1_555 1_555
O7 S1 1_555 1_555
O8 C13 1_555 1_555
O9 C14 1_555 1_555
O10 C16 1_555 1_555
O11 S2 1_555 1_555
C1 S2 1_555 1_555
O12 Cu3 1_555 1_555
C2 C5 1_555 1_555
C3 H1 1_555 1_555
O13 S2 1_555 1_555
C4 H2 1_555 1_555
O14 Cu1 1_555 1_555
C5 H3 1_555 1_555
C6 C3 1_555 1_555
C7 C1 1_555 1_555
H4 C7 1_555 1_555
O15 Cu2 1_555 1_555
O16 C16 1_555 1_555
C8 C1 1_555 1_555
H5 C8 1_555 1_555
C9 S1 1_555 1_555
C10 C6 1_555 1_555
H6 C10 1_555 1_555
C11 C5 1_555 1_555
C12 C3 1_555 1_555
C13 O15 1_555 1_555
C14 O2 1_555 1_555
C15 C2 1_555 1_555
C16 C12 1_555 1_555
Cu1A O16 1_555 1_555
Cu2A O3 1_555 1_555
Cu2A_2 O6 1_555 1_555
Cu2B O11 1_555 1_555
Cu3C O7 1_555 1_555
Cu3_2 O9 1_555 1_555
Cu4B O4 1_555 1_555
Cu4C O12 1_555 1_555
Cu4C_2 O14 1_555 1_555
O3A Cu2 1_555 1_555
O4B Cu4 1_555 1_555
O6A Cu2 1_555 1_555
O7C Cu3 1_555 1_555
O9_2 Cu3 1_555 1_555
O10B Cu4 1_555 1_555
O11B Cu2 1_555 1_555
O12C Cu4 1_555 1_555
O14_2 Cu3 1_555 1_555
O14C Cu4 1_555 1_555
O16A Cu1 1_555 1_555
O10 Cu4B 1_555 1_555
C2 C8 1_555 1_555
C4 C9 1_555 1_555
C4 C12 1_555 1_555
O14 Cu3_2 1_555 1_555
C6 C14 1_555 1_555
C7 C11 1_555 1_555
C9 C10 1_555 1_555
C11 C13 1_555 1_555
Cu3C O12C 1_555 1_555
Cu3C O14C 1_555 1_555
Cu4C O14_2 1_555 1_555

#END
