
#######################################################################
#
#                 Cambridge Crystallographic Data Centre
#                                CCDC 
#
#######################################################################
#
# If this CIF has been generated from an entry in the Cambridge 
# Structural Database, then it will include bibliographic, chemical, 
# crystal, experimental, refinement or atomic coordinate data resulting 
# from the CCDC's data processing and validation procedures.
#
#######################################################################

data_HUDMEA
_symmetry_cell_setting           hexagonal
_symmetry_space_group_name_H-M   'P 63'
_symmetry_Int_Tables_number      173
_space_group_name_Hall           'P 6c'
loop_
_symmetry_equiv_pos_site_id
_symmetry_equiv_pos_as_xyz
1 x,y,z
2 -y,x-y,z
3 -x+y,-x,z
4 -x,-y,1/2+z
5 y,-x+y,1/2+z
6 x-y,x,1/2+z
_cell_length_a                   13.1177(4)
_cell_length_b                   13.1177(4)
_cell_length_c                   16.0050(4)
_cell_angle_alpha                90
_cell_angle_beta                 90
_cell_angle_gamma                120
_cell_volume                     2385.07
loop_
_atom_site_label
_atom_site_type_symbol
_atom_site_fract_x
_atom_site_fract_y
_atom_site_fract_z
Co1 Co 0.04430(8) 0.52597(13) 0.09155(13)
Na1 Na 0.3333 0.6667 0.0931(4)
O1 O 0.1657(5) 0.5250(6) 0.1678(4)
O2 O 0.1720(6) 0.6588(7) 0.0202(5)
C1 C 0.1272(8) 0.4362(10) 0.2165(6)
C2 C 0.0994(9) 0.6675(9) -0.0292(6)
O3 O 0.0313(6) 0.3506(7) 0.2116(4)
O4 O -0.0074(7) 0.6187(8) -0.0128(4)
C3 C 0.1863(10) 0.3678(9) 0.3403(5)
H1 H 0.1131 0.3006 0.3336
C4 C 0.2509(8) 0.7856(8) -0.1352(5)
H2 H 0.3085 0.7900 -0.0990
C5 C 0.2877(8) 0.8386(9) -0.2186(6)
C6 C 0.1410(9) 0.7321(9) -0.1087(6)
H3 H 0.0854 0.7354 -0.1429
C7 C 0.3957(9) 0.9139(10) -0.2496(6)
N1 N 0.2114(8) 0.8180(10) -0.2828(4)
H4 H 0.1360 0.7752 -0.2809
N2 N 0.3868(7) 0.9390(7) -0.3303(5)
C8 C 0.3574(10) 0.4545(11) 0.4471(6)
H5 H 0.4025 0.5308 0.4268
N3 N 0.3830(8) 0.4088(9) 0.5162(5)
C9 C 0.2967(10) 0.3001(10) 0.5186(7)
H6 H 0.2914 0.2466 0.5589
C10 C 0.2765(9) 0.8774(12) -0.3501(7)
N4 N 0.2185(9) 0.2729(9) 0.4597(6)
H7 H 0.1559 0.2058 0.4523
C11 C 0.2546(9) 0.3688(11) 0.4136(6)
C12 C 0.2153(12) 0.4491(10) 0.2838(6)
H8 H 0.2901 0.5153 0.2844
H9 H 0.486(9) 0.935(8) -0.230(6)
Co1A Co 0.47403(13) 0.51833(15) 0.09155(13)
O1A O 0.4750(6) 0.6407(8) 0.1678(4)
O2A O 0.3412(7) 0.5132(9) 0.0202(5)
C1A C 0.5638(10) 0.6910(13) 0.2165(6)
C2A C 0.3325(9) 0.4319(13) -0.0292(6)
O3A O 0.6494(7) 0.6807(9) 0.2116(4)
O4A O 0.3813(8) 0.3739(11) -0.0128(4)
C3A C 0.6322(9) 0.8185(13) 0.3403(5)
H1A H 0.6994 0.8125 0.3336
C4A C 0.2144(8) 0.4653(11) -0.1352(5)
H2A H 0.2100 0.5185 -0.0990
C5A C 0.1614(9) 0.4491(12) -0.2186(6)
C6A C 0.2679(9) 0.4089(13) -0.1087(6)
H3A H 0.2646 0.3500 -0.1429
C7A C 0.0861(10) 0.4818(13) -0.2496(6)
N1A N 0.1820(10) 0.3934(13) -0.2828(4)
H4A H 0.2248 0.3608 -0.2809
N2A N 0.0610(7) 0.4478(10) -0.3303(5)
C8A C 0.5455(11) 0.9029(15) 0.4471(6)
H5A H 0.4692 0.8717 0.4268
N3A N 0.5912(9) 0.9742(12) 0.5162(5)
C9A C 0.6999(10) 0.9966(14) 0.5186(7)
H6A H 0.7534 1.0448 0.5589
C10A C 0.1226(12) 0.3991(15) -0.3501(7)
N4A N 0.7271(9) 0.9456(13) 0.4597(6)
H7A H 0.7942 0.9501 0.4523
C11A C 0.6312(11) 0.8858(14) 0.4136(6)
C12A C 0.5509(10) 0.7662(16) 0.2838(6)
H8A H 0.4847 0.7748 0.2844
H9A H 0.065(8) 0.551(12) -0.230(6)
Co1B Co 0.48167(15) 0.95570(8) 0.09155(13)
O1B O 0.3593(8) 0.8343(5) 0.1678(4)
O2B O 0.4868(9) 0.8280(6) 0.0202(5)
C1B C 0.3090(13) 0.8728(8) 0.2165(6)
C2B C 0.5681(13) 0.9006(9) -0.0292(6)
O3B O 0.3193(9) 0.9687(6) 0.2116(4)
O4B O 0.6261(11) 1.0074(7) -0.0128(4)
C3B C 0.1815(13) 0.8137(10) 0.3403(5)
H1B H 0.1875 0.8869 0.3336
C4B C 0.5347(11) 0.7491(8) -0.1352(5)
H2B H 0.4815 0.6915 -0.0990
C5B C 0.5509(12) 0.7123(8) -0.2186(6)
C6B C 0.5911(13) 0.8590(9) -0.1087(6)
H3B H 0.6500 0.9146 -0.1429
C7B C 0.5182(13) 0.6043(9) -0.2496(6)
N1B N 0.6066(13) 0.7886(8) -0.2828(4)
H4B H 0.6392 0.8640 -0.2809
N2B N 0.5522(10) 0.6132(7) -0.3303(5)
C8B C 0.0971(15) 0.6426(10) 0.4471(6)
H5B H 0.1283 0.5975 0.4268
N3B N 0.0258(12) 0.6170(8) 0.5162(5)
C9B C 0.0034(14) 0.7033(10) 0.5186(7)
H6B H -0.0448 0.7086 0.5589
C10B C 0.6009(15) 0.7235(9) -0.3501(7)
N4B N 0.0544(13) 0.7815(9) 0.4597(6)
H7B H 0.0499 0.8441 0.4523
C11B C 0.1142(14) 0.7454(9) 0.4136(6)
C12B C 0.2338(16) 0.7847(12) 0.2838(6)
H8B H 0.2252 0.7099 0.2844
H9B H 0.449(12) 0.514(9) -0.230(6)
Co1C Co -0.04430(8) 0.47403(13) -0.40845(13)
Co1C_2 Co -0.04430(8) 0.47403(13) 0.59155(13)
Co1D Co 0.52597(13) 0.48167(15) -0.40845(13)
Co1D_2 Co 0.52597(13) 0.48167(15) 0.59155(13)
Co1E Co 0.51833(15) 1.04430(8) -0.40845(13)
Co1E_2 Co 0.51833(15) 1.04430(8) 0.59155(13)
N2C N 0.6132(7) 1.0610(7) 0.1697(5)
N2D N -0.0610(7) 0.5522(10) 0.1697(5)
N2E N 0.4478(10) 0.3868(7) 0.1697(5)
N3C N 0.6170(8) 0.5912(9) 0.0162(5)
N3D N 0.4088(9) 1.0258(12) 0.0162(5)
N3E N -0.0258(12) 0.3830(8) 0.0162(5)
N5 N 0.0000 0.0000 0.425(2)
O5 O -0.0124(15) 0.0832(12) 0.4393(17)
O5A O -0.0832(12) -0.0956(19) 0.4393(17)
O5B O 0.0956(19) 0.0124(15) 0.4393(17)
loop_
_geom_bond_atom_site_label_1
_geom_bond_atom_site_label_2
_geom_bond_site_symmetry_1
_geom_bond_site_symmetry_2
Co1 O1 1_555 1_555
Na1 O1 1_555 1_555
O1 C1 1_555 1_555
O2 Co1 1_555 1_555
C1 O3 1_555 1_555
C2 O2 1_555 1_555
O4 Co1 1_555 1_555
C3 H1 1_555 1_555
C4 H2 1_555 1_555
C5 C4 1_555 1_555
C6 C2 1_555 1_555
H3 C6 1_555 1_555
C7 C5 1_555 1_555
N1 C5 1_555 1_555
H4 N1 1_555 1_555
N2 C7 1_555 1_555
C8 H5 1_555 1_555
N3 C8 1_555 1_555
C9 N3 1_555 1_555
H6 C9 1_555 1_555
C10 N1 1_555 1_555
N4 C9 1_555 1_555
H7 N4 1_555 1_555
C11 C3 1_555 1_555
C12 C1 1_555 1_555
H8 C12 1_555 1_555
H9 C7 1_555 1_555
N5 O5 1_555 1_555
Co1A O1A 1_555 1_555
O1A Na1 1_555 1_555
O2A Na1 1_555 1_555
C1A O1A 1_555 1_555
C2A O2A 1_555 1_555
O3A C1A 1_555 1_555
O4A Co1A 1_555 1_555
C3A H1A 1_555 1_555
C4A H2A 1_555 1_555
C5A C4A 1_555 1_555
C6A C2A 1_555 1_555
H3A C6A 1_555 1_555
C7A C5A 1_555 1_555
N1A C5A 1_555 1_555
H4A N1A 1_555 1_555
N2A C7A 1_555 1_555
C8A H5A 1_555 1_555
N3A C8A 1_555 1_555
C9A N3A 1_555 1_555
H6A C9A 1_555 1_555
C10A N1A 1_555 1_555
N4A C9A 1_555 1_555
H7A N4A 1_555 1_555
C11A C3A 1_555 1_555
C12A C1A 1_555 1_555
H8A C12A 1_555 1_555
H9A C7A 1_555 1_555
Co1B O1B 1_555 1_555
O1B Na1 1_555 1_555
O2B Na1 1_555 1_555
C1B O1B 1_555 1_555
C2B O2B 1_555 1_555
O3B C1B 1_555 1_555
O4B Co1B 1_555 1_555
C3B H1B 1_555 1_555
C4B H2B 1_555 1_555
C5B C4B 1_555 1_555
C6B C2B 1_555 1_555
H3B C6B 1_555 1_555
C7B C5B 1_555 1_555
N1B C5B 1_555 1_555
H4B N1B 1_555 1_555
N2B C7B 1_555 1_555
C8B H5B 1_555 1_555
N3B C8B 1_555 1_555
C9B N3B 1_555 1_555
H6B C9B 1_555 1_555
C10B N1B 1_555 1_555
N4B C9B 1_555 1_555
H7B N4B 1_555 1_555
C11B C3B 1_555 1_555
C12B C1B 1_555 1_555
H8B C12B 1_555 1_555
H9B C7B 1_555 1_555
Co1C N2A 1_555 1_555
Co1C_2 N3B 1_555 1_555
Co1D N2B 1_555 1_555
Co1D_2 N3 1_555 1_555
Co1E N2 1_555 1_555
Co1E_2 N3A 1_555 1_555
N2C Co1B 1_555 1_555
N2D Co1 1_555 1_555
N2E Co1A 1_555 1_555
N3C Co1A 1_555 1_555
N3D Co1B 1_555 1_555
N3E Co1 1_555 1_555
O5A N5 1_555 1_555
O5B N5 1_555 1_555
Na1 O2 1_555 1_555
C2 O4 1_555 1_555
C3 C12 1_555 1_555
C4 C6 1_555 1_555
N2 C10 1_555 1_555
C8 C11 1_555 1_555
N4 C11 1_555 1_555
Co1A O2A 1_555 1_555
C2A O4A 1_555 1_555
C3A C12A 1_555 1_555
C4A C6A 1_555 1_555
N2A C10A 1_555 1_555
C8A C11A 1_555 1_555
N4A C11A 1_555 1_555
Co1B O2B 1_555 1_555
C2B O4B 1_555 1_555
C3B C12B 1_555 1_555
C4B C6B 1_555 1_555
N2B C10B 1_555 1_555
C8B C11B 1_555 1_555
N4B C11B 1_555 1_555

#END
