
#######################################################################
#
#                 Cambridge Crystallographic Data Centre
#                                CCDC 
#
#######################################################################
#
# If this CIF has been generated from an entry in the Cambridge 
# Structural Database, then it will include bibliographic, chemical, 
# crystal, experimental, refinement or atomic coordinate data resulting 
# from the CCDC's data processing and validation procedures.
#
#######################################################################

data_HUDWUA
_symmetry_cell_setting           triclinic
_symmetry_space_group_name_H-M   'P -1'
_symmetry_Int_Tables_number      2
_space_group_name_Hall           '-P 1'
loop_
_symmetry_equiv_pos_site_id
_symmetry_equiv_pos_as_xyz
1 x,y,z
2 -x,-y,-z
_cell_length_a                   12.079(2)
_cell_length_b                   12.382(3)
_cell_length_c                   12.568(3)
_cell_angle_alpha                99.99(3)
_cell_angle_beta                 96.00(3)
_cell_angle_gamma                91.29(3)
_cell_volume                     1839.47
loop_
_atom_site_label
_atom_site_type_symbol
_atom_site_fract_x
_atom_site_fract_y
_atom_site_fract_z
C1 C 0.6861(7) 0.2438(7) 0.5215(7)
C2 C 0.7559(7) 0.3475(7) 0.5419(7)
C3 C 0.7910(9) 0.3972(8) 0.4582(8)
C4 C 0.8534(10) 0.4966(9) 0.4829(8)
H1 H 0.8762 0.5300 0.4267
C5 C 0.8813(10) 0.5453(8) 0.5890(8)
H2 H 0.9213 0.6131 0.6045
C6 C 0.8515(7) 0.4963(7) 0.6758(7)
C7 C 0.7861(7) 0.3996(7) 0.6516(7)
H3 H 0.7615 0.3682 0.7083
C8 C 0.8819(8) 0.5503(7) 0.7920(7)
C9 C 0.8075(8) 0.5474(7) 0.8700(7)
H4 H 0.7380 0.5099 0.8492
C10 C 0.8344(8) 0.5994(7) 0.9787(8)
C11 C 0.9350(8) 0.6557(7) 1.0066(7)
H5 H 0.9524 0.6920 1.0788
C12 C 1.0125(7) 0.6618(7) 0.9339(7)
C13 C 0.9840(7) 0.6065(7) 0.8274(7)
H6 H 1.0363 0.6072 0.7771
C14 C 0.7462(8) 0.5999(7) 1.0552(8)
C15 C 0.6800(11) 0.5066(9) 1.0502(10)
H7 H 0.6914 0.4423 1.0011
C16 C 0.5952(11) 0.5084(9) 1.1191(12)
H8 H 0.5532 0.4436 1.1192
C17 C 0.5730(10) 0.6032(9) 1.1862(11)
C18 C 0.6388(8) 0.6979(8) 1.1935(8)
C19 C 0.7247(7) 0.6949(8) 1.1259(7)
H9 H 0.7689 0.7590 1.1284
C20 C 0.6192(8) 0.8009(8) 1.2679(7)
C21 C 1.1212(7) 0.7223(7) 0.9677(7)
C22 C 1.1727(8) 0.7309(8) 1.0740(7)
H10 H 1.1391 0.6957 1.1236
C23 C 1.2745(9) 0.7915(9) 1.1078(8)
H11 H 1.3092 0.7930 1.1786
C24 C 1.3239(9) 0.8486(10) 1.0392(8)
C25 C 1.2740(9) 0.8387(9) 0.9296(7)
C26 C 1.1736(7) 0.7778(7) 0.8986(7)
H12 H 1.1397 0.7742 0.8272
C27 C 1.3236(9) 0.8981(8) 0.8496(8)
C28 C 0.9202(11) 0.1077(10) 0.4791(11)
C29 C 0.9709(12) 0.1504(12) 0.3865(13)
H13 H 0.9396 0.1078 0.3173
H14 H 1.0510 0.1435 0.3950
H15 H 0.9540 0.2269 0.3887
C30 C 0.9080(16) 0.1138(16) 0.6716(13)
H16 H 0.8572 0.1689 0.6989
H17 H 0.9655 0.1059 0.7293
H18 H 0.8672 0.0441 0.6462
C31 C 1.0597(16) 0.2238(14) 0.6048(16)
H19 H 1.1265 0.1817 0.6051
H20 H 1.0574 0.2686 0.6759
H21 H 1.0605 0.2707 0.5506
Cu1 Cu 0.46319(9) -0.09609(9) 0.41747(8)
Cu2 Cu 0.67281(9) 0.03833(8) 0.35389(8)
Cu3 Cu 1.5000 1.0000 1.0000
N1 N 0.9609(11) 0.1485(10) 0.5787(11)
O1 O 0.6597(6) 0.1988(5) 0.4219(5)
O2 O 0.6565(5) 0.2069(5) 0.6011(5)
O3 O 0.4811(9) 0.5958(8) 1.2440(9)
H22 H 0.5024 0.6038 1.3100
O4 O 0.5358(6) 0.7963(5) 1.3213(6)
O5 O 0.6803(5) 0.8854(5) 1.2723(5)
O6 O 1.4182(8) 0.9081(9) 1.0781(6)
O7 O 1.4191(8) 0.9430(9) 0.8723(7)
O8 O 1.2690(6) 0.8984(5) 0.7603(5)
O9 O 0.7672(7) 0.3511(6) 0.3508(5)
H23 H 0.7694 0.2833 0.3440
O10 O 0.8401(6) 0.0415(7) 0.4580(7)
O11 O 0.6051(5) -0.0109(5) 0.4746(5)
H24 H 0.6496 -0.0506 0.5049
O12 O 0.4391 0.0074 0.2922
H25 H 0.4012 0.0637 0.3084
H26 H 0.4201 -0.0268 0.2280
C1A C 0.3139(7) -0.2438(7) 0.4785(7)
C2A C 0.2441(7) -0.3475(7) 0.4581(7)
C3A C 0.2090(9) -0.3972(8) 0.5418(8)
C4A C 0.1466(10) -0.4966(9) 0.5171(8)
H1A H 0.1238 -0.5300 0.5733
C5A C 0.1187(10) -0.5453(8) 0.4110(8)
H2A H 0.0787 -0.6131 0.3955
C6A C 0.1485(7) -0.4963(7) 0.3242(7)
C7A C 0.2139(7) -0.3996(7) 0.3484(7)
H3A H 0.2385 -0.3682 0.2917
C8A C 0.1181(8) -0.5503(7) 0.2080(7)
C9A C 0.1925(8) -0.5474(7) 0.1300(7)
H4A H 0.2620 -0.5099 0.1508
C10A C 0.1656(8) -0.5994(7) 0.0213(8)
C11A C 0.0650(8) -0.6557(7) -0.0066(7)
H5A H 0.0476 -0.6920 -0.0788
C12A C -0.0125(7) -0.6618(7) 0.0661(7)
C13A C 0.0160(7) -0.6065(7) 0.1726(7)
H6A H -0.0363 -0.6072 0.2229
C14A C 0.2538(8) -0.5999(7) -0.0552(8)
C15A C 0.3200(11) -0.5066(9) -0.0502(10)
H7A H 0.3086 -0.4423 -0.0011
C16A C 0.4048(11) -0.5084(9) -0.1191(12)
H8A H 0.4468 -0.4436 -0.1192
C17A C 0.4270(10) -0.6032(9) -0.1862(11)
C18A C 0.3612(8) -0.6979(8) -0.1935(8)
C19A C 0.2753(7) -0.6949(8) -0.1259(7)
H9A H 0.2311 -0.7590 -0.1284
C20A C 0.3808(8) -0.8009(8) -0.2679(7)
C21A C -0.1212(7) -0.7223(7) 0.0323(7)
C22A C -0.1727(8) -0.7309(8) -0.0740(7)
H10A H -0.1391 -0.6957 -0.1236
C23A C -0.2745(9) -0.7915(9) -0.1078(8)
H11A H -0.3092 -0.7930 -0.1786
C24A C -0.3239(9) -0.8486(10) -0.0392(8)
C25A C -0.2740(9) -0.8387(9) 0.0704(7)
C26A C -0.1736(7) -0.7778(7) 0.1014(7)
H12A H -0.1397 -0.7742 0.1728
C27A C -0.3236(9) -0.8981(8) 0.1504(8)
C28A C 0.0798(11) -0.1077(10) 0.5209(11)
C29A C 0.0291(12) -0.1504(12) 0.6135(13)
H13A H 0.0604 -0.1078 0.6827
H14A H -0.0510 -0.1435 0.6050
H15A H 0.0460 -0.2269 0.6113
C30A C 0.0920(16) -0.1138(16) 0.3284(13)
H16A H 0.1428 -0.1689 0.3011
H17A H 0.0345 -0.1059 0.2707
H18A H 0.1328 -0.0441 0.3538
C31A C -0.0597(16) -0.2238(14) 0.3952(16)
H19A H -0.1265 -0.1817 0.3949
H20A H -0.0574 -0.2686 0.3241
H21A H -0.0605 -0.2707 0.4494
Cu1A Cu 0.53681(9) 0.09609(9) 0.58253(8)
Cu2A Cu 0.32719(9) -0.03833(8) 0.64611(8)
N1A N 0.0391(11) -0.1485(10) 0.4213(11)
O1A O 0.3403(6) -0.1988(5) 0.5781(5)
O2A O 0.3435(5) -0.2069(5) 0.3989(5)
O3A O 0.5189(9) -0.5958(8) -0.2440(9)
H22A H 0.4976 -0.6038 -0.3100
O4A O 0.4642(6) -0.7963(5) -0.3213(6)
O5A O 0.3197(5) -0.8854(5) -0.2723(5)
O6A O -0.4182(8) -0.9081(9) -0.0781(6)
O7A O -0.4191(8) -0.9430(9) 0.1277(7)
O8A O -0.2690(6) -0.8984(5) 0.2397(5)
O9A O 0.2328(7) -0.3511(6) 0.6492(5)
H23A H 0.2306 -0.2833 0.6560
O10A O 0.1599(6) -0.0415(7) 0.5420(7)
O11A O 0.3949(5) 0.0109(5) 0.5254(5)
H24A H 0.3504 0.0506 0.4951
O12A O 0.5609 -0.0074 0.7078
H25A H 0.5988 -0.0637 0.6916
H26A H 0.5799 0.0268 0.7720
Cu1_2 Cu 0.46319(9) 0.90391(9) 1.41747(8)
Cu1A_2 Cu 0.53681(9) -0.90391(9) -0.41747(8)
Cu2_2 Cu -0.32719(9) -0.96167(8) 0.35389(8)
Cu2_3 Cu 0.67281(9) 1.03833(8) 1.35389(8)
Cu2A_2 Cu 0.32719(9) -1.03833(8) -0.35389(8)
Cu2A_3 Cu 1.32719(9) 0.96167(8) 0.64611(8)
Cu3_2 Cu -0.5000 -1.0000 0.0000
O4_2 O 0.5358(6) -0.2037(5) 0.3213(6)
O4A_2 O 0.4642(6) 0.2037(5) 0.6787(6)
O5_2 O 0.6803(5) -0.1146(5) 0.2723(5)
O5A_2 O 0.3197(5) 0.1146(5) 0.7277(5)
O6A_2 O 1.5818(8) 1.0919(9) 0.9219(6)
O7A_2 O 1.5809(8) 1.0570(9) 1.1277(7)
O8_2 O 0.2690(6) -0.1016(5) 0.7603(5)
O8A_2 O 0.7310(6) 0.1016(5) 0.2397(5)
loop_
_geom_bond_atom_site_label_1
_geom_bond_atom_site_label_2
_geom_bond_site_symmetry_1
_geom_bond_site_symmetry_2
C1 C2 1_555 1_555
C2 C3 1_555 1_555
C3 C4 1_555 1_555
C4 H1 1_555 1_555
C5 C4 1_555 1_555
H2 C5 1_555 1_555
C6 C5 1_555 1_555
C7 C2 1_555 1_555
H3 C7 1_555 1_555
C8 C6 1_555 1_555
C9 C8 1_555 1_555
H4 C9 1_555 1_555
C10 C9 1_555 1_555
C11 C10 1_555 1_555
H5 C11 1_555 1_555
C12 C11 1_555 1_555
C13 C8 1_555 1_555
H6 C13 1_555 1_555
C14 C10 1_555 1_555
C15 C14 1_555 1_555
H7 C15 1_555 1_555
C16 C15 1_555 1_555
H8 C16 1_555 1_555
C17 C16 1_555 1_555
C18 C17 1_555 1_555
C19 C14 1_555 1_555
H9 C19 1_555 1_555
C20 C18 1_555 1_555
C21 C12 1_555 1_555
C22 C21 1_555 1_555
H10 C22 1_555 1_555
C23 C22 1_555 1_555
H11 C23 1_555 1_555
C24 C23 1_555 1_555
C25 C24 1_555 1_555
C26 C21 1_555 1_555
H12 C26 1_555 1_555
C27 C25 1_555 1_555
C28 C29 1_555 1_555
C29 H13 1_555 1_555
H14 C29 1_555 1_555
H15 C29 1_555 1_555
C30 H16 1_555 1_555
H17 C30 1_555 1_555
H18 C30 1_555 1_555
C31 H19 1_555 1_555
H20 C31 1_555 1_555
H21 C31 1_555 1_555
Cu1 O11 1_555 1_555
Cu2 O1 1_555 1_555
Cu3 O6 1_555 1_555
N1 C28 1_555 1_555
O1 C1 1_555 1_555
O2 C1 1_555 1_555
O3 C17 1_555 1_555
H22 O3 1_555 1_555
O4 C20 1_555 1_555
O5 C20 1_555 1_555
O6 C24 1_555 1_555
O7 C27 1_555 1_555
O8 C27 1_555 1_555
O9 C3 1_555 1_555
H23 O9 1_555 1_555
O10 C28 1_555 1_555
O11 Cu2 1_555 1_555
H24 O11 1_555 1_555
O12 Cu1 1_555 1_555
H25 O12 1_555 1_555
H26 O12 1_555 1_555
C1A C2A 1_555 1_555
C2A C3A 1_555 1_555
C3A C4A 1_555 1_555
C4A H1A 1_555 1_555
C5A C4A 1_555 1_555
H2A C5A 1_555 1_555
C6A C5A 1_555 1_555
C7A C2A 1_555 1_555
H3A C7A 1_555 1_555
C8A C6A 1_555 1_555
C9A C8A 1_555 1_555
H4A C9A 1_555 1_555
C10A C9A 1_555 1_555
C11A C10A 1_555 1_555
H5A C11A 1_555 1_555
C12A C11A 1_555 1_555
C13A C8A 1_555 1_555
H6A C13A 1_555 1_555
C14A C10A 1_555 1_555
C15A C14A 1_555 1_555
H7A C15A 1_555 1_555
C16A C15A 1_555 1_555
H8A C16A 1_555 1_555
C17A C16A 1_555 1_555
C18A C17A 1_555 1_555
C19A C14A 1_555 1_555
H9A C19A 1_555 1_555
C20A C18A 1_555 1_555
C21A C12A 1_555 1_555
C22A C21A 1_555 1_555
H10A C22A 1_555 1_555
C23A C22A 1_555 1_555
H11A C23A 1_555 1_555
C24A C23A 1_555 1_555
C25A C24A 1_555 1_555
C26A C21A 1_555 1_555
H12A C26A 1_555 1_555
C27A C25A 1_555 1_555
C28A C29A 1_555 1_555
C29A H13A 1_555 1_555
H14A C29A 1_555 1_555
H15A C29A 1_555 1_555
C30A H16A 1_555 1_555
H17A C30A 1_555 1_555
H18A C30A 1_555 1_555
C31A H19A 1_555 1_555
H20A C31A 1_555 1_555
H21A C31A 1_555 1_555
Cu1A O2 1_555 1_555
Cu2A O1A 1_555 1_555
N1A C28A 1_555 1_555
O1A C1A 1_555 1_555
O2A Cu1 1_555 1_555
O3A C17A 1_555 1_555
H22A O3A 1_555 1_555
O4A C20A 1_555 1_555
O5A C20A 1_555 1_555
O6A C24A 1_555 1_555
O7A C27A 1_555 1_555
O8A C27A 1_555 1_555
O9A C3A 1_555 1_555
H23A O9A 1_555 1_555
O10A C28A 1_555 1_555
O11A Cu1 1_555 1_555
H24A O11A 1_555 1_555
O12A Cu1A 1_555 1_555
H25A O12A 1_555 1_555
H26A O12A 1_555 1_555
Cu1_2 O4 1_555 1_555
Cu1A_2 O4A 1_555 1_555
Cu2_2 O8A 1_555 1_555
Cu2_3 O5 1_555 1_555
Cu2A_2 O5A 1_555 1_555
Cu2A_3 O8 1_555 1_555
Cu3_2 O6A 1_555 1_555
O4_2 Cu1 1_555 1_555
O4A_2 Cu1A 1_555 1_555
O5_2 Cu2 1_555 1_555
O5A_2 Cu2A 1_555 1_555
O6A_2 Cu3 1_555 1_555
O7A_2 Cu3 1_555 1_555
O8_2 Cu2A 1_555 1_555
O8A_2 Cu2 1_555 1_555
C6 C7 1_555 1_555
C12 C13 1_555 1_555
C18 C19 1_555 1_555
C25 C26 1_555 1_555
C30 N1 1_555 1_555
C31 N1 1_555 1_555
Cu2 O10 1_555 1_555
Cu3 O7 1_555 1_555
O11 Cu1A 1_555 1_555
C1A O2A 1_555 1_555
C6A C7A 1_555 1_555
C12A C13A 1_555 1_555
C18A C19A 1_555 1_555
C25A C26A 1_555 1_555
C30A N1A 1_555 1_555
C31A N1A 1_555 1_555
Cu1A O11A 1_555 1_555
Cu2A O10A 1_555 1_555
Cu2A O11A 1_555 1_555
O7A Cu3_2 1_555 1_555

#END
