
#######################################################################
#
#                 Cambridge Crystallographic Data Centre
#                                CCDC 
#
#######################################################################
#
# If this CIF has been generated from an entry in the Cambridge 
# Structural Database, then it will include bibliographic, chemical, 
# crystal, experimental, refinement or atomic coordinate data resulting 
# from the CCDC's data processing and validation procedures.
#
#######################################################################

data_HUFJID
_symmetry_cell_setting           monoclinic
_symmetry_space_group_name_H-M   'P 21/n'
_symmetry_Int_Tables_number      14
_space_group_name_Hall           '-P 2yn'
loop_
_symmetry_equiv_pos_site_id
_symmetry_equiv_pos_as_xyz
1 x,y,z
2 1/2-x,1/2+y,1/2-z
3 -x,-y,-z
4 1/2+x,1/2-y,1/2+z
_cell_length_a                   15.179(3)
_cell_length_b                   16.746(3)
_cell_length_c                   28.863(6)
_cell_angle_alpha                90
_cell_angle_beta                 97.96(3)
_cell_angle_gamma                90
_cell_volume                     7265.93
loop_
_atom_site_label
_atom_site_type_symbol
_atom_site_fract_x
_atom_site_fract_y
_atom_site_fract_z
Ag1 Ag 0.79500(3) 0.09481(3) 0.23692(2)
Ag2 Ag 1.18136(3) 0.08679(4) 0.41445(2)
Ag3 Ag 0.42045(3) 0.37047(3) 0.27752(2)
Ag4 Ag 0.05253(4) 0.34523(5) 0.08299(2)
Ag5 Ag 0.60382(6) -0.08937(4) 0.00968(2)
S1 S 0.54154(12) 0.49251(11) 0.36318(6)
C1 C 0.9067(4) 0.0822(4) 0.3389(2)
H1 H 0.8504 0.0977 0.3468
C2 C 0.1551(5) 0.3865(4) 0.1854(3)
H2 H 0.0960 0.3915 0.1923
N1 N 0.6979(4) -0.0032(3) 0.27544(18)
N2 N 0.9130(3) 0.0647(3) 0.29452(18)
N3 N 0.7393(3) 0.0349(3) 0.16249(17)
N4 N 1.0603(3) 0.0622(3) 0.36372(18)
N5 N 0.1680(4) 0.3803(4) 0.1412(2)
N6 N 0.1612(5) 0.2638(4) 0.0564(2)
C3 C 0.9686(4) 0.0938(4) 0.4248(2)
H3 H 0.9999 0.0513 0.4445
H4 H 0.9046 0.0908 0.4282
N7 N 0.5403(3) 0.2908(4) 0.2606(2)
C4 C 0.3223(4) 0.3714(4) 0.1701(2)
H5 H 0.3813 0.3645 0.1632
C5 C 1.3922(4) 0.0977(4) 0.3974(2)
H6 H 1.4556 0.0965 0.3928
H7 H 1.3624 0.0516 0.3803
C6 C 0.7214(4) -0.0433(4) 0.1577(2)
H8 H 0.7266 -0.0754 0.1851
C7 C 0.7472(4) 0.1663(4) 0.1269(2)
H9 H 0.7116 0.1883 0.1502
H10 H 0.7260 0.1916 0.0964
N8 N 0.6791(3) 0.1871(3) 0.24876(18)
N9 N 0.8823(4) 0.1658(3) 0.18438(18)
N10 N 0.3092(3) 0.3789(3) 0.2148(2)
C8 C 1.3860(4) 0.0882(4) 0.4490(2)
C9 C 0.9794(4) 0.0789(3) 0.3745(2)
C10 C 1.3509(4) 0.1736(4) 0.3765(2)
C11 C 0.2242(4) 0.3860(4) 0.2220(2)
H11 H 0.2111 0.3909 0.2531
C12 C 1.0045(4) 0.1739(4) 0.4421(2)
C13 C 0.6750(5) -0.0833(4) 0.3401(2)
H12 H 0.6991 -0.1215 0.3628
N11 N 1.0928(4) 0.1831(4) 0.4473(2)
C14 C 0.2710(5) 0.3672(4) 0.0828(2)
H13 H 0.2367 0.4091 0.0639
H14 H 0.3350 0.3774 0.0818
N12 N 1.2641(4) 0.1843(4) 0.3789(2)
C15 C 1.0162(4) 0.2248(4) 0.1653(2)
H15 H 1.0781 0.2337 0.1740
C16 C 0.2528(4) 0.3734(4) 0.1333(2)
C17 C 1.3990(4) 0.2302(4) 0.3551(2)
H16 H 1.4603 0.2208 0.3536
N13 N 0.6875(4) -0.0365(4) 0.0760(2)
C18 C 0.7284(5) -0.0549(4) 0.3096(2)
H17 H 0.7886 -0.0720 0.3126
C19 C 0.5760(4) 0.0740(4) 0.2351(2)
H18 H 0.5108 0.0662 0.2285
H19 H 0.6015 0.0594 0.2065
C20 C 0.5945(4) 0.1611(4) 0.2454(2)
C21 C 0.5258(4) 0.2137(4) 0.2511(2)
H20 H 0.4666 0.1939 0.2482
C22 C 0.6933(4) 0.2642(4) 0.2586(2)
H21 H 0.7524 0.2842 0.2618
C23 C 1.4569(4) 0.1069(4) 0.4828(2)
H22 H 1.5098 0.1275 0.4731
C24 C 0.6238(4) 0.3165(4) 0.2644(3)
H23 H 0.6365 0.3712 0.2712
C25 C 0.9678(4) 0.1836(4) 0.1960(2)
H24 H 0.9971 0.1681 0.2258
C26 C 0.7306(4) 0.0780(4) 0.1228(2)
C27 C 1.0675(4) 0.0471(4) 0.3184(2)
H25 H 1.1245 0.0363 0.3099
N14 N 1.3086(4) 0.0609(4) 0.4616(2)
C28 C 0.6125(4) 0.0192(4) 0.2736(2)
C29 C 0.8431(4) 0.1886(4) 0.1412(2)
C30 C 0.8904(4) 0.2336(4) 0.1120(2)
H26 H 0.8606 0.2518 0.0828
C31 C 0.3102(6) 0.2389(5) 0.0450(3)
H27 H 0.3698 0.2574 0.0478
C32 C 0.2467(5) 0.2866(5) 0.0611(2)
C33 C 0.9953(4) 0.0470(4) 0.2847(2)
H28 H 1.0030 0.0341 0.2535
C34 C 0.6959(5) -0.0789(4) 0.1154(3)
H29 H 0.6841 -0.1346 0.1141
C35 C 0.7063(5) 0.0416(4) 0.0800(2)
H30 H 0.7028 0.0731 0.0524
C36 C 1.3064(5) 0.0496(5) 0.5070(3)
H31 H 1.2536 0.0291 0.5168
C37 C 0.9495(5) 0.2355(4) 0.4528(2)
H32 H 0.8870 0.2275 0.4486
C38 C 1.2269(5) 0.2512(5) 0.3607(3)
H33 H 1.1654 0.2604 0.3617
C39 C 0.5598(5) -0.0089(5) 0.3060(2)
H34 H 0.5000 0.0090 0.3040
C40 C 1.1257(6) 0.2540(5) 0.4631(3)
H35 H 1.1882 0.2625 0.4672
N15 N 0.5910(5) -0.0604(4) 0.3399(2)
C41 C 0.1431(7) 0.1912(6) 0.0370(3)
H36 H 0.0837 0.1721 0.0340
O1 O 0.5227(3) 0.4639(3) 0.31307(16)
N16 N 1.3614(4) 0.2978(4) 0.3363(2)
N17 N 0.9824(5) 0.3058(4) 0.4688(2)
N18 N 1.4537(4) 0.0971(4) 0.5282(2)
N19 N 0.9757(4) 0.2515(4) 0.1239(2)
C42 C 0.4372(5) 0.5154(5) 0.3805(3)
H37 H 0.4115 0.5618 0.3629
H38 H 0.4451 0.5274 0.4141
H39 H 0.3972 0.4695 0.3742
C43 C 1.3786(5) 0.0668(5) 0.5406(2)
H40 H 1.3747 0.0570 0.5726
S2 S 0.5294(2) -0.00800(16) -0.09869(9)
C44 C 0.5655(5) 0.4056(6) 0.3977(3)
H41 H 0.5169 0.3671 0.3906
H42 H 0.5718 0.4199 0.4309
H43 H 0.6211 0.3817 0.3906
C45 C 1.2759(5) 0.3080(5) 0.3402(3)
H44 H 1.2473 0.3558 0.3285
N20 N 0.2902(6) 0.1670(4) 0.0254(2)
C46 C 1.0703(7) 0.3149(5) 0.4736(3)
H45 H 1.0955 0.3645 0.4844
C47 C 0.2058(7) 0.1445(6) 0.0217(3)
H46 H 0.1889 0.0942 0.0080
C48 C 0.6400(8) 0.0170(6) -0.1074(4)
H47 H 0.6540 0.0712 -0.0957
H48 H 0.6451 0.0146 -0.1408
H49 H 0.6817 -0.0209 -0.0903
O2 O 0.5298(6) -0.0084(4) -0.0465(2)
C49 C 0.5315(8) -0.1111(6) -0.1164(4)
H50 H 0.5760 -0.1401 -0.0949
H51 H 0.5467 -0.1143 -0.1482
H52 H 0.4728 -0.1350 -0.1156
Ag3_2 Ag 1.42045(3) 0.37047(3) 0.27752(2)
Ag4_2 Ag 1.05253(4) 0.34523(5) 0.08299(2)
Ag4C Ag 1.55253(4) 0.15477(5) 0.58299(2)
Ag5A Ag 0.89618(6) 0.41063(4) 0.49032(2)
Ag5B Ag 0.39618(6) 0.08937(4) -0.00968(2)
N16_2 N 0.3614(4) 0.2978(4) 0.3363(2)
N17A N 0.5176(5) -0.1942(4) 0.0312(2)
N18C N -0.0463(4) 0.4029(4) 0.0282(2)
N19_2 N -0.0243(4) 0.2515(4) 0.1239(2)
N20B N 0.7098(6) -0.1670(4) -0.0254(2)
P1 P -0.01686(11) 0.32280(10) 0.30591(6)
F1 F 0.0244(3) 0.3243(3) 0.35987(15)
F2 F -0.0492(3) 0.4129(3) 0.30896(15)
F3 F 0.0147(3) 0.2327(3) 0.30320(16)
F4 F -0.0610(5) 0.3200(4) 0.25288(18)
F5 F 0.0735(4) 0.3522(3) 0.2911(3)
F6 F -0.1090(3) 0.2933(3) 0.3215(2)
P2 P 0.4251(2) -0.35115(17) -0.09273(13)
F7 F 0.3714(4) -0.3148(3) -0.1391(2)
F8 F 0.4766(11) -0.3871(6) -0.0456(5)
F9 F 0.4476(7) -0.2715(5) -0.0720(3)
F10 F 0.3696(5) -0.4312(5) -0.0976(3)
F11 F 0.3316(7) -0.3275(6) -0.0652(3)
F12 F 0.4894(7) -0.3942(6) -0.1192(6)
P3 P 0.12842(13) 0.87581(12) 0.00652(7)
F13 F 0.2129(5) 0.8387(6) -0.0125(3)
F14 F 0.0988(5) 0.9023(4) -0.04636(18)
F15 F 0.0805(7) 0.7905(5) -0.0042(3)
F16 F 0.1583(5) 0.8505(4) 0.0590(2)
F17 F 0.0354(7) 0.9070(8) 0.0212(4)
F18 F 0.1698(8) 0.9591(5) 0.0147(3)
P4 P 0.26022(13) 0.10812(14) 0.22794(9)
F23 F 0.3532(4) 0.0780(5) 0.2184(3)
F24 F 0.3016(4) 0.1910(3) 0.2464(2)
F25 F 0.2797(5) 0.0728(4) 0.2806(2)
F26 F 0.1665(4) 0.1359(6) 0.2390(3)
F27 F 0.2215(5) 0.0233(4) 0.2094(3)
F28 F 0.2360(4) 0.1428(4) 0.1766(2)
P5 P 1.67221(13) 0.17100(16) 0.41007(7)
F29 F 1.5989(6) 0.2198(4) 0.4330(2)
F30 F 1.6109(4) 0.0966(4) 0.4093(4)
F31 F 1.6230(6) 0.1989(8) 0.3618(2)
F32 F 1.7216(7) 0.1439(5) 0.4587(3)
F33 F 1.7402(6) 0.1198(8) 0.3885(4)
F34 F 1.7323(5) 0.2468(6) 0.4135(5)
F19? F 0.2331(17) 0.914(3) 0.0206(9)
F20? F 0.178(3) 0.797(2) -0.0015(12)
F21? F 0.085(3) 0.958(2) 0.0219(8)
F22? F 0.0450(19) 0.842(3) -0.004(2)
loop_
_geom_bond_atom_site_label_1
_geom_bond_atom_site_label_2
_geom_bond_site_symmetry_1
_geom_bond_site_symmetry_2
Ag1 N1 1_555 1_555
Ag2 N4 1_555 1_555
Ag3 N7 1_555 1_555
Ag4 N5 1_555 1_555
Ag5 N13 1_555 1_555
S1 O1 1_555 1_555
C1 H1 1_555 1_555
C2 H2 1_555 1_555
N1 C18 1_555 1_555
N2 Ag1 1_555 1_555
N3 Ag1 1_555 1_555
N4 C9 1_555 1_555
N5 C2 1_555 1_555
N6 Ag4 1_555 1_555
C3 H3 1_555 1_555
H4 C3 1_555 1_555
N7 C21 1_555 1_555
C4 H5 1_555 1_555
C5 H6 1_555 1_555
H7 C5 1_555 1_555
C6 N3 1_555 1_555
H8 C6 1_555 1_555
C7 H9 1_555 1_555
H10 C7 1_555 1_555
N8 Ag1 1_555 1_555
N9 Ag1 1_555 1_555
N10 Ag3 1_555 1_555
C8 C5 1_555 1_555
C9 C1 1_555 1_555
C10 C5 1_555 1_555
C11 C2 1_555 1_555
H11 C11 1_555 1_555
C12 C3 1_555 1_555
C13 H12 1_555 1_555
N11 Ag2 1_555 1_555
C14 H13 1_555 1_555
H14 C14 1_555 1_555
N12 Ag2 1_555 1_555
C15 H15 1_555 1_555
C16 N5 1_555 1_555
C17 C10 1_555 1_555
H16 C17 1_555 1_555
N13 C34 1_555 1_555
C18 C13 1_555 1_555
H17 C18 1_555 1_555
C19 H18 1_555 1_555
H19 C19 1_555 1_555
C20 N8 1_555 1_555
C21 C20 1_555 1_555
H20 C21 1_555 1_555
C22 N8 1_555 1_555
H21 C22 1_555 1_555
C23 C8 1_555 1_555
H22 C23 1_555 1_555
C24 N7 1_555 1_555
H23 C24 1_555 1_555
C25 N9 1_555 1_555
H24 C25 1_555 1_555
C26 N3 1_555 1_555
C27 N4 1_555 1_555
H25 C27 1_555 1_555
N14 Ag2 1_555 1_555
C28 N1 1_555 1_555
C29 C7 1_555 1_555
C30 C29 1_555 1_555
H26 C30 1_555 1_555
C31 H27 1_555 1_555
C32 N6 1_555 1_555
C33 N2 1_555 1_555
H28 C33 1_555 1_555
C34 C6 1_555 1_555
H29 C34 1_555 1_555
C35 N13 1_555 1_555
H30 C35 1_555 1_555
C36 N14 1_555 1_555
H31 C36 1_555 1_555
C37 C12 1_555 1_555
H32 C37 1_555 1_555
C38 N12 1_555 1_555
H33 C38 1_555 1_555
C39 C28 1_555 1_555
H34 C39 1_555 1_555
C40 N11 1_555 1_555
H35 C40 1_555 1_555
N15 C13 1_555 1_555
C41 N6 1_555 1_555
H36 C41 1_555 1_555
O1 Ag3 1_555 1_555
N16 C17 1_555 1_555
N17 C37 1_555 1_555
N18 C23 1_555 1_555
N19 C15 1_555 1_555
C42 S1 1_555 1_555
H37 C42 1_555 1_555
H38 C42 1_555 1_555
H39 C42 1_555 1_555
C43 C36 1_555 1_555
H40 C43 1_555 1_555
S2 C48 1_555 1_555
C44 S1 1_555 1_555
H41 C44 1_555 1_555
H42 C44 1_555 1_555
H43 C44 1_555 1_555
C45 C38 1_555 1_555
H44 C45 1_555 1_555
N20 C31 1_555 1_555
C46 C40 1_555 1_555
H45 C46 1_555 1_555
C47 C41 1_555 1_555
H46 C47 1_555 1_555
C48 H47 1_555 1_555
H48 C48 1_555 1_555
H49 C48 1_555 1_555
O2 Ag5 1_555 1_555
C49 S2 1_555 1_555
H50 C49 1_555 1_555
H51 C49 1_555 1_555
H52 C49 1_555 1_555
P1 F1 1_555 1_555
F2 P1 1_555 1_555
F3 P1 1_555 1_555
F4 P1 1_555 1_555
F5 P1 1_555 1_555
F6 P1 1_555 1_555
P2 F7 1_555 1_555
F8 P2 1_555 1_555
F9 P2 1_555 1_555
F10 P2 1_555 1_555
F11 P2 1_555 1_555
F12 P2 1_555 1_555
P3 F13 1_555 1_555
F14 P3 1_555 1_555
F15 P3 1_555 1_555
F16 P3 1_555 1_555
F17 P3 1_555 1_555
F18 P3 1_555 1_555
P4 F23 1_555 1_555
F24 P4 1_555 1_555
F25 P4 1_555 1_555
F26 P4 1_555 1_555
F27 P4 1_555 1_555
F28 P4 1_555 1_555
P5 F29 1_555 1_555
F30 P5 1_555 1_555
F31 P5 1_555 1_555
F32 P5 1_555 1_555
F33 P5 1_555 1_555
F34 P5 1_555 1_555
Ag3_2 N16 1_555 1_555
Ag4_2 N19 1_555 1_555
Ag4C N18 1_555 1_555
Ag5A N17 1_555 1_555
Ag5B N20 1_555 1_555
N16_2 Ag3 1_555 1_555
N17A Ag5 1_555 1_555
N18C Ag4 1_555 1_555
N19_2 Ag4 1_555 1_555
N20B Ag5 1_555 1_555
C1 N2 1_555 1_555
C3 C9 1_555 1_555
C4 N10 1_555 1_555
C4 C16 1_555 1_555
C7 C26 1_555 1_555
N9 C29 1_555 1_555
N10 C11 1_555 1_555
C8 N14 1_555 1_555
C10 N12 1_555 1_555
C12 N11 1_555 1_555
C14 C16 1_555 1_555
C14 C32 1_555 1_555
C15 C25 1_555 1_555
C19 C20 1_555 1_555
C19 C28 1_555 1_555
C22 C24 1_555 1_555
C26 C35 1_555 1_555
C27 C33 1_555 1_555
C30 N19 1_555 1_555
C31 C32 1_555 1_555
C39 N15 1_555 1_555
N16 C45 1_555 1_555
N17 C46 1_555 1_555
N18 C43 1_555 1_555
S2 O2 1_555 1_555
N20 C47 1_555 1_555

#END
