
#######################################################################
#
#                 Cambridge Crystallographic Data Centre
#                                CCDC 
#
#######################################################################
#
# If this CIF has been generated from an entry in the Cambridge 
# Structural Database, then it will include bibliographic, chemical, 
# crystal, experimental, refinement or atomic coordinate data resulting 
# from the CCDC's data processing and validation procedures.
#
#######################################################################

data_HUFKUQ
_symmetry_cell_setting           monoclinic
_symmetry_space_group_name_H-M   'C 2/m'
_symmetry_Int_Tables_number      12
_space_group_name_Hall           '-C 2y'
loop_
_symmetry_equiv_pos_site_id
_symmetry_equiv_pos_as_xyz
1 x,y,z
2 -x,y,-z
3 1/2+x,1/2+y,z
4 1/2-x,1/2+y,-z
5 -x,-y,-z
6 x,-y,z
7 1/2-x,1/2-y,-z
8 1/2+x,1/2-y,z
_cell_length_a                   26.682(2)
_cell_length_b                   39.630(3)
_cell_length_c                   17.0967(14)
_cell_angle_alpha                90
_cell_angle_beta                 100.9500(10)
_cell_angle_gamma                90
_cell_volume                     17749
loop_
_atom_site_label
_atom_site_type_symbol
_atom_site_fract_x
_atom_site_fract_y
_atom_site_fract_z
N6 N 0.1842(3) 0.1477(2) 1.1979(6)
C38 C 0.1701(4) 0.1314(3) 1.2546(7)
H32 H 0.1604 0.1437 1.2955
C39 C 0.2058(6) 0.1301(4) 1.1397(10)
H33 H 0.2022 0.1063 1.1466
H34 H 0.2414 0.1357 1.1459
H35 H 0.1885 0.1366 1.0874
C40 C 0.1863(4) 0.1841(3) 1.1975(7)
H36 H 0.1709 0.1928 1.2397
H37 H 0.1681 0.1924 1.1473
H38 H 0.2212 0.1913 1.2051
O12 O 0.1685(5) 0.0993(2) 1.2584(5)
N7 N 0.5705(13) 0.3376(9) 1.055(2)
C41 C 0.5425(11) 0.3394(7) 1.131(2)
C42 C 0.5939(17) 0.3557(11) 0.986(3)
C43 C 0.5712(12) 0.2997(8) 1.024(2)
O13 O 0.541(3) 0.3429(19) 1.222(3)
N8 N 0.129(2) 0.1789(14) 0.820(3)
C44 C 0.0909(9) 0.2071(6) 0.8069(15)
C45 C 0.1561(11) 0.1688(7) 0.7702(19)
O14 O 0.0902(8) 0.0000 0.6244(12)
O15 O 0.5639(19) 0.1720(11) 1.542(2)
Cd1 Cd 0.192916(19) 0.168787(13) 0.50422(3)
Cd2 Cd 0.2500 0.2500 1.5000
N1 N 0.1681(3) 0.11414(17) 0.5053(5)
N2 N 0.1565(4) 0.06066(18) 0.4727(5)
N3 N 0.1573(7) 0.0000 0.2276(8)
N4 N 0.0570(5) 0.2154(3) 0.5944(7)
C1 C 0.4380(2) 0.1882(2) 1.0785(4)
C2 C 0.4698(3) 0.1627(2) 1.0439(4)
H1 H 0.4912 0.1500 1.0862
H2 H 0.4480 0.1469 1.0098
C3 C 0.4719(3) 0.2165(2) 1.1242(4)
H3 H 0.4899 0.2286 1.0886
H4 H 0.4511 0.2325 1.1469
C4 C 0.4074(3) 0.17064(19) 1.1347(4)
H5 H 0.3834 0.1546 1.1055
H6 H 0.4301 0.1587 1.1767
C5 C 0.4023(3) 0.2065(2) 1.0107(4)
H7 H 0.3833 0.2240 1.0319
H8 H 0.4217 0.2167 0.9744
C6 C 0.5400(3) 0.2201(2) 1.2361(4)
C7 C 0.5432(3) 0.2555(2) 1.2270(5)
H9 H 0.5230 0.2664 1.1841
C8 C 0.5763(3) 0.2734(2) 1.2822(4)
H10 H 0.5783 0.2966 1.2755
C9 C 0.6069(3) 0.2589(2) 1.3470(4)
C10 C 0.6035(3) 0.2240(2) 1.3561(5)
H11 H 0.6233 0.2137 1.4003
C11 C 0.5709(3) 0.2041(2) 1.2999(5)
H12 H 0.5700 0.1808 1.3055
C12 C 0.6412(3) 0.2792(3) 1.4071(5)
C13 C 0.3547(3) 0.1887(2) 1.2265(4)
C14 C 0.3384(3) 0.2164(2) 1.2652(5)
H13 H 0.3456 0.2382 1.2508
C15 C 0.3118(3) 0.2107(2) 1.3247(5)
H14 H 0.3013 0.2291 1.3514
C16 C 0.2997(3) 0.17834(19) 1.3468(4)
C17 C 0.3158(3) 0.1522(2) 1.3069(5)
H15 H 0.3074 0.1305 1.3204
C18 C 0.3438(3) 0.1560(2) 1.2477(5)
H16 H 0.3550 0.1373 1.2228
C19 C 0.2691(3) 0.1731(2) 1.4110(4)
C20 C 0.3425(3) 0.1884(2) 0.8946(4)
C21 C 0.3390(3) 0.2193(2) 0.8596(4)
H17 H 0.3548 0.2378 0.8875
C22 C 0.3119(3) 0.2233(2) 0.7818(4)
H18 H 0.3102 0.2445 0.7579
C23 C 0.2875(3) 0.1963(2) 0.7399(4)
C24 C 0.2923(5) 0.1646(3) 0.7756(6)
H19 H 0.2793 0.1456 0.7469
C25 C 0.3166(4) 0.1617(3) 0.8540(6)
H20 H 0.3155 0.1412 0.8801
C26 C 0.2590(3) 0.2001(2) 0.6551(4)
C27 C 0.1773(4) 0.0909(2) 0.4570(5)
H21 H 0.1958 0.0942 0.4167
C28 C 0.1422(6) 0.0998(3) 0.5600(8)
H22 H 0.1331 0.1107 0.6034
C29 C 0.1321(6) 0.0660(3) 0.5385(9)
H23 H 0.1134 0.0505 0.5622
C30 C 0.1593(4) 0.0300(2) 0.4326(6)
C31 C 0.1594(5) 0.0307(2) 0.3513(6)
H24 H 0.1596 0.0513 0.3250
C32 C 0.1592(7) 0.0000 0.3086(10)
C33 C 0.1564(6) 0.0000 0.4737(8)
H25 H 0.1527 0.0000 0.5267
C34 C 0.1535(10) 0.0247(4) 0.1820(9)
C35 C 0.1019(5) 0.2059(4) 0.5804(7)
H26 H 0.1259 0.2230 0.5822
C36 C 0.0424(11) 0.2475(6) 0.6161(14)
H27 H 0.0079 0.2513 0.5890
H28 H 0.0436 0.2471 0.6726
C37 C 0.0202(9) 0.1817(7) 0.609(2)
H29 H 0.0342 0.1612 0.5917
H30 H 0.0192 0.1802 0.6644
H31 H -0.0137 0.1849 0.5788
O1 O 0.5000 0.1806(2) 1.0000
O2 O 0.50751(19) 0.19992(14) 1.1864(3)
O3 O 0.3809(2) 0.19678(15) 1.1672(3)
O4 O 0.3682(2) 0.18133(16) 0.9702(3)
O5 O 0.6430(2) 0.31058(17) 1.3941(3)
O6 O 0.66581(18) 0.26563(16) 1.4693(3)
O7 O 0.2623(2) 0.19707(14) 1.4556(3)
O8 O 0.2491(2) 0.14459(15) 1.4169(3)
O9 O 0.25910(19) 0.22814(13) 0.6232(3)
O10 O 0.2385(2) 0.17375(15) 0.6242(3)
O11 O 0.1172(3) 0.1759(2) 0.5643(5)
N5 N 0.1584(10) 0.0157(3) 0.1049(10)
N1E N 0.1681(3) -0.11414(17) 0.5053(5)
N2E N 0.1565(4) -0.06066(18) 0.4727(5)
C27E C 0.1773(4) -0.0909(2) 0.4570(5)
H21E H 0.1958 -0.0942 0.4167
C28E C 0.1422(6) -0.0998(3) 0.5600(8)
H22E H 0.1331 -0.1107 0.6034
C29E C 0.1321(6) -0.0660(3) 0.5385(9)
H23E H 0.1134 -0.0505 0.5622
C30E C 0.1593(4) -0.0300(2) 0.4326(6)
C31E C 0.1594(5) -0.0307(2) 0.3513(6)
H24E H 0.1596 -0.0513 0.3250
C34E C 0.1535(10) -0.0247(4) 0.1820(9)
N5E N 0.1584(10) -0.0157(3) 0.1049(10)
C1A C 0.5620(2) 0.1882(2) 0.9215(4)
C2A C 0.5302(3) 0.1627(2) 0.9561(4)
H1A H 0.5088 0.1500 0.9138
H2A H 0.5520 0.1469 0.9902
C3A C 0.5281(3) 0.2165(2) 0.8758(4)
H3A H 0.5101 0.2286 0.9114
H4A H 0.5489 0.2325 0.8531
C4A C 0.5926(3) 0.17064(19) 0.8653(4)
H5A H 0.6166 0.1546 0.8945
H6A H 0.5699 0.1587 0.8233
C5A C 0.5977(3) 0.2065(2) 0.9893(4)
H7A H 0.6167 0.2240 0.9681
H8A H 0.5783 0.2167 1.0256
C6A C 0.4600(3) 0.2201(2) 0.7639(4)
C7A C 0.4568(3) 0.2555(2) 0.7730(5)
H9A H 0.4770 0.2664 0.8159
C8A C 0.4237(3) 0.2734(2) 0.7178(4)
H10A H 0.4217 0.2966 0.7245
C9A C 0.3931(3) 0.2589(2) 0.6530(4)
C10A C 0.3965(3) 0.2240(2) 0.6439(5)
H11A H 0.3767 0.2137 0.5997
C11A C 0.4291(3) 0.2041(2) 0.7001(5)
H12A H 0.4300 0.1808 0.6945
C12A C 0.3588(3) 0.2792(3) 0.5929(5)
C13A C 0.6453(3) 0.1887(2) 0.7735(4)
C14A C 0.6616(3) 0.2164(2) 0.7348(5)
H13A H 0.6544 0.2382 0.7492
C15A C 0.6882(3) 0.2107(2) 0.6753(5)
H14A H 0.6987 0.2291 0.6486
C16A C 0.7003(3) 0.17834(19) 0.6532(4)
C17A C 0.6842(3) 0.1522(2) 0.6931(5)
H15A H 0.6926 0.1305 0.6796
C18A C 0.6562(3) 0.1560(2) 0.7523(5)
H16A H 0.6450 0.1373 0.7772
C19A C 0.7309(3) 0.1731(2) 0.5890(4)
C20A C 0.6575(3) 0.1884(2) 1.1054(4)
C21A C 0.6610(3) 0.2193(2) 1.1404(4)
H17A H 0.6452 0.2378 1.1125
C22A C 0.6881(3) 0.2233(2) 1.2182(4)
H18A H 0.6898 0.2445 1.2421
C23A C 0.7125(3) 0.1963(2) 1.2601(4)
C24A C 0.7077(5) 0.1646(3) 1.2244(6)
H19A H 0.7207 0.1456 1.2531
C25A C 0.6834(4) 0.1617(3) 1.1460(6)
H20A H 0.6845 0.1412 1.1199
C26A C 0.7410(3) 0.2001(2) 1.3449(4)
O2A O 0.49249(19) 0.19992(14) 0.8136(3)
O3A O 0.6191(2) 0.19678(15) 0.8328(3)
O4A O 0.6318(2) 0.18133(16) 1.0298(3)
O5A O 0.3570(2) 0.31058(17) 0.6059(3)
O6A O 0.33419(18) 0.26563(16) 0.5307(3)
O7A O 0.7377(2) 0.19707(14) 0.5444(3)
O8A O 0.7509(2) 0.14459(15) 0.5831(3)
O9A O 0.74090(19) 0.22814(13) 1.3768(3)
O10A O 0.7615(2) 0.17375(15) 1.3758(3)
Cd1A Cd 0.807084(19) 0.168787(13) 0.49578(3)
N4A N 0.9430(5) 0.2154(3) 0.4056(7)
C35A C 0.8981(5) 0.2059(4) 0.4196(7)
H26A H 0.8741 0.2230 0.4178
C36A C 0.9576(11) 0.2475(6) 0.3839(14)
H27A H 0.9921 0.2513 0.4110
H28A H 0.9564 0.2471 0.3274
C37A C 0.9798(9) 0.1817(7) 0.391(2)
H29A H 0.9658 0.1612 0.4083
H30A H 0.9808 0.1802 0.3356
H31A H 1.0137 0.1849 0.4212
O11A O 0.8828(3) 0.1759(2) 0.4357(5)
Cd1_2 Cd 0.192916(19) 0.168787(13) 1.50422(3)
Cd1A_2 Cd 0.807084(19) 0.168787(13) 1.49578(3)
Cd1E Cd 0.192916(19) -0.168787(13) 0.50422(3)
Cd1F Cd 0.307084(19) 0.331213(13) 0.49578(3)
Cd1G Cd 0.692916(19) 0.331213(13) 1.50422(3)
Cd2_2 Cd 0.2500 0.2500 0.5000
Cd2A Cd 0.7500 0.2500 0.5000
Cd2A_2 Cd 0.7500 0.2500 1.5000
N1A N 0.8319(3) 0.11414(17) 0.4947(5)
O5F O 0.8570(2) 0.18942(17) 0.6059(3)
O5G O 0.1430(2) 0.18942(17) 0.3941(3)
O6A_2 O 0.33419(18) 0.26563(16) 1.5307(3)
O6F O 0.83419(18) 0.23437(16) 0.5307(3)
O6G O 0.16581(18) 0.23437(16) 0.4693(3)
O6G_2 O 0.16581(18) 0.23437(16) 1.4693(3)
O7_2 O 0.2623(2) 0.19707(14) 0.4556(3)
O7F O 0.2377(2) 0.30293(14) 1.5444(3)
O8_2 O 0.2491(2) 0.14459(15) 0.4169(3)
O9_2 O 0.25910(19) 0.22814(13) 1.6232(3)
O9F O 0.24090(19) 0.27186(13) 1.3768(3)
O10A_2 O 0.7615(2) 0.17375(15) 0.3758(3)
N9? N 0.2674(7) 0.2304(5) 1.0605(12)
C46? C 0.2650(9) 0.2628(6) 1.0100(16)
loop_
_geom_bond_atom_site_label_1
_geom_bond_atom_site_label_2
_geom_bond_site_symmetry_1
_geom_bond_site_symmetry_2
Cd1 N1 1_555 1_555
Cd2 O7 1_555 1_555
N1 C27 1_555 1_555
N2 C27 1_555 1_555
N3 C32 1_555 1_555
N4 C35 1_555 1_555
C1 C2 1_555 1_555
C2 H1 1_555 1_555
H2 C2 1_555 1_555
C3 C1 1_555 1_555
H3 C3 1_555 1_555
H4 C3 1_555 1_555
C4 C1 1_555 1_555
H5 C4 1_555 1_555
H6 C4 1_555 1_555
C5 C1 1_555 1_555
H7 C5 1_555 1_555
H8 C5 1_555 1_555
C6 C7 1_555 1_555
C7 H9 1_555 1_555
C8 C7 1_555 1_555
H10 C8 1_555 1_555
C9 C8 1_555 1_555
C10 C9 1_555 1_555
H11 C10 1_555 1_555
C11 C6 1_555 1_555
H12 C11 1_555 1_555
C12 C9 1_555 1_555
C13 C14 1_555 1_555
C14 H13 1_555 1_555
C15 C14 1_555 1_555
H14 C15 1_555 1_555
C16 C15 1_555 1_555
C17 C16 1_555 1_555
H15 C17 1_555 1_555
C18 C13 1_555 1_555
H16 C18 1_555 1_555
C19 C16 1_555 1_555
C20 C21 1_555 1_555
C21 H17 1_555 1_555
C22 C21 1_555 1_555
H18 C22 1_555 1_555
C23 C22 1_555 1_555
C24 C23 1_555 1_555
H19 C24 1_555 1_555
C25 C20 1_555 1_555
H20 C25 1_555 1_555
C26 C23 1_555 1_555
C27 H21 1_555 1_555
C28 N1 1_555 1_555
H22 C28 1_555 1_555
C29 N2 1_555 1_555
H23 C29 1_555 1_555
C30 N2 1_555 1_555
C31 C30 1_555 1_555
H24 C31 1_555 1_555
C32 C31 1_555 1_555
C33 C30 1_555 1_555
H25 C33 1_555 1_555
C34 N3 1_555 1_555
C35 H26 1_555 1_555
C36 N4 1_555 1_555
H27 C36 1_555 1_555
H28 C36 1_555 1_555
C37 N4 1_555 1_555
H29 C37 1_555 1_555
H30 C37 1_555 1_555
H31 C37 1_555 1_555
O1 C2 1_555 1_555
O2 C3 1_555 1_555
O3 C4 1_555 1_555
O4 C5 1_555 1_555
O5 C12 1_555 1_555
O6 C12 1_555 1_555
O7 C19 1_555 1_555
O8 C19 1_555 1_555
O9 C26 1_555 1_555
O10 Cd1 1_555 1_555
O11 Cd1 1_555 1_555
N5 C34 1_555 1_555
N6 C38 1_555 1_555
C38 H32 1_555 1_555
C39 N6 1_555 1_555
H33 C39 1_555 1_555
H34 C39 1_555 1_555
H35 C39 1_555 1_555
C40 N6 1_555 1_555
H36 C40 1_555 1_555
H37 C40 1_555 1_555
H38 C40 1_555 1_555
O12 C38 1_555 1_555
N7 C41 1_555 1_555
C41 O13 1_555 1_555
C42 N7 1_555 1_555
C43 N7 1_555 1_555
N8 C44 1_555 1_555
C45 N8 1_555 1_555
N1E C27E 1_555 1_555
N2E C27E 1_555 1_555
C27E H21E 1_555 1_555
C28E N1E 1_555 1_555
H22E C28E 1_555 1_555
C29E N2E 1_555 1_555
H23E C29E 1_555 1_555
C30E C33 1_555 1_555
C31E C32 1_555 1_555
H24E C31E 1_555 1_555
C34E N3 1_555 1_555
N5E N5 1_555 1_555
C1A C2A 1_555 1_555
C2A O1 1_555 1_555
H1A C2A 1_555 1_555
H2A C2A 1_555 1_555
C3A C1A 1_555 1_555
H3A C3A 1_555 1_555
H4A C3A 1_555 1_555
C4A C1A 1_555 1_555
H5A C4A 1_555 1_555
H6A C4A 1_555 1_555
C5A C1A 1_555 1_555
H7A C5A 1_555 1_555
H8A C5A 1_555 1_555
C6A C7A 1_555 1_555
C7A H9A 1_555 1_555
C8A C7A 1_555 1_555
H10A C8A 1_555 1_555
C9A C8A 1_555 1_555
C10A C9A 1_555 1_555
H11A C10A 1_555 1_555
C11A C6A 1_555 1_555
H12A C11A 1_555 1_555
C12A C9A 1_555 1_555
C13A C14A 1_555 1_555
C14A H13A 1_555 1_555
C15A C14A 1_555 1_555
H14A C15A 1_555 1_555
C16A C15A 1_555 1_555
C17A C16A 1_555 1_555
H15A C17A 1_555 1_555
C18A C13A 1_555 1_555
H16A C18A 1_555 1_555
C19A C16A 1_555 1_555
C20A C21A 1_555 1_555
C21A H17A 1_555 1_555
C22A C21A 1_555 1_555
H18A C22A 1_555 1_555
C23A C22A 1_555 1_555
C24A C23A 1_555 1_555
H19A C24A 1_555 1_555
C25A C20A 1_555 1_555
H20A C25A 1_555 1_555
C26A C23A 1_555 1_555
O2A C3A 1_555 1_555
O3A C4A 1_555 1_555
O4A C5A 1_555 1_555
O5A C12A 1_555 1_555
O6A C12A 1_555 1_555
O7A C19A 1_555 1_555
O8A C19A 1_555 1_555
O9A C26A 1_555 1_555
O10A C26A 1_555 1_555
Cd1A O7A 1_555 1_555
N4A C35A 1_555 1_555
C35A H26A 1_555 1_555
C36A N4A 1_555 1_555
H27A C36A 1_555 1_555
H28A C36A 1_555 1_555
C37A N4A 1_555 1_555
H29A C37A 1_555 1_555
H30A C37A 1_555 1_555
H31A C37A 1_555 1_555
O11A Cd1A 1_555 1_555
Cd1_2 O7 1_555 1_555
Cd1A_2 O10A 1_555 1_555
Cd1E N1E 1_555 1_555
Cd1F O5A 1_555 1_555
Cd1G O5 1_555 1_555
Cd2_2 O9 1_555 1_555
Cd2A O7A 1_555 1_555
Cd2A_2 O6 1_555 1_555
N1A Cd1A 1_555 1_555
O5F Cd1A 1_555 1_555
O5G Cd1 1_555 1_555
O6A_2 Cd2 1_555 1_555
O6F Cd1A 1_555 1_555
O6G Cd1 1_555 1_555
O6G_2 Cd2 1_555 1_555
O7_2 Cd1 1_555 1_555
O7F Cd2 1_555 1_555
O8_2 Cd1 1_555 1_555
O9_2 Cd2 1_555 1_555
O9F Cd2 1_555 1_555
O10A_2 Cd1A 1_555 1_555
C6 O2 1_555 1_555
C10 C11 1_555 1_555
C13 O3 1_555 1_555
C17 C18 1_555 1_555
C20 O4 1_555 1_555
C24 C25 1_555 1_555
C26 O10 1_555 1_555
C28 C29 1_555 1_555
C35 O11 1_555 1_555
O6 Cd1G 1_555 1_555
O8 Cd1_2 1_555 1_555
N2E C30E 1_555 1_555
C28E C29E 1_555 1_555
C30E C31E 1_555 1_555
C34E N5E 1_555 1_555
C6A O2A 1_555 1_555
C10A C11A 1_555 1_555
C13A O3A 1_555 1_555
C17A C18A 1_555 1_555
C20A O4A 1_555 1_555
C24A C25A 1_555 1_555
O6A Cd1F 1_555 1_555
O6A Cd2_2 1_555 1_555
O8A Cd1A 1_555 1_555
O9A Cd2A_2 1_555 1_555
C35A O11A 1_555 1_555
Cd1_2 O6G_2 1_555 1_555
Cd2_2 O6G 1_555 1_555
Cd2_2 O7_2 1_555 1_555
Cd2A O6F 1_555 1_555

#END
