
#######################################################################
#
#                 Cambridge Crystallographic Data Centre
#                                CCDC 
#
#######################################################################
#
# If this CIF has been generated from an entry in the Cambridge 
# Structural Database, then it will include bibliographic, chemical, 
# crystal, experimental, refinement or atomic coordinate data resulting 
# from the CCDC's data processing and validation procedures.
#
#######################################################################

data_HUHJAW
_symmetry_cell_setting           monoclinic
_symmetry_space_group_name_H-M   'C 2/m'
_symmetry_Int_Tables_number      12
_space_group_name_Hall           '-C 2y'
loop_
_symmetry_equiv_pos_site_id
_symmetry_equiv_pos_as_xyz
1 x,y,z
2 -x,y,-z
3 1/2+x,1/2+y,z
4 1/2-x,1/2+y,-z
5 -x,-y,-z
6 x,-y,z
7 1/2-x,1/2-y,-z
8 1/2+x,1/2-y,z
_cell_length_a                   7.8724(16)
_cell_length_b                   17.206(3)
_cell_length_c                   9.2884(19)
_cell_angle_alpha                90
_cell_angle_beta                 98.10(3)
_cell_angle_gamma                90
_cell_volume                     1245.59
loop_
_atom_site_label
_atom_site_type_symbol
_atom_site_fract_x
_atom_site_fract_y
_atom_site_fract_z
N1 N 0.5539(4) 0.1766(2) 0.3363(4)
Cd1 Cd 0.2500 0.2500 0.5000
Cd2 Cd 0.5000 0.0000 0.0000
N2 N 0.6005(5) 0.1258(2) 0.2452(4)
N3 N 0.4578(5) 0.0965(2) 0.1663(4)
N4 N 0.3800(4) 0.1820(2) 0.3196(4)
Cl1 Cl 0.0000 0.14903(8) 0.5000
C1 C 0.3246(6) 0.1314(2) 0.2134(4)
C2 C 0.1413(6) 0.1210(3) 0.1479(5)
H1 H 0.0676 0.1244 0.2230
H2 H 0.1257 0.0703 0.1026
C3 C 0.0936(6) 0.1849(3) 0.0337(5)
H3 H 0.1206 0.2350 0.0789
H4 H 0.1641 0.1787 -0.0431
O2 O 0.2161(6) 0.0000 -0.1388(5)
H7 H 0.220(6) 0.037(3) -0.191(5)
N1A N -0.5539(4) 0.1766(2) -0.3363(4)
N1A_2 N 0.4461(4) 0.1766(2) -0.3363(4)
N1_2 N 1.5539(4) 0.1766(2) 0.3363(4)
N1A_3 N 0.4461(4) 0.1766(2) 0.6637(4)
N1G N 0.0539(4) 0.3234(2) 0.3363(4)
N1_3 N -0.4461(4) 0.1766(2) -0.6637(4)
N1F N -0.0539(4) 0.3234(2) -0.3363(4)
Cd1A Cd -0.2500 0.2500 -0.5000
Cd1A_2 Cd 0.7500 0.2500 0.5000
Cd1A_3 Cd -0.2500 0.2500 0.5000
Cd1_2 Cd -0.7500 0.2500 -0.5000
Cd1_3 Cd 0.2500 0.2500 -0.5000
Cd1A_4 Cd 0.7500 0.2500 -0.5000
Cd1A_5 Cd 1.7500 0.2500 0.5000
Cd1_4 Cd 1.2500 0.2500 0.5000
Cd2_2 Cd -0.5000 0.0000 0.0000
Cd2_3 Cd 1.5000 0.0000 0.0000
N2A N -0.6005(5) 0.1258(2) -0.2452(4)
N2A_2 N 0.3995(5) 0.1258(2) -0.2452(4)
N2_2 N 1.6005(5) 0.1258(2) 0.2452(4)
N3A N -0.4578(5) 0.0965(2) -0.1663(4)
N3A_2 N 0.5422(5) 0.0965(2) -0.1663(4)
N3_2 N 1.4578(5) 0.0965(2) 0.1663(4)
N3D N 0.5422(5) -0.0965(2) -0.1663(4)
N3E N 0.4578(5) -0.0965(2) 0.1663(4)
N4A N -0.3800(4) 0.1820(2) -0.3196(4)
N4A_2 N 0.6200(4) 0.1820(2) -0.3196(4)
N4_2 N 1.3800(4) 0.1820(2) 0.3196(4)
N4F N 0.1200(4) 0.3180(2) 0.6804(4)
N4G N -0.1200(4) 0.3180(2) -0.6804(4)
Cl1F Cl 0.5000 0.35097(8) 0.5000
Cl1_2 Cl 0.0000 0.14903(8) -0.5000
Cl1F_2 Cl -0.5000 0.35097(8) -0.5000
C1A C -0.3246(6) 0.1314(2) -0.2134(4)
C1A_2 C 0.6754(6) 0.1314(2) -0.2134(4)
C1_2 C 1.3246(6) 0.1314(2) 0.2134(4)
C2A C -0.1413(6) 0.1210(3) -0.1479(5)
C2A_2 C 0.8587(6) 0.1210(3) -0.1479(5)
C2_2 C 1.1413(6) 0.1210(3) 0.1479(5)
H1A H -0.0676 0.1244 -0.2230
H1A_2 H 0.9324 0.1244 -0.2230
H1_2 H 1.0676 0.1244 0.2230
H2A H -0.1257 0.0703 -0.1026
H2A_2 H 0.8743 0.0703 -0.1026
H2_2 H 1.1257 0.0703 0.1026
C3A C -0.0936(6) 0.1849(3) -0.0337(5)
C3A_2 C 0.9064(6) 0.1849(3) -0.0337(5)
C3_2 C 1.0936(6) 0.1849(3) 0.0337(5)
H3A H -0.1206 0.2350 -0.0789
H3A_2 H 0.8794 0.2350 -0.0789
H3_2 H 1.1206 0.2350 0.0789
H4A H -0.1641 0.1787 0.0431
H4A_2 H 0.8359 0.1787 0.0431
H4_2 H 1.1641 0.1787 -0.0431
O2A O 0.7839(6) 0.0000 0.1388(5)
H7E H 0.220(6) -0.037(3) -0.191(5)
H7A H 0.780(6) 0.037(3) 0.191(5)
H7D H 0.780(6) -0.037(3) 0.191(5)
O1 O 0.300(4) 0.0000 0.465(2)
H5 H 0.2763 0.0000 0.3726
H6 H 0.4093 0.0000 0.4755
loop_
_geom_bond_atom_site_label_1
_geom_bond_atom_site_label_2
_geom_bond_site_symmetry_1
_geom_bond_site_symmetry_2
N1 N2 1_555 1_555
Cd1 N4 1_555 1_555
Cd2 N3 1_555 1_555
N2 N3 1_555 1_555
N3 C1 1_555 1_555
N4 N1 1_555 1_555
Cl1 Cd1 1_555 1_555
C1 N4 1_555 1_555
C2 C1 1_555 1_555
H1 C2 1_555 1_555
H2 C2 1_555 1_555
C3 C2 1_555 1_555
H3 C3 1_555 1_555
H4 C3 1_555 1_555
O1 H5 1_555 1_555
H6 O1 1_555 1_555
O2 Cd2 1_555 1_555
H7 O2 1_555 1_555
N1A Cd1_2 1_555 1_555
N1A_2 Cd1_3 1_555 1_555
N1_2 Cd1A_5 1_555 1_555
N1A_3 Cd1 1_555 1_555
N1G Cd1 1_555 1_555
N1_3 Cd1A 1_555 1_555
N1F Cd1A 1_555 1_555
Cd1A N4A 1_555 1_555
Cd1A_2 N1 1_555 1_555
Cd1A_3 Cl1 1_555 1_555
Cd1_2 Cl1F_2 1_555 1_555
Cd1_3 Cl1_2 1_555 1_555
Cd1A_4 N4A_2 1_555 1_555
Cd1_4 N4_2 1_555 1_555
Cd2_2 N3A 1_555 1_555
Cd2_3 N3_2 1_555 1_555
N2A N1A 1_555 1_555
N2A_2 N1A_2 1_555 1_555
N2_2 N1_2 1_555 1_555
N3A N2A 1_555 1_555
N3A_2 Cd2 1_555 1_555
N3_2 N2_2 1_555 1_555
N3D Cd2 1_555 1_555
N3E Cd2 1_555 1_555
N4A N1A 1_555 1_555
N4A_2 N1A_2 1_555 1_555
N4_2 N1_2 1_555 1_555
N4F Cd1 1_555 1_555
N4G Cd1A 1_555 1_555
Cl1F Cd1 1_555 1_555
Cl1_2 Cd1A 1_555 1_555
Cl1F_2 Cd1A 1_555 1_555
C1A N3A 1_555 1_555
C1A_2 N3A_2 1_555 1_555
C1_2 N3_2 1_555 1_555
C2A C1A 1_555 1_555
C2A_2 C1A_2 1_555 1_555
C2_2 C1_2 1_555 1_555
H1A C2A 1_555 1_555
H1A_2 C2A_2 1_555 1_555
H1_2 C2_2 1_555 1_555
H2A C2A 1_555 1_555
H2A_2 C2A_2 1_555 1_555
H2_2 C2_2 1_555 1_555
C3A C3 1_555 1_555
C3A_2 C2A_2 1_555 1_555
C3_2 C2_2 1_555 1_555
H3A C3A 1_555 1_555
H3A_2 C3A_2 1_555 1_555
H3_2 C3_2 1_555 1_555
H4A C3A 1_555 1_555
H4A_2 C3A_2 1_555 1_555
H4_2 C3_2 1_555 1_555
O2A Cd2 1_555 1_555
H7E O2 1_555 1_555
H7A O2A 1_555 1_555
H7D O2A 1_555 1_555
Cd1A_2 Cl1F 1_555 1_555
N2A_2 N3A_2 1_555 1_555
N4A C1A 1_555 1_555
N4A_2 C1A_2 1_555 1_555
N4_2 C1_2 1_555 1_555
C2A C3A 1_555 1_555
C3A_2 C3_2 1_555 1_555

#END
