
#######################################################################
#
#                 Cambridge Crystallographic Data Centre
#                                CCDC 
#
#######################################################################
#
# If this CIF has been generated from an entry in the Cambridge 
# Structural Database, then it will include bibliographic, chemical, 
# crystal, experimental, refinement or atomic coordinate data resulting 
# from the CCDC's data processing and validation procedures.
#
#######################################################################

data_HUYXOP
_symmetry_cell_setting           monoclinic
_symmetry_space_group_name_H-M   'P 21/c'
_symmetry_Int_Tables_number      14
_space_group_name_Hall           '-P 2ybc'
loop_
_symmetry_equiv_pos_site_id
_symmetry_equiv_pos_as_xyz
1 x,y,z
2 -x,1/2+y,1/2-z
3 -x,-y,-z
4 x,1/2-y,1/2+z
_cell_length_a                   17.980(4)
_cell_length_b                   11.711(2)
_cell_length_c                   19.921(4)
_cell_angle_alpha                90
_cell_angle_beta                 110.97(3)
_cell_angle_gamma                90
_cell_volume                     3916.82
loop_
_atom_site_label
_atom_site_type_symbol
_atom_site_fract_x
_atom_site_fract_y
_atom_site_fract_z
C1 C 0.0274(4) 0.2193(7) 0.2487(4)
C2 C 0.0323(5) 0.2880(7) 0.1921(5)
H1 H -0.0110 0.3337 0.1668
C3 C -0.0451(4) 0.3844(7) 0.4366(4)
C4 C -0.0574(5) 0.2994(8) 0.4801(5)
H2 H -0.0171 0.2465 0.5006
O1 O 0.4836(5) 0.2192(9) 0.4572(5)
O2 O 0.5084(4) 0.3333(6) 0.2059(4)
C5 C 0.4906(5) 0.1303(11) 0.0999(5)
H3 H 0.4933 0.2089 0.0943
C6 C 0.4836(7) 0.1872(12) 0.4003(8)
H4 H 0.4802 0.1090 0.3914
C7 C 0.5040(6) 0.4229(10) 0.2306(7)
H5 H 0.4792 0.4261 0.2642
C8 C 0.3206(5) 0.3888(10) 0.4244(5)
H6 H 0.3316 0.3601 0.4705
C9 C 0.3354(5) 0.4503(8) 0.3285(5)
H7 H 0.3589 0.4714 0.2956
C10 C 0.2554(5) 0.4560(8) 0.3169(5)
H8 H 0.2152 0.4821 0.2757
C11 C 0.1735(4) 0.4087(7) 0.3937(4)
C12 C 0.1638(5) 0.3234(9) 0.4373(5)
H9 H 0.2039 0.2699 0.4570
C13 C 0.0928(5) 0.3172(9) 0.4522(5)
H10 H 0.0875 0.2611 0.4832
C14 C 0.0303(4) 0.3938(7) 0.4210(4)
C15 C 0.0416(5) 0.4767(8) 0.3764(5)
H11 H 0.0011 0.5292 0.3553
C16 C 0.1128(5) 0.4845(8) 0.3617(4)
H12 H 0.1184 0.5403 0.3306
C17 C -0.1084(5) 0.4620(9) 0.4083(6)
H13 H -0.1036 0.5202 0.3784
C18 C -0.3321(5) 0.3952(10) 0.4492(5)
H14 H -0.3457 0.4356 0.4063
C19 C -0.3395(5) 0.3077(10) 0.5412(5)
H15 H -0.3596 0.2757 0.5739
C20 C -0.2630(5) 0.3022(9) 0.5455(5)
H16 H -0.2211 0.2675 0.5818
C21 C -0.1867(5) 0.3676(8) 0.4671(4)
C22 C -0.1268(5) 0.2898(8) 0.4944(5)
H17 H -0.1329 0.2301 0.5227
C23 C -0.1779(6) 0.4547(10) 0.4233(6)
H18 H -0.2183 0.5079 0.4041
C24 C 0.3103(5) 0.1873(9) 0.2333(5)
H19 H 0.3212 0.1465 0.2758
C25 C 0.3243(5) 0.2734(9) 0.1423(5)
H20 H 0.3470 0.3024 0.1107
C26 C 0.2465(5) 0.2847(8) 0.1350(5)
H21 H 0.2072 0.3225 0.0980
C27 C 0.1664(5) 0.2242(8) 0.2109(4)
C28 C 0.0993(5) 0.2898(8) 0.1729(5)
H22 H 0.0996 0.3348 0.1345
C29 C 0.1631(5) 0.1564(9) 0.2670(5)
H23 H 0.2069 0.1123 0.2933
C30 C -0.3349(5) 0.2058(7) 0.2705(4)
H24 H -0.3460 0.2504 0.2295
C31 C -0.3473(5) 0.1072(8) 0.3575(5)
H25 H -0.3698 0.0721 0.3875
C32 C -0.2690(5) 0.1078(9) 0.3686(5)
H26 H -0.2288 0.0722 0.4058
C33 C -0.1875(5) 0.1896(7) 0.2989(4)
C34 C -0.1819(5) 0.2745(8) 0.2513(5)
H27 H -0.2245 0.3234 0.2295
C35 C -0.1118(5) 0.2849(8) 0.2369(5)
H28 H -0.1086 0.3415 0.2053
C36 C -0.0461(4) 0.2138(7) 0.2681(4)
C37 C -0.0533(5) 0.1315(8) 0.3163(4)
H29 H -0.0105 0.0832 0.3386
C38 C -0.1223(5) 0.1193(8) 0.3321(5)
H30 H -0.1248 0.0641 0.3648
C39 C 0.0949(5) 0.1544(9) 0.2837(5)
H31 H 0.0941 0.1067 0.3207
N1 N 0.3751(4) 0.4083(8) 0.3963(4)
N2 N 0.2465(4) 0.4153(6) 0.3787(3)
N3 N -0.3833(4) 0.3689(8) 0.4802(4)
N4 N -0.2584(4) 0.3578(7) 0.4857(4)
N5 N 0.3643(4) 0.2122(6) 0.2039(4)
N6 N 0.2365(4) 0.2295(6) 0.1929(3)
N7 N -0.3902(4) 0.1663(7) 0.2948(4)
N8 N -0.2602(4) 0.1728(6) 0.3130(3)
Ni1 Ni 0.48692(6) 0.18400(11) 0.24903(6)
Ni2 Ni 0.49615(7) 0.39063(15) 0.44726(7)
O3 O 0.4922(4) 0.0689(7) 0.0488(3)
O4 O 0.4859(4) 0.0962(6) 0.1569(3)
O5 O 0.5319(4) 0.5208(7) 0.2143(4)
O6 O 0.4884(4) 0.2570(7) 0.3481(4)
N3_2 N 0.6167(4) 0.3689(8) 0.4802(4)
N7_2 N 0.6098(4) 0.1663(7) 0.2948(4)
Ni1_2 Ni -0.51308(6) 0.18400(11) 0.24903(6)
Ni1A Ni 0.51308(6) 0.68400(11) 0.25097(6)
Ni2_2 Ni -0.50385(7) 0.39063(15) 0.44726(7)
Ni2A Ni 0.50385(7) -0.10937(15) 0.05274(7)
Ni2C Ni 0.49615(7) 0.10937(15) -0.05274(7)
O3A O 0.5078(4) 0.5689(7) 0.4512(3)
O3C O 0.4922(4) 0.4311(7) 0.5488(3)
O5A O 0.4681(4) 0.0208(7) 0.2857(4)
O7 O 0.3504(6) 0.9226(10) 0.3414(6)
H32 H 0.4007 0.9204 0.3577
H33 H 0.3255 0.9563 0.3643
O8 O 0.5728(12) 0.9240(17) 0.4610(13)
H34 H 0.6173 0.8924 0.4818
H35 H 0.5339 0.8828 0.4587
O9 O 0.1872(9) 0.439(2) 0.9966(13)
O10 O 0.0873(11) 0.5399(17) 0.9267(8)
O11 O 0.0770(7) 0.4510(11) 1.0209(5)
N9 N 0.1162(7) 0.4755(12) 0.9813(8)
O12 O 0.3052(13) 0.442(2) 0.9313(13)
N10? N 0.2034(8) 0.5086(12) 0.9349(6)
O13? O 0.2370(10) 0.4448(12) 0.9886(6)
O14? O 0.1325(8) 0.5441(11) 0.9216(6)
O15? O 0.2382(10) 0.5318(17) 0.8913(9)
loop_
_geom_bond_atom_site_label_1
_geom_bond_atom_site_label_2
_geom_bond_site_symmetry_1
_geom_bond_site_symmetry_2
C1 C2 1_555 1_555
C2 H1 1_555 1_555
C3 C4 1_555 1_555
C4 H2 1_555 1_555
O1 C6 1_555 1_555
O2 C7 1_555 1_555
C5 H3 1_555 1_555
C6 H4 1_555 1_555
C7 H5 1_555 1_555
C8 H6 1_555 1_555
C9 H7 1_555 1_555
C10 C9 1_555 1_555
H8 C10 1_555 1_555
C11 C12 1_555 1_555
C12 H9 1_555 1_555
C13 C12 1_555 1_555
H10 C13 1_555 1_555
C14 C3 1_555 1_555
C15 C14 1_555 1_555
H11 C15 1_555 1_555
C16 C11 1_555 1_555
H12 C16 1_555 1_555
C17 C3 1_555 1_555
H13 C17 1_555 1_555
C18 H14 1_555 1_555
C19 H15 1_555 1_555
C20 C19 1_555 1_555
H16 C20 1_555 1_555
C21 C22 1_555 1_555
C22 C4 1_555 1_555
H17 C22 1_555 1_555
C23 C17 1_555 1_555
H18 C23 1_555 1_555
C24 H19 1_555 1_555
C25 H20 1_555 1_555
C26 C25 1_555 1_555
H21 C26 1_555 1_555
C27 C28 1_555 1_555
C28 C2 1_555 1_555
H22 C28 1_555 1_555
C29 C27 1_555 1_555
H23 C29 1_555 1_555
C30 H24 1_555 1_555
C31 H25 1_555 1_555
C32 C31 1_555 1_555
H26 C32 1_555 1_555
C33 C34 1_555 1_555
C34 H27 1_555 1_555
C35 C34 1_555 1_555
H28 C35 1_555 1_555
C36 C1 1_555 1_555
C37 C36 1_555 1_555
H29 C37 1_555 1_555
C38 C33 1_555 1_555
H30 C38 1_555 1_555
C39 C1 1_555 1_555
H31 C39 1_555 1_555
N1 C8 1_555 1_555
N2 C8 1_555 1_555
N3 C18 1_555 1_555
N4 C18 1_555 1_555
N5 C24 1_555 1_555
N6 C24 1_555 1_555
N7 C30 1_555 1_555
N8 C30 1_555 1_555
Ni1 O2 1_555 1_555
Ni2 O1 1_555 1_555
O3 C5 1_555 1_555
O4 C5 1_555 1_555
O5 C7 1_555 1_555
O6 C6 1_555 1_555
O7 H32 1_555 1_555
O8 H34 1_555 1_555
O9 N9 1_555 1_555
O10 N9 1_555 1_555
O11 N9 1_555 1_555
H33 O7 1_555 1_555
H35 O8 1_555 1_555
N3_2 Ni2 1_555 1_555
N7_2 Ni1 1_555 1_555
Ni1_2 N7 1_555 1_555
Ni1A O5 1_555 1_555
Ni2_2 N3 1_555 1_555
Ni2A O3 1_555 1_555
Ni2C O3 1_555 1_555
O3A Ni2 1_555 1_555
O3C Ni2 1_555 1_555
O5A Ni1 1_555 1_555
C9 N1 1_555 1_555
C10 N2 1_555 1_555
C11 N2 1_555 1_555
C13 C14 1_555 1_555
C15 C16 1_555 1_555
C19 N3 1_555 1_555
C20 N4 1_555 1_555
C21 C23 1_555 1_555
C21 N4 1_555 1_555
C25 N5 1_555 1_555
C26 N6 1_555 1_555
C27 N6 1_555 1_555
C29 C39 1_555 1_555
C31 N7 1_555 1_555
C32 N8 1_555 1_555
C33 N8 1_555 1_555
C35 C36 1_555 1_555
C37 C38 1_555 1_555
N1 Ni2 1_555 1_555
N5 Ni1 1_555 1_555
Ni1 O4 1_555 1_555
Ni1 O6 1_555 1_555

#END
