
#######################################################################
#
#                 Cambridge Crystallographic Data Centre
#                                CCDC 
#
#######################################################################
#
# If this CIF has been generated from an entry in the Cambridge 
# Structural Database, then it will include bibliographic, chemical, 
# crystal, experimental, refinement or atomic coordinate data resulting 
# from the CCDC's data processing and validation procedures.
#
#######################################################################

data_IBICUT
_symmetry_cell_setting           hexagonal
_symmetry_space_group_name_H-M   'P 61'
_symmetry_Int_Tables_number      169
_space_group_name_Hall           'P 61'
loop_
_symmetry_equiv_pos_site_id
_symmetry_equiv_pos_as_xyz
1 x,y,z
2 x-y,x,1/6+z
3 -y,x-y,1/3+z
4 -x,-y,1/2+z
5 -x+y,-x,2/3+z
6 y,-x+y,5/6+z
_cell_length_a                   17.7661(15)
_cell_length_b                   17.7661(15)
_cell_length_c                   10.5104(16)
_cell_angle_alpha                90
_cell_angle_beta                 90
_cell_angle_gamma                120
_cell_volume                     2872.99
loop_
_atom_site_label
_atom_site_type_symbol
_atom_site_fract_x
_atom_site_fract_y
_atom_site_fract_z
Zn1 Zn 0.54374(5) 0.47053(5) 0.36838(8)
Cl1 Cl 0.46003(19) 0.32803(15) 0.3602(3)
O1 O 0.4251(4) 0.5152(4) 0.6726(5)
O2 O 0.5168(3) 0.4891(3) 0.5651(4)
N1 N 0.5187(4) 0.8447(4) 0.2419(5)
N2 N 0.5064(3) 0.5652(3) 0.3497(5)
H1 H 0.4747 0.5539 0.2770
C1 C 0.5051(5) 0.7831(6) 0.1583(8)
H2 H 0.4792 0.7815 0.0807
C2 C 0.5561(4) 0.8478(5) 0.3510(7)
H3 H 0.5668 0.8921 0.4079
C3 C 0.5799(5) 0.7877(5) 0.3841(8)
H4 H 0.6051 0.7912 0.4630
C4 C 0.4501(4) 0.5612(5) 0.4591(7)
H5 H 0.4696 0.6214 0.4834
C5 C 0.4667(4) 0.5183(4) 0.5751(6)
C6 C 0.3547(5) 0.5202(5) 0.4263(7)
H6 H 0.3248 0.5182 0.5057
C7 C 0.3183(6) 0.4275(7) 0.3847(10)
H7 H 0.3474 0.4259 0.3087
H8 H 0.2573 0.4022 0.3680
H9 H 0.3271 0.3954 0.4507
C8 C 0.5665(5) 0.7214(5) 0.3000(7)
C9 C 0.5865(5) 0.6506(4) 0.3348(7)
H10 H 0.6225 0.6463 0.2689
H11 H 0.6191 0.6658 0.4138
C10 C 0.3353(6) 0.5752(7) 0.3323(9)
H12 H 0.3647 0.6347 0.3598
H13 H 0.2738 0.5536 0.3297
H14 H 0.3553 0.5716 0.2490
C11 C 0.5284(5) 0.7217(7) 0.1842(8)
H15 H 0.5186 0.6797 0.1235
Zn1C Zn 0.45626(5) 0.52947(5) 0.86838(8)
Zn1E Zn 0.47053(5) 0.92679(7) 0.20171(8)
O1C O 0.5749(4) 0.4848(4) 0.1726(5)
N1A N 0.6740(6) 0.5187(4) 0.4086(5)
loop_
_geom_bond_atom_site_label_1
_geom_bond_atom_site_label_2
_geom_bond_site_symmetry_1
_geom_bond_site_symmetry_2
Zn1 Cl1 1_555 1_555
O1 C5 1_555 1_555
O2 Zn1 1_555 1_555
N1 C1 1_555 1_555
N2 Zn1 1_555 1_555
H1 N2 1_555 1_555
C1 H2 1_555 1_555
C2 N1 1_555 1_555
H3 C2 1_555 1_555
C3 C2 1_555 1_555
H4 C3 1_555 1_555
C4 N2 1_555 1_555
H5 C4 1_555 1_555
C5 O2 1_555 1_555
C6 C4 1_555 1_555
H6 C6 1_555 1_555
C7 C6 1_555 1_555
H7 C7 1_555 1_555
H8 C7 1_555 1_555
H9 C7 1_555 1_555
C8 C3 1_555 1_555
C9 N2 1_555 1_555
H10 C9 1_555 1_555
H11 C9 1_555 1_555
C10 C6 1_555 1_555
H12 C10 1_555 1_555
H13 C10 1_555 1_555
H14 C10 1_555 1_555
C11 C1 1_555 1_555
H15 C11 1_555 1_555
Zn1C O1 1_555 1_555
Zn1E N1 1_555 1_555
O1C Zn1 1_555 1_555
N1A Zn1 1_555 1_555
C4 C5 1_555 1_555
C8 C9 1_555 1_555
C8 C11 1_555 1_555

#END
