
#######################################################################
#
#                 Cambridge Crystallographic Data Centre
#                                CCDC 
#
#######################################################################
#
# If this CIF has been generated from an entry in the Cambridge 
# Structural Database, then it will include bibliographic, chemical, 
# crystal, experimental, refinement or atomic coordinate data resulting 
# from the CCDC's data processing and validation procedures.
#
#######################################################################

data_ICALUV
_symmetry_cell_setting           orthorhombic
_symmetry_space_group_name_H-M   'P c a 21'
_symmetry_Int_Tables_number      29
_space_group_name_Hall           'P 2c -2ac'
loop_
_symmetry_equiv_pos_site_id
_symmetry_equiv_pos_as_xyz
1 x,y,z
2 -x,-y,1/2+z
3 1/2-x,y,1/2+z
4 1/2+x,-y,z
_cell_length_a                   26.6496(5)
_cell_length_b                   11.4204(2)
_cell_length_c                   17.5511(3)
_cell_angle_alpha                90
_cell_angle_beta                 90
_cell_angle_gamma                90
_cell_volume                     5341.66
loop_
_atom_site_label
_atom_site_type_symbol
_atom_site_fract_x
_atom_site_fract_y
_atom_site_fract_z
Co1 Co 0.35677(3) 0.05918(5) 0.26425(4)
Co2 Co 0.39322(3) -0.01807(5) 0.48374(4)
O1 O -0.05158(12) 0.0297(3) 0.4047(2)
O2 O 0.20092(15) 0.0558(3) 0.6718(2)
O3 O 0.32025(11) -0.0181(2) 0.45539(18)
O4 O 0.30247(13) 0.0657(2) 0.3439(2)
O5 O -0.06995(11) -0.0573(2) 0.29475(18)
N1 N 0.35703(14) 0.8699(3) 0.2636(3)
O6 O 0.12192(13) 0.0723(3) 0.6432(2)
N2 N 0.35815(14) 0.2481(3) 0.2670(3)
O7 O 0.12790(13) -0.0069(3) 0.1051(2)
C1 C 0.02255(16) -0.0028(4) 0.2335(3)
H1 H 0.0005 -0.0475 0.2045
O8 O 0.04876(14) -0.0140(3) 0.0736(2)
C2 C 0.00915(16) 0.0320(4) 0.3083(3)
C3 C 0.24004(17) 0.0683(3) 0.4394(3)
C4 C 0.08816(15) 0.1383(3) 0.3193(2)
C5 C 0.22757(17) 0.0530(4) 0.5134(3)
H2 H 0.2508 0.0193 0.5464
C6 C 0.3906(2) 0.5485(3) 0.4816(5)
C7 C 0.39052(19) 0.4181(3) 0.4838(4)
C8 C 0.29148(17) 0.0365(4) 0.4112(3)
N3 N 0.39290(15) 0.1730(3) 0.4817(3)
C9 C 0.1668(2) 0.0698(4) 0.6231(3)
N4 N 0.39309(14) 0.7944(3) 0.4858(3)
C10 C 0.04178(14) 0.1008(3) 0.3495(2)
H3 H 0.0330 0.1232 0.3986
C11 C 0.10104(15) 0.0997(4) 0.2476(2)
H4 H 0.1321 0.1204 0.2276
C12 C 0.12185(15) 0.2192(4) 0.3639(3)
H5 H 0.1010 0.2706 0.3945
H6 H 0.1403 0.2679 0.3283
C13 C -0.04183(17) 0.0000(3) 0.3381(3)
C14 C 0.35851(19) 0.6254(4) 0.2630(4)
C15 C 0.4310(2) 0.6140(4) 0.4607(5)
H7 H 0.4598 0.5767 0.4430
C16 C 0.20628(14) 0.1220(4) 0.3917(3)
H8 H 0.2153 0.1341 0.3411
C17 C 0.06852(17) 0.0299(4) 0.2038(3)
C18 C 0.3580(2) 0.4933(3) 0.2672(4)
C19 C 0.3962(2) 0.3071(4) 0.2439(4)
H9 H 0.4247 0.2660 0.2289
C20 C 0.3923(2) 0.8114(4) 0.2280(4)
H10 H 0.4168 0.8528 0.2015
C21 C 0.0822(2) -0.0010(3) 0.1241(3)
C22 C 0.14721(15) 0.1353(3) 0.4920(3)
H11 H 0.1152 0.1536 0.5094
C23 C 0.3208(2) 0.6886(4) 0.2987(4)
H12 H 0.2954 0.6489 0.3243
C24 C 0.18035(17) 0.0867(4) 0.5417(3)
C25 C 0.15912(14) 0.1589(3) 0.4159(2)
C26 C 0.3944(3) 0.6862(5) 0.2283(4)
H13 H 0.4208 0.6475 0.2044
C27 C 0.4293(2) 0.3551(4) 0.4455(4)
H14 H 0.4550 0.3937 0.4199
C28 C 0.3975(2) 0.4291(4) 0.2398(4)
H15 H 0.4251 0.4667 0.2186
C29 C 0.3203(2) 0.4325(4) 0.2951(4)
H16 H 0.2930 0.4719 0.3161
C30 C 0.3203(2) 0.3121(4) 0.2941(4)
H17 H 0.2924 0.2731 0.3133
C31 C 0.32042(19) 0.8090(4) 0.2969(3)
H18 H 0.2939 0.8490 0.3194
C32 C 0.3542(2) 0.3512(4) 0.5192(4)
H19 H 0.3275 0.3872 0.5440
C33 C 0.3500(2) 0.6118(4) 0.5023(5)
H20 H 0.3201 0.5737 0.5137
C34 C 0.4301(2) 0.7326(4) 0.4653(4)
H21 H 0.4594 0.7720 0.4522
C35 C 0.3524(2) 0.7335(4) 0.5067(4)
H22 H 0.3246 0.7741 0.5249
C36 C 0.4272(2) 0.2357(4) 0.4481(3)
H23 H 0.4527 0.1952 0.4234
C37 C 0.3577(2) 0.2339(4) 0.5176(3)
H24 H 0.3333 0.1918 0.5439
Co1B Co 0.14323(3) 0.05918(5) 0.76425(4)
Co1C Co -0.14323(3) -0.05918(5) 0.26425(4)
Co1_2 Co 0.35677(3) 1.05918(5) 0.26425(4)
Co2C Co -0.10678(3) 0.01807(5) 0.48374(4)
Co2B Co 0.10678(3) -0.01807(5) -0.01626(4)
Co2_2 Co 0.39322(3) 0.98193(5) 0.48374(4)
O1C O 0.44842(12) -0.0297(3) 0.4047(2)
O2B O 0.29908(15) 0.0558(3) 0.1718(2)
O5C O 0.43005(11) 0.0573(2) 0.29475(18)
N1_2 N 0.35703(14) -0.1301(3) 0.2636(3)
O6B O 0.37808(13) 0.0723(3) 0.1432(2)
O7B O 0.37210(13) -0.0069(3) 0.6051(2)
O8B O 0.45124(14) -0.0140(3) 0.5736(2)
N4_2 N 0.39309(14) -0.2056(3) 0.4858(3)
loop_
_geom_bond_atom_site_label_1
_geom_bond_atom_site_label_2
_geom_bond_site_symmetry_1
_geom_bond_site_symmetry_2
Co1 O4 1_555 1_555
Co2 O3 1_555 1_555
O1 C13 1_555 1_555
O2 C9 1_555 1_555
O3 C8 1_555 1_555
O4 C8 1_555 1_555
O5 C13 1_555 1_555
N1 C20 1_555 1_555
O6 C9 1_555 1_555
N2 Co1 1_555 1_555
O7 C21 1_555 1_555
C1 H1 1_555 1_555
O8 C21 1_555 1_555
C2 C1 1_555 1_555
C3 C5 1_555 1_555
C4 C10 1_555 1_555
C5 H2 1_555 1_555
C6 C7 1_555 1_555
C7 C27 1_555 1_555
C8 C3 1_555 1_555
N3 Co2 1_555 1_555
C9 C24 1_555 1_555
N4 C34 1_555 1_555
C10 C2 1_555 1_555
H3 C10 1_555 1_555
C11 C4 1_555 1_555
H4 C11 1_555 1_555
C12 C4 1_555 1_555
H5 C12 1_555 1_555
H6 C12 1_555 1_555
C13 C2 1_555 1_555
C14 C18 1_555 1_555
C15 C6 1_555 1_555
H7 C15 1_555 1_555
C16 C3 1_555 1_555
H8 C16 1_555 1_555
C17 C1 1_555 1_555
C18 C28 1_555 1_555
C19 N2 1_555 1_555
H9 C19 1_555 1_555
C20 H10 1_555 1_555
C21 C17 1_555 1_555
C22 H11 1_555 1_555
C23 C14 1_555 1_555
H12 C23 1_555 1_555
C24 C5 1_555 1_555
C25 C12 1_555 1_555
C26 C14 1_555 1_555
H13 C26 1_555 1_555
C27 H14 1_555 1_555
C28 C19 1_555 1_555
H15 C28 1_555 1_555
C29 C18 1_555 1_555
H16 C29 1_555 1_555
C30 N2 1_555 1_555
H17 C30 1_555 1_555
C31 N1 1_555 1_555
H18 C31 1_555 1_555
C32 C7 1_555 1_555
H19 C32 1_555 1_555
C33 C6 1_555 1_555
H20 C33 1_555 1_555
C34 C15 1_555 1_555
H21 C34 1_555 1_555
C35 N4 1_555 1_555
H22 C35 1_555 1_555
C36 N3 1_555 1_555
H23 C36 1_555 1_555
C37 N3 1_555 1_555
H24 C37 1_555 1_555
Co1B O2 1_555 1_555
Co1C O5 1_555 1_555
Co1_2 N1 1_555 1_555
Co2C O1 1_555 1_555
Co2B O7 1_555 1_555
Co2_2 N4 1_555 1_555
O1C Co2 1_555 1_555
O2B Co1 1_555 1_555
O5C Co1 1_555 1_555
N1_2 Co1 1_555 1_555
O6B Co1 1_555 1_555
O7B Co2 1_555 1_555
O8B Co2 1_555 1_555
N4_2 Co2 1_555 1_555
O6 Co1B 1_555 1_555
O8 Co2B 1_555 1_555
C11 C17 1_555 1_555
C16 C25 1_555 1_555
C20 C26 1_555 1_555
C22 C24 1_555 1_555
C22 C25 1_555 1_555
C23 C31 1_555 1_555
C27 C36 1_555 1_555
C29 C30 1_555 1_555
C32 C37 1_555 1_555
C33 C35 1_555 1_555

#END
