
#######################################################################
#
#                 Cambridge Crystallographic Data Centre
#                                CCDC 
#
#######################################################################
#
# If this CIF has been generated from an entry in the Cambridge 
# Structural Database, then it will include bibliographic, chemical, 
# crystal, experimental, refinement or atomic coordinate data resulting 
# from the CCDC's data processing and validation procedures.
#
#######################################################################

data_ICANEH
_symmetry_cell_setting           rhombohedral
_symmetry_space_group_name_H-M   'R -3 m'
_symmetry_Int_Tables_number      166
_space_group_name_Hall           '-R 3 2"'
loop_
_symmetry_equiv_pos_site_id
_symmetry_equiv_pos_as_xyz
1 x,y,z
2 -y,x-y,z
3 -x+y,-x,z
4 y,x,-z
5 x-y,-y,-z
6 -x,-x+y,-z
7 2/3+x,1/3+y,1/3+z
8 2/3-y,1/3+x-y,1/3+z
9 2/3-x+y,1/3-x,1/3+z
10 2/3+y,1/3+x,1/3-z
11 2/3+x-y,1/3-y,1/3-z
12 2/3-x,1/3-x+y,1/3-z
13 1/3+x,2/3+y,2/3+z
14 1/3-y,2/3+x-y,2/3+z
15 1/3-x+y,2/3-x,2/3+z
16 1/3+y,2/3+x,2/3-z
17 1/3+x-y,2/3-y,2/3-z
18 1/3-x,2/3-x+y,2/3-z
19 -x,-y,-z
20 y,-x+y,-z
21 x-y,x,-z
22 -y,-x,z
23 -x+y,y,z
24 x,x-y,z
25 1/3-x,2/3-y,2/3-z
26 1/3+y,2/3-x+y,2/3-z
27 1/3+x-y,2/3+x,2/3-z
28 1/3-y,2/3-x,2/3+z
29 1/3-x+y,2/3+y,2/3+z
30 1/3+x,2/3+x-y,2/3+z
31 2/3-x,1/3-y,1/3-z
32 2/3+y,1/3-x+y,1/3-z
33 2/3+x-y,1/3+x,1/3-z
34 2/3-y,1/3-x,1/3+z
35 2/3-x+y,1/3+y,1/3+z
36 2/3+x,1/3+x-y,1/3+z
_cell_length_a                   22.274(3)
_cell_length_b                   22.274(3)
_cell_length_c                   16.940(3)
_cell_angle_alpha                90
_cell_angle_beta                 90
_cell_angle_gamma                120
_cell_volume                     7278.48
loop_
_atom_site_label
_atom_site_type_symbol
_atom_site_fract_x
_atom_site_fract_y
_atom_site_fract_z
Ag1 Ag 0.088697(8) 0.177394(16) 0.698303(18)
Ag2 Ag 0.277164(14) 0.277164(14) 1.0000
C1 C 0.01783(13) 0.24810(13) 0.57345(14)
C2 C 0.0000 0.2038(2) 0.5000
H1 H 0.0386 0.1976 0.4877
C3 C 0.17743(13) 0.25166(13) 0.84663(13)
C4 C 0.13913(10) 0.2783(2) 0.9593(2)
C5 C -0.03437(10) 0.03437(10) 0.6460(2)
N1 N 0.12024(8) 0.24047(16) 0.80625(17)
N2 N 0.18843(11) 0.26975(12) 0.92371(12)
N3 N 0.22577(12) 0.24458(12) 0.80855(13)
H2 H 0.2641 0.2516 0.8342
H3 H 0.2201 0.2328 0.7571
N4 N 0.14830(11) 0.2966(2) 1.03468(19)
H4 H 0.1864 0.3027 1.0603
N5 N 0.03585(8) 0.07170(16) 0.64600(18)
N6 N -0.06875(8) 0.06875(8) 0.6463(2)
H5 H -0.0454 0.1154 0.6465
O1 O 0.00530(10) 0.21736(10) 0.63876(10)
O2 O 0.04635(11) 0.31241(10) 0.56475(11)
Ag1B Ag 0.088697(18) -0.088697(8) 0.698303(18)
Ag1A Ag -0.177394(16) -0.088697(18) 0.698303(18)
Ag1E Ag -0.088697(8) 0.088697(18) 0.301697(18)
Ag1C Ag 0.177394(16) 0.088697(8) 0.301697(18)
Ag1P Ag 0.244636(18) 0.489273(16) 0.968364(18)
Ag1N Ag 0.422030(18) 0.577970(8) 1.364970(18)
Ag1C_2 Ag 0.177394(16) 0.088697(8) 1.301697(18)
Ag2T Ag 0.000000(20) 0.277164(14) 1.0000
Ag2X Ag 0.056169(14) 0.389503(14) 0.6667
Ag2EA Ag -0.056169(14) 0.333333(20) 0.3333
Ag2N Ag 0.333333(20) 0.389503(14) 0.6667
Ag2G Ag 0.389503(14) 0.333333(20) 0.3333
Ag2G_2 Ag 0.389503(14) 0.333333(20) 1.3333
Ag2S Ag 0.277164(14) 0.000000(20) 1.0000
Ag2B Ag 0.000000(20) -0.277164(14) 1.0000
C1E C -0.01783(13) 0.23027(18) 0.42655(14)
C1V C 0.23027(18) 0.24810(13) 0.57345(14)
C1S C 0.24810(13) 0.23027(18) 0.42655(14)
C1X C 0.31550(13) 0.41857(13) 1.09322(14)
C1CA C 0.35116(13) 0.43640(18) 1.24012(14)
C2S C 0.2038(2) 0.2038(2) 0.5000
C2X C 0.3333 0.4629(2) 1.1667
H1E H -0.0386 0.1590 0.5123
H1V H 0.1590 0.1976 0.4877
H1S H 0.1976 0.1590 0.5123
H1X H 0.2947 0.4691 1.1790
H1CA H 0.3719 0.5077 1.1544
C3V C 0.07423(18) 0.25166(13) 0.84663(13)
C3C C 0.25166(13) 0.17743(13) 1.15337(13)
C3S C 0.25166(13) 0.07423(18) 1.15337(13)
C3B C 0.07423(18) -0.17743(13) 0.84663(13)
C3W C 0.17743(13) -0.07423(18) 0.84663(13)
C4C C 0.2783(2) 0.13913(10) 1.0407(2)
C4B C 0.13917(22) -0.13913(10) 0.9593(2)
C5B C 0.06874(14) 0.03437(10) 0.6460(2)
C5A C -0.03437(10) -0.06874(14) 0.6460(2)
N1C N 0.24047(16) 0.12024(8) 1.19375(17)
N1B N 0.12023(18) -0.12024(8) 0.80625(17)
N1A N -0.24047(16) -0.12023(18) 0.80625(17)
N2V N 0.08132(16) 0.26975(12) 0.92371(12)
N2C N 0.26975(12) 0.18843(11) 1.07629(12)
N2S N 0.26975(12) 0.08132(16) 1.07629(12)
N2B N 0.08132(16) -0.18843(11) 0.92371(12)
N2W N 0.18843(11) -0.08132(16) 0.92371(12)
N2T N -0.08132(16) 0.18843(11) 1.07629(12)
N2X N 0.14490(11) 0.39692(12) 0.74296(12)
N2AA N 0.06358(12) 0.47824(11) 0.59038(12)
N3V N 0.01881(17) 0.24458(12) 0.80855(13)
N3C N 0.24458(12) 0.22577(12) 1.19145(13)
N3S N 0.24458(12) 0.01881(17) 1.19145(13)
N3B N 0.01881(17) -0.22577(12) 0.80855(13)
N3W N 0.22577(12) -0.01881(17) 0.80855(13)
H2V H -0.0125 0.2516 0.8342
H2C H 0.2516 0.2641 1.1658
H2S H 0.2516 -0.0125 1.1658
H2B H -0.0125 -0.2641 0.8342
H2W H 0.2641 0.0125 0.8342
H3V H 0.0127 0.2328 0.7571
H3C H 0.2328 0.2201 1.2429
H3S H 0.2328 0.0127 1.2429
H3B H 0.0127 -0.2201 0.7571
H3W H 0.2201 -0.0127 0.7571
N4C N 0.2966(2) 0.14830(11) 0.96532(19)
N4B N 0.14830(23) -0.14830(11) 1.03468(19)
H4V H 0.1163 0.3027 1.0603
H4C H 0.3027 0.1864 0.9397
H4S H 0.3027 0.1163 0.9397
H4B H 0.1163 -0.1864 1.0603
H4W H 0.1864 -0.1163 1.0603
N5B N 0.03585(18) -0.03585(8) 0.64600(18)
N5A N -0.07170(16) -0.03585(18) 0.64600(18)
N6A N -0.06875(8) -0.13750(11) 0.6463(2)
N6B N 0.13750(11) 0.06875(8) 0.6463(2)
H5U H -0.1154 0.0454 0.6465
H5A H -0.1154 -0.1608 0.6465
H5W H -0.0454 -0.1608 0.6465
H5B H 0.1608 0.0454 0.6465
H5V H 0.1608 0.1154 0.6465
O1E O -0.00530(10) 0.21206(14) 0.36124(10)
O1V O 0.21206(14) 0.21736(10) 0.63876(10)
O1S O 0.21736(10) 0.21206(14) 0.36124(10)
O1X O 0.32803(10) 0.44931(10) 1.02791(10)
O1CA O 0.33863(10) 0.45461(14) 1.30543(10)
O1B O 0.21206(14) -0.00530(10) 0.63876(10)
O1W O 0.00530(10) -0.21206(14) 0.63876(10)
O1A O -0.21736(10) -0.21206(14) 0.63876(10)
O1U O -0.21736(10) -0.00530(10) 0.63876(10)
O2E O -0.04635(11) 0.26606(15) 0.43525(11)
O2V O 0.26606(15) 0.31241(10) 0.56475(11)
O2S O 0.31241(10) 0.26606(15) 0.43525(11)
O2X O 0.28698(11) 0.35426(10) 1.10192(11)
O2CA O 0.37968(11) 0.40061(15) 1.23142(11)
O2GA O 0.35426(10) 0.28698(11) 0.89808(11)
O2P O 0.06727(15) 0.35426(10) 1.10192(11)
O2H O -0.06727(15) 0.28698(11) 0.89808(11)
O2I O -0.02092(10) 0.37968(11) 0.76858(11)
loop_
_geom_bond_atom_site_label_1
_geom_bond_atom_site_label_2
_geom_bond_site_symmetry_1
_geom_bond_site_symmetry_2
Ag1 N1 1_555 1_555
Ag2 N2 1_555 1_555
C1 C2 1_555 1_555
C2 H1 1_555 1_555
C3 N1 1_555 1_555
C4 N2 1_555 1_555
C5 N5 1_555 1_555
N1 C3V 1_555 1_555
N2 C3 1_555 1_555
N3 C3 1_555 1_555
H2 N3 1_555 1_555
H3 N3 1_555 1_555
N4 C4 1_555 1_555
H4 N4 1_555 1_555
N5 Ag1 1_555 1_555
N6 C5 1_555 1_555
H5 N6 1_555 1_555
O1 Ag1 1_555 1_555
O2 C1 1_555 1_555
Ag1B N1B 1_555 1_555
Ag1A N1A 1_555 1_555
Ag1E O1E 1_555 1_555
Ag1C O1S 1_555 1_555
Ag1P O1X 1_555 1_555
Ag1N O1CA 1_555 1_555
Ag1C_2 N1C 1_555 1_555
Ag2T N2V 1_555 1_555
Ag2X O2 1_555 1_555
Ag2EA O2E 1_555 1_555
Ag2N O2V 1_555 1_555
Ag2G O2S 1_555 1_555
Ag2G_2 O2CA 1_555 1_555
Ag2S N2S 1_555 1_555
Ag2B N2B 1_555 1_555
C1E C2 1_555 1_555
C1V C2S 1_555 1_555
C1S C2S 1_555 1_555
C1X C2X 1_555 1_555
C1CA C2X 1_555 1_555
C2S H1V 1_555 1_555
C2X H1X 1_555 1_555
H1E C2 1_555 1_555
H1S C2S 1_555 1_555
H1CA C2X 1_555 1_555
C3V N2V 1_555 1_555
C3C N1C 1_555 1_555
C3S N1C 1_555 1_555
C3B N1B 1_555 1_555
C3W N1B 1_555 1_555
C4C N2C 1_555 1_555
C4B N2B 1_555 1_555
C5B N5 1_555 1_555
C5A N5B 1_555 1_555
N2V C4 1_555 1_555
N2C Ag2 1_555 1_555
N2S C3S 1_555 1_555
N2B C3B 1_555 1_555
N2W Ag2S 1_555 1_555
N2T Ag2T 1_555 1_555
N2X Ag2X 1_555 1_555
N2AA Ag2X 1_555 1_555
N3V C3V 1_555 1_555
N3C C3C 1_555 1_555
N3S C3S 1_555 1_555
N3B C3B 1_555 1_555
N3W C3W 1_555 1_555
H2V N3V 1_555 1_555
H2C N3C 1_555 1_555
H2S N3S 1_555 1_555
H2B N3B 1_555 1_555
H2W N3W 1_555 1_555
H3V N3V 1_555 1_555
H3C N3C 1_555 1_555
H3S N3S 1_555 1_555
H3B N3B 1_555 1_555
H3W N3W 1_555 1_555
N4C C4C 1_555 1_555
N4B C4B 1_555 1_555
H4V N4 1_555 1_555
H4C N4C 1_555 1_555
H4S N4C 1_555 1_555
H4B N4B 1_555 1_555
H4W N4B 1_555 1_555
N5B Ag1B 1_555 1_555
N5A C5 1_555 1_555
N6A C5A 1_555 1_555
N6B C5B 1_555 1_555
H5U N6 1_555 1_555
H5A N6A 1_555 1_555
H5W N6A 1_555 1_555
H5B N6B 1_555 1_555
H5V N6B 1_555 1_555
O1E C1E 1_555 1_555
O1V Ag1 1_555 1_555
O1S C1S 1_555 1_555
O1X C1X 1_555 1_555
O1CA C1CA 1_555 1_555
O1B Ag1B 1_555 1_555
O1W Ag1B 1_555 1_555
O1A Ag1A 1_555 1_555
O1U Ag1A 1_555 1_555
O2E C1E 1_555 1_555
O2V C1V 1_555 1_555
O2S C1S 1_555 1_555
O2X Ag2 1_555 1_555
O2CA C1CA 1_555 1_555
O2GA Ag2 1_555 1_555
O2P Ag2T 1_555 1_555
O2H Ag2T 1_555 1_555
O2I Ag2X 1_555 1_555
C1 O1 1_555 1_555
Ag1A N5A 1_555 1_555
C1V O1V 1_555 1_555
C1X O2X 1_555 1_555
C3C N2C 1_555 1_555
C3W N2W 1_555 1_555
C4C N2S 1_555 1_555
C4B N2W 1_555 1_555
C5B N5B 1_555 1_555
C5A N5A 1_555 1_555

#END
