
#######################################################################
#
#                 Cambridge Crystallographic Data Centre
#                                CCDC 
#
#######################################################################
#
# If this CIF has been generated from an entry in the Cambridge 
# Structural Database, then it will include bibliographic, chemical, 
# crystal, experimental, refinement or atomic coordinate data resulting 
# from the CCDC's data processing and validation procedures.
#
#######################################################################

data_ICANAD
_symmetry_cell_setting           rhombohedral
_symmetry_space_group_name_H-M   'R -3 m'
_symmetry_Int_Tables_number      166
_space_group_name_Hall           '-R 3 2"'
loop_
_symmetry_equiv_pos_site_id
_symmetry_equiv_pos_as_xyz
1 x,y,z
2 -y,x-y,z
3 -x+y,-x,z
4 y,x,-z
5 x-y,-y,-z
6 -x,-x+y,-z
7 2/3+x,1/3+y,1/3+z
8 2/3-y,1/3+x-y,1/3+z
9 2/3-x+y,1/3-x,1/3+z
10 2/3+y,1/3+x,1/3-z
11 2/3+x-y,1/3-y,1/3-z
12 2/3-x,1/3-x+y,1/3-z
13 1/3+x,2/3+y,2/3+z
14 1/3-y,2/3+x-y,2/3+z
15 1/3-x+y,2/3-x,2/3+z
16 1/3+y,2/3+x,2/3-z
17 1/3+x-y,2/3-y,2/3-z
18 1/3-x,2/3-x+y,2/3-z
19 -x,-y,-z
20 y,-x+y,-z
21 x-y,x,-z
22 -y,-x,z
23 -x+y,y,z
24 x,x-y,z
25 1/3-x,2/3-y,2/3-z
26 1/3+y,2/3-x+y,2/3-z
27 1/3+x-y,2/3+x,2/3-z
28 1/3-y,2/3-x,2/3+z
29 1/3-x+y,2/3+y,2/3+z
30 1/3+x,2/3+x-y,2/3+z
31 2/3-x,1/3-y,1/3-z
32 2/3+y,1/3-x+y,1/3-z
33 2/3+x-y,1/3+x,1/3-z
34 2/3-y,1/3-x,1/3+z
35 2/3-x+y,1/3+y,1/3+z
36 2/3+x,1/3+x-y,1/3+z
_cell_length_a                   22.1713(16)
_cell_length_b                   22.1713(16)
_cell_length_c                   16.947(2)
_cell_angle_alpha                90
_cell_angle_beta                 90
_cell_angle_gamma                120
_cell_volume                     7214.49
loop_
_atom_site_label
_atom_site_type_symbol
_atom_site_fract_x
_atom_site_fract_y
_atom_site_fract_z
Ag1 Ag 0.243078(11) 0.48616(2) -0.02800(2)
Ag2 Ag 0.33333(2) 0.38926(2) -0.3333
C1 C 0.25961(18) 0.41632(17) -0.17961(18)
C2 C 0.1952(3) 0.39037(14) -0.2916(3)
C3 C 0.31387(19) 0.41731(18) 0.0938(2)
C4 C 0.3333 0.4619(3) 0.1667
H1 H 0.2948 0.4684 0.1801
C5 C 0.2644(3) 0.63220(13) 0.0179(3)
N1 N 0.31457(17) 0.42246(16) -0.14126(18)
H2 H 0.3458 0.4150 -0.1668
H3 H 0.3207 0.4342 -0.0898
N2 N 0.25302(16) 0.39875(15) -0.25635(16)
N3 N 0.2138(2) 0.42757(11) -0.1394(2)
N4 N 0.29755(11) 0.5951(2) 0.0181(2)
N5 N 0.1961(2) 0.59803(11) 0.0182(3)
H4 H 0.1726 0.5509 0.0185
N6 N 0.1864(3) 0.37267(16) -0.3672(3)
H5 H 0.2186 0.3665 -0.3928
O1 O 0.32525(15) 0.44788(14) 0.02942(15)
O2 O 0.28578(16) 0.35354(14) 0.10260(16)
Ag1A Ag 0.51384(2) 0.756918(23) -0.02800(2)
Ag1B Ag 0.243082(23) 0.756922(11) -0.02800(2)
Ag1K Ag 0.423589(11) 0.576415(23) 0.36133(2)
Ag1EA Ag 0.15283(2) 0.576415(23) 0.36133(2)
Ag1N Ag 0.576415(23) 0.423589(11) -0.36133(2)
Ag1C Ag 0.48616(2) 0.243078(11) 0.02800(2)
Ag1K_2 Ag 0.423589(11) 0.576415(23) -0.63867(2)
Ag2V Ag 0.05593(3) 0.38926(2) -0.3333
Ag2G Ag 0.27741(2) 0.27740(3) 0.0000
Ag2C Ag 0.38926(2) 0.33333(2) 0.3333
Ag2IA Ag -0.00000(2) 0.27740(3) 0.0000
Ag2T Ag -0.05593(3) 0.33333(2) 0.3333
Ag2FA Ag 0.61074(3) 0.66666(2) -0.3334
Ag2A Ag 0.61074(2) 0.94407(3) -0.3333
C1V C 0.15671(25) 0.41632(17) -0.17961(18)
C1K C 0.40706(18) 0.49004(25) -0.48706(18)
C1FA C 0.50996(25) 0.59294(18) -0.48706(18)
C1A C 0.58368(17) 0.84329(25) -0.17961(18)
C1U C 0.58368(17) 0.74039(18) -0.17961(18)
C2K C 0.4715(3) 0.52850(33) -0.3751(3)
C2A C 0.60963(14) 0.80483(33) -0.2916(3)
C3K C 0.35280(19) 0.43677(26) 0.2395(2)
C3V C 0.10344(26) 0.41731(18) 0.0938(2)
C3EA C 0.08398(18) 0.43677(26) 0.2395(2)
C3N C 0.43677(26) 0.35280(19) -0.2395(2)
C3C C 0.41731(18) 0.31387(19) -0.0938(2)
C4V C 0.1286(3) 0.4619(3) 0.1667
C4N C 0.4619(3) 0.3334 -0.1666
H1K H 0.3719 0.5069 0.1532
H1V H 0.1736 0.4684 0.1801
H1EA H 0.1351 0.5069 0.1532
H1N H 0.5069 0.3719 -0.1532
H1C H 0.4684 0.2948 -0.1801
C5A C 0.36780(13) 0.63220(33) 0.0179(3)
C5B C 0.36780(33) 0.7356(3) 0.0179(3)
N1V N 0.10789(23) 0.42246(16) -0.14126(18)
N1K N 0.35210(17) 0.44122(23) -0.52541(18)
N1FA N 0.55878(23) 0.64790(17) -0.52541(18)
N1A N 0.57754(16) 0.89211(23) -0.14126(18)
N1U N 0.57754(16) 0.68543(17) -0.14126(18)
H2V H 0.0692 0.4150 -0.1668
H2K H 0.3209 0.4025 -0.4999
H2FA H 0.5975 0.6791 -0.4999
H2A H 0.5850 0.9308 -0.1668
H2U H 0.5850 0.6542 -0.1668
H3V H 0.1135 0.4342 -0.0898
H3K H 0.3460 0.4468 -0.5769
H3FA H 0.5532 0.6540 -0.5769
H3A H 0.5658 0.8865 -0.0898
H3U H 0.5658 0.6793 -0.0898
N2V N 0.14573(22) 0.39875(15) -0.25635(16)
N2K N 0.41365(16) 0.47906(22) -0.41032(16)
N2FA N 0.52094(22) 0.58635(16) -0.41032(16)
N2A N 0.60125(15) 0.85427(22) -0.25635(16)
N2U N 0.60125(15) 0.74698(16) -0.25635(16)
N2EA N 0.06542(15) 0.47906(22) -0.41032(16)
N2G N 0.26792(15) 0.18760(22) 0.07698(16)
N2P N 0.18760(22) 0.26792(15) -0.07698(16)
N3K N 0.4529(2) 0.54710(23) -0.5273(2)
N3A N 0.57243(11) 0.78623(23) -0.1394(2)
N3B N 0.21377(23) 0.7862(2) -0.1394(2)
N4A N 0.4049(2) 0.70245(23) 0.0181(2)
N4B N 0.29755(23) 0.70245(11) 0.0181(2)
N5B N 0.40193(23) 0.8039(2) 0.0182(3)
N5A N 0.40197(11) 0.59807(23) 0.0182(3)
H4W H 0.1726 0.6217 0.0185
H4B H 0.3783 0.8274 0.0185
H4U H 0.4491 0.8274 0.0185
H4A H 0.4491 0.6217 0.0185
H4V H 0.3783 0.5509 0.0185
N6K N 0.4803(3) 0.51960(34) -0.2995(3)
N6A N 0.62733(16) 0.81373(34) -0.3672(3)
H5V H 0.1479 0.3665 -0.3928
H5K H 0.4481 0.4812 -0.2739
H5FA H 0.5188 0.5519 -0.2739
H5A H 0.6335 0.8521 -0.3928
H5U H 0.6335 0.7814 -0.3928
O1K O 0.34142(15) 0.45596(21) 0.30391(15)
O1V O 0.12263(21) 0.44788(14) 0.02942(15)
O1EA O 0.11455(14) 0.45596(21) 0.30391(15)
O1N O 0.45596(21) 0.34142(15) -0.30391(15)
O1C O 0.44788(14) 0.32525(15) -0.02942(15)
O1A O 0.55212(14) 0.87737(21) 0.02942(15)
O1U O 0.55212(14) 0.67475(15) 0.02942(15)
O1B O 0.12263(21) 0.67475(15) 0.02942(15)
O1W O 0.32525(15) 0.87737(21) 0.02942(15)
O2K O 0.38089(16) 0.40109(21) 0.23073(16)
O2V O 0.06776(21) 0.35354(14) 0.10260(16)
O2EA O 0.02021(14) 0.40109(21) 0.23073(16)
O2N O 0.40109(21) 0.38089(16) -0.23073(16)
O2C O 0.35354(14) 0.28578(16) -0.10260(16)
O2P O 0.26557(21) 0.31313(14) -0.43593(16)
O2AA O -0.02021(14) 0.38089(16) -0.23073(16)
O2X O 0.04755(16) 0.31313(14) -0.43593(16)
loop_
_geom_bond_atom_site_label_1
_geom_bond_atom_site_label_2
_geom_bond_site_symmetry_1
_geom_bond_site_symmetry_2
Ag1 N3 1_555 1_555
Ag2 N2 1_555 1_555
C1 N1 1_555 1_555
C2 N2 1_555 1_555
C3 C4 1_555 1_555
C4 H1 1_555 1_555
C5 N4 1_555 1_555
N1 H2 1_555 1_555
H3 N1 1_555 1_555
N2 C1 1_555 1_555
N3 C1 1_555 1_555
N4 Ag1 1_555 1_555
N5 C5 1_555 1_555
H4 N5 1_555 1_555
N6 C2 1_555 1_555
H5 N6 1_555 1_555
O1 Ag1 1_555 1_555
O2 C3 1_555 1_555
Ag1A N3A 1_555 1_555
Ag1B N3B 1_555 1_555
Ag1K O1K 1_555 1_555
Ag1EA O1EA 1_555 1_555
Ag1N O1N 1_555 1_555
Ag1C O1C 1_555 1_555
Ag1K_2 N3K 1_555 1_555
Ag2V N2V 1_555 1_555
Ag2G O2 1_555 1_555
Ag2C O2K 1_555 1_555
Ag2IA O2V 1_555 1_555
Ag2T O2EA 1_555 1_555
Ag2FA N2FA 1_555 1_555
Ag2A N2A 1_555 1_555
C1V N3 1_555 1_555
C1K N1K 1_555 1_555
C1FA N1FA 1_555 1_555
C1A N1A 1_555 1_555
C1U N1U 1_555 1_555
C2K N2K 1_555 1_555
C2A N2A 1_555 1_555
C3K C4 1_555 1_555
C3V C4V 1_555 1_555
C3EA C4V 1_555 1_555
C3N C4N 1_555 1_555
C3C C4N 1_555 1_555
C4V H1V 1_555 1_555
C4N H1N 1_555 1_555
H1K C4 1_555 1_555
H1EA C4V 1_555 1_555
H1C C4N 1_555 1_555
C5A N4 1_555 1_555
C5B N4A 1_555 1_555
N1V C1V 1_555 1_555
N1K H2K 1_555 1_555
N1FA H2FA 1_555 1_555
N1A H2A 1_555 1_555
N1U H2U 1_555 1_555
H2V N1V 1_555 1_555
H3V N1V 1_555 1_555
H3K N1K 1_555 1_555
H3FA N1FA 1_555 1_555
H3A N1A 1_555 1_555
H3U N1U 1_555 1_555
N2V C2 1_555 1_555
N2K Ag2 1_555 1_555
N2FA C1FA 1_555 1_555
N2A C1A 1_555 1_555
N2U Ag2FA 1_555 1_555
N2EA Ag2V 1_555 1_555
N2G Ag2G 1_555 1_555
N2P Ag2G 1_555 1_555
N3K C1K 1_555 1_555
N3A C1A 1_555 1_555
N4A Ag1A 1_555 1_555
N4B C5 1_555 1_555
N5B C5B 1_555 1_555
N5A C5A 1_555 1_555
H4W N5 1_555 1_555
H4B N5B 1_555 1_555
H4U N5B 1_555 1_555
H4A N5A 1_555 1_555
H4V N5A 1_555 1_555
N6K C2K 1_555 1_555
N6A C2A 1_555 1_555
H5V N6 1_555 1_555
H5K N6K 1_555 1_555
H5FA N6K 1_555 1_555
H5A N6A 1_555 1_555
H5U N6A 1_555 1_555
O1K C3K 1_555 1_555
O1V Ag1 1_555 1_555
O1EA C3EA 1_555 1_555
O1N C3N 1_555 1_555
O1C C3C 1_555 1_555
O1A Ag1A 1_555 1_555
O1U Ag1A 1_555 1_555
O1B Ag1B 1_555 1_555
O1W Ag1B 1_555 1_555
O2K C3K 1_555 1_555
O2V C3V 1_555 1_555
O2EA C3EA 1_555 1_555
O2N Ag2 1_555 1_555
O2C Ag2G 1_555 1_555
O2P Ag2 1_555 1_555
O2AA Ag2V 1_555 1_555
O2X Ag2V 1_555 1_555
C3 O1 1_555 1_555
Ag1B N4B 1_555 1_555
C1V N2V 1_555 1_555
C1K N2K 1_555 1_555
C1FA N3K 1_555 1_555
C1U N2U 1_555 1_555
C1U N3A 1_555 1_555
C2K N2FA 1_555 1_555
C2A N2U 1_555 1_555
C3V O1V 1_555 1_555
C3N O2N 1_555 1_555
C3C O2C 1_555 1_555
C5A N4A 1_555 1_555
C5B N4B 1_555 1_555

#END
