
#######################################################################
#
#                 Cambridge Crystallographic Data Centre
#                                CCDC 
#
#######################################################################
#
# If this CIF has been generated from an entry in the Cambridge 
# Structural Database, then it will include bibliographic, chemical, 
# crystal, experimental, refinement or atomic coordinate data resulting 
# from the CCDC's data processing and validation procedures.
#
#######################################################################

data_ICAWUF
_symmetry_cell_setting           orthorhombic
_symmetry_space_group_name_H-M   'F d d 2'
_symmetry_Int_Tables_number      43
_space_group_name_Hall           'F 2 -2d'
loop_
_symmetry_equiv_pos_site_id
_symmetry_equiv_pos_as_xyz
1 x,y,z
2 -x,-y,z
3 1/4+x,1/4-y,1/4+z
4 1/4-x,1/4+y,1/4+z
5 x,1/2+y,1/2+z
6 -x,1/2-y,1/2+z
7 1/4+x,3/4-y,3/4+z
8 1/4-x,3/4+y,3/4+z
9 1/2+x,y,1/2+z
10 1/2-x,-y,1/2+z
11 3/4+x,1/4-y,3/4+z
12 3/4-x,1/4+y,3/4+z
13 1/2+x,1/2+y,z
14 1/2-x,1/2-y,z
15 3/4+x,3/4-y,1/4+z
16 3/4-x,3/4+y,1/4+z
_cell_length_a                   37.538(5)
_cell_length_b                   130.908(16)
_cell_length_c                   6.7015(8)
_cell_angle_alpha                90
_cell_angle_beta                 90
_cell_angle_gamma                90
_cell_volume                     32931.3
loop_
_atom_site_label
_atom_site_type_symbol
_atom_site_fract_x
_atom_site_fract_y
_atom_site_fract_z
Cd1 Cd 0.80127(3) 0.084360(7) 1.4347(15)
Cd2 Cd 0.5000 0.0000 0.4857(15)
Cd3 Cd 0.82507(3) 0.070320(7) 1.9083(15)
O1 O 0.7784(3) 0.07415(8) 1.174(2)
O2 O 0.7416(3) 0.08559(9) 1.306(2)
O3 O 0.8435(4) 0.08536(8) 1.022(3)
O4 O 0.8323(3) 0.09587(10) 1.265(2)
O5 O 0.7856(3) 0.05777(9) 1.798(2)
O6 O 0.8440(3) 0.07550(9) 1.598(2)
O7 O 0.8901(3) 0.07015(9) 1.762(2)
O8 O 0.4866(4) 0.01257(13) 0.258(3)
O9 O 0.4415(5) 0.00401(12) 0.368(3)
N1 N 0.4767(6) 0.05026(19) 0.098(5)
N2 N 1.0339(4) 0.15276(9) -0.110(2)
N3 N 0.5287(4) 0.01124(10) 0.692(3)
N4 N 1.1028(6) 0.1207(2) 0.422(4)
N5 N 0.3460(3) 0.05966(10) -1.359(3)
C1 C 0.5063(7) 0.0459(4) 0.083(7)
H1 H 0.5102 0.0411 -0.0161
C2 C 0.5337(8) 0.0484(3) 0.219(6)
H2 H 0.5554 0.0450 0.2041
C3 C 0.5311(5) 0.0552(2) 0.369(5)
C4 C 0.4974(6) 0.05912(18) 0.384(5)
H3 H 0.4925 0.0635 0.4894
C5 C 0.4715(6) 0.0570(2) 0.258(6)
H4 H 0.4493 0.0600 0.2760
C6 C 0.5618(5) 0.0571(2) 0.499(4)
H5 H 0.5835 0.0545 0.4541
C7 C 0.5624(6) 0.0616(2) 0.664(5)
H6 H 0.5405 0.0633 0.7193
C8 C 0.5944(5) 0.0647(2) 0.780(5)
C9 C 0.6268(6) 0.0625(3) 0.723(5)
H7 H 0.6305 0.0589 0.6049
C10 C 0.6565(5) 0.0655(2) 0.840(4)
H8 H 0.6791 0.0631 0.8063
C11 C 0.6531(5) 0.0717(2) 0.996(4)
C12 C 0.6187(6) 0.0742(2) 1.073(5)
H9 H 0.6157 0.0781 1.1875
C13 C 0.5887(4) 0.0703(2) 0.961(4)
H10 H 0.5656 0.0714 1.0075
C14 C 0.6851(5) 0.07647(16) 1.106(3)
H11 H 0.6810 0.0816 1.1982
C15 C 0.7179(4) 0.07347(14) 1.073(3)
H12 H 0.7225 0.0685 0.9783
C16 C 0.7469(4) 0.07795(12) 1.186(3)
C17 C 1.0160(7) 0.15409(16) 0.065(3)
H13 H 1.0138 0.1608 0.1108
C18 C 1.0017(5) 0.14694(13) 0.175(3)
H14 H 0.9929 0.1486 0.3010
C19 C 0.9996(5) 0.13714(13) 0.109(3)
C20 C 1.0180(5) 0.13534(11) -0.070(4)
H15 H 1.0186 0.1287 -0.1192
C21 C 1.0349(5) 0.14285(12) -0.177(3)
H16 H 1.0470 0.1413 -0.2945
C22 C 0.9812(5) 0.12898(12) 0.213(3)
H17 H 0.9804 0.1226 0.1514
C23 C 0.9653(4) 0.12991(12) 0.390(3)
H18 H 0.9677 0.1362 0.4513
C24 C 0.9445(4) 0.12226(12) 0.501(3)
C25 C 0.9316(5) 0.12495(14) 0.690(3)
H19 H 0.9370 0.1313 0.7444
C26 C 0.9108(5) 0.11818(13) 0.793(3)
H20 H 0.9022 0.1199 0.9191
C27 C 0.9025(4) 0.10887(12) 0.714(3)
C28 C 0.9142(6) 0.10631(17) 0.524(3)
H21 H 0.9074 0.1001 0.4677
C29 C 0.9359(5) 0.11291(13) 0.420(3)
H22 H 0.9446 0.1111 0.2950
C30 C 0.8805(5) 0.10109(11) 0.825(3)
H23 H 0.8781 0.0947 0.7670
C31 C 0.8646(4) 0.10256(13) 0.996(3)
H24 H 0.8649 0.1090 1.0545
C32 C 0.8455(4) 0.09380(10) 1.099(3)
C33 C 0.5386(6) 0.02035(14) 0.608(3)
H25 H 0.5300 0.0223 0.4832
C34 C 0.5619(6) 0.02656(14) 0.712(4)
H26 H 0.5687 0.0328 0.6566
C35 C 0.5755(4) 0.02386(14) 0.898(4)
C36 C 0.5633(6) 0.01466(17) 0.982(3)
H27 H 0.5711 0.0124 1.1060
C37 C 0.5393(5) 0.00912(14) 0.871(3)
H28 H 0.5298 0.0033 0.9299
C38 C 0.6014(5) 0.03027(13) 1.009(3)
H29 H 0.6079 0.0364 0.9488
C39 C 0.6159(5) 0.02834(17) 1.177(5)
H30 H 0.6091 0.0222 1.2366
C40 C 0.6427(6) 0.03469(14) 1.294(4)
C41 C 0.6555(8) 0.04387(18) 1.214(4)
H31 H 0.6463 0.0465 1.0953
C42 C 0.6823(7) 0.04889(18) 1.317(4)
H32 H 0.6904 0.0551 1.2693
C43 C 0.6970(5) 0.04498(15) 1.486(4)
C44 C 0.6828(6) 0.03609(17) 1.567(5)
H33 H 0.6907 0.0338 1.6914
C45 C 0.6567(6) 0.0305(2) 1.465(5)
H34 H 0.6491 0.0242 1.5114
C46 C 0.7267(5) 0.04973(15) 1.590(4)
H35 H 0.7379 0.0458 1.6863
C47 C 0.7396(4) 0.05905(12) 1.562(3)
H36 H 0.7301 0.0629 1.4586
C48 C 0.7679(4) 0.06378(12) 1.683(3)
C49 C 1.0688(5) 0.1192(2) 0.363(4)
H37 H 1.0607 0.1218 0.2421
C50 C 1.0463(6) 0.1137(2) 0.487(3)
H38 H 1.0226 0.1131 0.4493
C51 C 1.0565(5) 0.1090(2) 0.664(3)
C52 C 1.0922(6) 0.1104(4) 0.697(6)
H39 H 1.1020 0.1072 0.8068
C53 C 1.1138(9) 0.1160(3) 0.588(4)
H40 H 1.1375 0.1167 0.6269
C54 C 1.0290(11) 0.1036(2) 0.769(5)
H41 H 1.0066 0.1035 0.7101
C55 C 1.0320(7) 0.0989(3) 0.935(5)
H42 H 1.0546 0.0992 0.9919
C56 C 1.0065(6) 0.0933(2) 1.047(5)
C57 C 0.9707(6) 0.0913(2) 0.994(4)
H43 H 0.9624 0.0933 0.8691
C58 C 0.9484(4) 0.08651(16) 1.120(3)
H44 H 0.9251 0.0853 1.0808
C59 C 0.9601(4) 0.08330(16) 1.313(4)
C60 C 0.9947(5) 0.0850(2) 1.373(4)
H45 H 1.0026 0.0831 1.4994
C61 C 1.0174(6) 0.0896(2) 1.232(5)
H46 H 1.0414 0.0902 1.2651
C62 C 0.9346(4) 0.07883(12) 1.460(4)
H47 H 0.9446 0.0761 1.5751
C63 C 0.8998(4) 0.07833(11) 1.447(3)
H48 H 0.8887 0.0805 1.3297
C64 C 0.8774(4) 0.07439(12) 1.616(3)
C65 C 0.3245(4) 0.05471(13) -1.236(3)
H49 H 0.3002 0.0549 -1.2625
C66 C 0.3356(5) 0.04927(11) -1.070(3)
H50 H 0.3191 0.0464 -0.9819
C67 C 0.3718(5) 0.04816(13) -1.039(3)
C68 C 0.3938(4) 0.05278(13) -1.174(3)
H51 H 0.4183 0.0521 -1.1589
C69 C 0.3811(4) 0.05838(12) -1.333(3)
H52 H 0.3970 0.0613 -1.4227
C70 C 0.3877(5) 0.04211(15) -0.870(3)
H53 H 0.4120 0.0407 -0.8760
C71 C 0.3708(6) 0.03875(15) -0.718(3)
H54 H 0.3463 0.0397 -0.7139
C72 C 0.3885(7) 0.03338(16) -0.548(4)
C73 C 0.3692(8) 0.02899(17) -0.402(4)
H55 H 0.3445 0.0293 -0.4099
C74 C 0.3848(9) 0.02388(19) -0.237(4)
H56 H 0.3713 0.0202 -0.1467
C75 C 0.4240(8) 0.02482(18) -0.218(4)
C76 C 0.4416(6) 0.0296(2) -0.358(3)
H57 H 0.4662 0.0300 -0.3471
C77 C 0.4255(7) 0.0341(2) -0.520(4)
H58 H 0.4393 0.0376 -0.6127
C78 C 0.4437(7) 0.02046(17) -0.048(4)
H59 H 0.4682 0.0214 -0.0477
C79 C 0.4306(7) 0.01541(16) 0.102(3)
H60 H 0.4061 0.0148 0.1179
C80 C 0.4546(6) 0.01062(19) 0.248(4)
O10 O 0.7737(3) 0.07308(8) 1.675(2)
O8A O 0.5134(4) -0.01257(13) 0.258(3)
O9A O 0.5585(5) -0.00401(12) 0.368(3)
N5A N 0.6540(3) -0.05966(10) -1.359(3)
C65A C 0.6755(4) -0.05471(13) -1.236(3)
H49A H 0.6998 -0.0549 -1.2625
C66A C 0.6644(5) -0.04927(11) -1.070(3)
H50A H 0.6809 -0.0464 -0.9819
C67A C 0.6282(5) -0.04816(13) -1.039(3)
C68A C 0.6062(4) -0.05278(13) -1.174(3)
H51A H 0.5817 -0.0521 -1.1589
C69A C 0.6189(4) -0.05838(12) -1.333(3)
H52A H 0.6030 -0.0613 -1.4227
C70A C 0.6123(5) -0.04211(15) -0.870(3)
H53A H 0.5880 -0.0407 -0.8760
C71A C 0.6292(6) -0.03875(15) -0.718(3)
H54A H 0.6537 -0.0397 -0.7139
C72A C 0.6115(7) -0.03338(16) -0.548(4)
C73A C 0.6308(8) -0.02899(17) -0.402(4)
H55A H 0.6555 -0.0293 -0.4099
C74A C 0.6152(9) -0.02388(19) -0.237(4)
H56A H 0.6287 -0.0202 -0.1467
C75A C 0.5760(8) -0.02482(18) -0.218(4)
C76A C 0.5584(6) -0.0296(2) -0.358(3)
H57A H 0.5338 -0.0300 -0.3471
C77A C 0.5745(7) -0.0341(2) -0.520(4)
H58A H 0.5607 -0.0376 -0.6127
C78A C 0.5563(7) -0.02046(17) -0.048(4)
H59A H 0.5318 -0.0214 -0.0477
C79A C 0.5694(7) -0.01541(16) 0.102(3)
H60A H 0.5939 -0.0148 0.1179
C80A C 0.5454(6) -0.01062(19) 0.248(4)
O5A O 0.2144(3) -0.05777(9) 1.798(2)
N3A N 0.4713(4) -0.01124(10) 0.692(3)
C33A C 0.4614(6) -0.02035(14) 0.608(3)
H25A H 0.4700 -0.0223 0.4832
C34A C 0.4381(6) -0.02656(14) 0.712(4)
H26A H 0.4313 -0.0328 0.6566
C35A C 0.4245(4) -0.02386(14) 0.898(4)
C36A C 0.4367(6) -0.01466(17) 0.982(3)
H27A H 0.4289 -0.0124 1.1060
C37A C 0.4607(5) -0.00912(14) 0.871(3)
H28A H 0.4702 -0.0033 0.9299
C38A C 0.3986(5) -0.03027(13) 1.009(3)
H29A H 0.3921 -0.0364 0.9488
C39A C 0.3841(5) -0.02834(17) 1.177(5)
H30A H 0.3909 -0.0222 1.2366
C40A C 0.3573(6) -0.03469(14) 1.294(4)
C41A C 0.3445(8) -0.04387(18) 1.214(4)
H31A H 0.3537 -0.0465 1.0953
C42A C 0.3177(7) -0.04889(18) 1.317(4)
H32A H 0.3096 -0.0551 1.2693
C43A C 0.3030(5) -0.04498(15) 1.486(4)
C44A C 0.3172(6) -0.03609(17) 1.567(5)
H33A H 0.3093 -0.0338 1.6914
C45A C 0.3433(6) -0.0305(2) 1.465(5)
H34A H 0.3509 -0.0242 1.5114
C46A C 0.2733(5) -0.04973(15) 1.590(4)
H35A H 0.2621 -0.0458 1.6863
C47A C 0.2604(4) -0.05905(12) 1.562(3)
H36A H 0.2699 -0.0629 1.4586
C48A C 0.2321(4) -0.06378(12) 1.683(3)
O10A O 0.2263(3) -0.07308(8) 1.675(2)
Cd1A Cd 0.19873(3) -0.084360(7) 1.4347(15)
Cd3A Cd 0.17493(3) -0.070320(7) 1.9083(15)
O3J O 0.5935(4) 0.16464(8) 2.772(3)
O4J O 0.5823(3) 0.15413(10) 3.015(2)
N2J N 0.7839(4) 0.09724(9) 1.640(2)
C17J C 0.7660(7) 0.09591(16) 1.815(3)
H13J H 0.7638 0.0892 1.8608
C18J C 0.7517(5) 0.10306(13) 1.925(3)
H14J H 0.7429 0.1014 2.0510
C19J C 0.7496(5) 0.11286(13) 1.859(3)
C20J C 0.7680(5) 0.11466(11) 1.680(4)
H15J H 0.7686 0.1213 1.6308
C21J C 0.7849(5) 0.10715(12) 1.573(3)
H16J H 0.7970 0.1087 1.4555
C22J C 0.7312(5) 0.12102(12) 1.963(3)
H17J H 0.7304 0.1274 1.9014
C23J C 0.7153(4) 0.12009(12) 2.140(3)
H18J H 0.7177 0.1138 2.2013
C24J C 0.6945(4) 0.12774(12) 2.251(3)
C25J C 0.6816(5) 0.12505(14) 2.440(3)
H19J H 0.6870 0.1187 2.4944
C26J C 0.6608(5) 0.13182(13) 2.543(3)
H20J H 0.6522 0.1301 2.6691
C27J C 0.6525(4) 0.14113(12) 2.464(3)
C28J C 0.6642(6) 0.14369(17) 2.274(3)
H21J H 0.6574 0.1499 2.2177
C29J C 0.6859(5) 0.13709(13) 2.170(3)
H22J H 0.6946 0.1389 2.0450
C30J C 0.6305(5) 0.14891(11) 2.575(3)
H23J H 0.6281 0.1553 2.5170
C31J C 0.6146(4) 0.14744(13) 2.746(3)
H24J H 0.6149 0.1410 2.8045
C32J C 0.5955(4) 0.15620(10) 2.849(3)
O1_2 O 0.7784(3) 0.07415(8) 2.174(2)
O2_2 O 0.7416(3) 0.08559(9) 2.306(2)
N1_2 N 0.4767(6) 0.05026(19) 1.098(5)
C1_2 C 0.5063(7) 0.0459(4) 1.083(7)
H1_2 H 0.5102 0.0411 0.9839
C2_2 C 0.5337(8) 0.0484(3) 1.219(6)
H2_2 H 0.5554 0.0450 1.2041
C3_2 C 0.5311(5) 0.0552(2) 1.369(5)
C4_2 C 0.4974(6) 0.05912(18) 1.384(5)
H3_2 H 0.4925 0.0635 1.4894
C5_2 C 0.4715(6) 0.0570(2) 1.258(6)
H4_2 H 0.4493 0.0600 1.2760
C6_2 C 0.5618(5) 0.0571(2) 1.499(4)
H5_2 H 0.5835 0.0545 1.4541
C7_2 C 0.5624(6) 0.0616(2) 1.664(5)
H6_2 H 0.5405 0.0633 1.7193
C8_2 C 0.5944(5) 0.0647(2) 1.780(5)
C9_2 C 0.6268(6) 0.0625(3) 1.723(5)
H7_2 H 0.6305 0.0589 1.6049
C10_2 C 0.6565(5) 0.0655(2) 1.840(4)
H8_2 H 0.6791 0.0631 1.8063
C11_2 C 0.6531(5) 0.0717(2) 1.996(4)
C12_2 C 0.6187(6) 0.0742(2) 2.073(5)
H9_2 H 0.6157 0.0781 2.1875
C13_2 C 0.5887(4) 0.0703(2) 1.961(4)
H10_2 H 0.5656 0.0714 2.0075
C14_2 C 0.6851(5) 0.07647(16) 2.106(3)
H11_2 H 0.6810 0.0816 2.1982
C15_2 C 0.7179(4) 0.07347(14) 2.073(3)
H12_2 H 0.7225 0.0685 1.9783
C16_2 C 0.7469(4) 0.07795(12) 2.186(3)
O6A O 0.1560(3) -0.07550(9) 1.598(2)
O7A O 0.1099(3) -0.07015(9) 1.762(2)
N4A N -0.1028(6) -0.1207(2) 0.422(4)
C49A C -0.0688(5) -0.1192(2) 0.363(4)
H37A H -0.0607 -0.1218 0.2421
C50A C -0.0463(6) -0.1137(2) 0.487(3)
H38A H -0.0226 -0.1131 0.4493
C51A C -0.0565(5) -0.1090(2) 0.664(3)
C52A C -0.0922(6) -0.1104(4) 0.697(6)
H39A H -0.1020 -0.1072 0.8068
C53A C -0.1138(9) -0.1160(3) 0.588(4)
H40A H -0.1375 -0.1167 0.6269
C54A C -0.0290(11) -0.1036(2) 0.769(5)
H41A H -0.0066 -0.1035 0.7101
C55A C -0.0320(7) -0.0989(3) 0.935(5)
H42A H -0.0546 -0.0992 0.9919
C56A C -0.0065(6) -0.0933(2) 1.047(5)
C57A C 0.0293(6) -0.0913(2) 0.994(4)
H43A H 0.0376 -0.0933 0.8691
C58A C 0.0516(4) -0.08651(16) 1.120(3)
H44A H 0.0749 -0.0853 1.0808
C59A C 0.0399(4) -0.08330(16) 1.313(4)
C60A C 0.0053(5) -0.0850(2) 1.373(4)
H45A H -0.0026 -0.0831 1.4994
C61A C -0.0174(6) -0.0896(2) 1.232(5)
H46A H -0.0414 -0.0902 1.2651
C62A C 0.0654(4) -0.07883(12) 1.460(4)
H47A H 0.0554 -0.0761 1.5751
C63A C 0.1002(4) -0.07833(11) 1.447(3)
H48A H 0.1113 -0.0805 1.3297
C64A C 0.1226(4) -0.07439(12) 1.616(3)
O3_2 O 0.8435(4) 0.08536(8) 2.022(3)
N5H N 0.8460(3) 0.05966(10) 2.141(3)
Cd3_2 Cd 0.82507(3) 0.070320(7) 0.9083(15)
Cd1B Cd 1.05127(3) 0.165640(7) -0.3153(15)
Cd3H Cd 0.32507(3) 0.070320(7) -1.5917(15)
Cd3I Cd 0.67493(3) -0.070320(7) -1.5917(15)
O1A O 0.2216(3) -0.07415(8) 1.174(2)
O2A O 0.2584(3) -0.08559(9) 1.306(2)
O4A O 0.1677(3) -0.09587(10) 1.265(2)
N2G N 0.2161(4) -0.09724(9) 1.640(2)
O1A_2 O 0.2216(3) -0.07415(8) 2.174(2)
O3A O 0.1565(4) -0.08536(8) 2.022(3)
N5I N 0.1540(3) -0.05966(10) 2.141(3)
Cd3J Cd 0.57507(3) 0.179680(7) 2.6583(15)
Cd1J Cd 0.55127(3) 0.165640(7) 3.1847(15)
Cd1_2 Cd 0.80127(3) 0.084360(7) 2.4347(15)
O11 O 0.1848(6) 0.09784(19) -0.062(5)
C81 C 0.1734(10) 0.0934(3) 0.109(6)
C82 C 0.1417(16) 0.0981(5) 0.181(11)
O12 O 0.1271(11) 0.0042(3) -0.042(7)
O13 O 0.182(4) 0.0018(11) -0.31(3)
O14 O 0.158(3) 0.0037(9) -0.665(18)
O15 O 0.251(10) -0.010(3) -0.94(7)
O16 O 0.275(3) 0.0192(10) 0.076(19)
O17 O 0.267(4) 0.0252(11) -0.27(3)
O18 O 0.263(3) 0.0330(10) -0.49(2)
loop_
_geom_bond_atom_site_label_1
_geom_bond_atom_site_label_2
_geom_bond_site_symmetry_1
_geom_bond_site_symmetry_2
Cd1 O1 1_555 1_555
Cd2 O8 1_555 1_555
Cd3 O5 1_555 1_555
O1 C16 1_555 1_555
O2 Cd1 1_555 1_555
O3 C32 1_555 1_555
O4 Cd1 1_555 1_555
O5 C48 1_555 1_555
O6 Cd1 1_555 1_555
O7 Cd3 1_555 1_555
O8 C80 1_555 1_555
O9 Cd2 1_555 1_555
N1 C1 1_555 1_555
N2 C17 1_555 1_555
N3 Cd2 1_555 1_555
N4 C49 1_555 1_555
N5 C65 1_555 1_555
C1 H1 1_555 1_555
C2 C1 1_555 1_555
H2 C2 1_555 1_555
C3 C2 1_555 1_555
C4 C3 1_555 1_555
H3 C4 1_555 1_555
C5 N1 1_555 1_555
H4 C5 1_555 1_555
C6 C3 1_555 1_555
H5 C6 1_555 1_555
C7 C6 1_555 1_555
H6 C7 1_555 1_555
C8 C7 1_555 1_555
C9 C8 1_555 1_555
H7 C9 1_555 1_555
C10 C9 1_555 1_555
H8 C10 1_555 1_555
C11 C10 1_555 1_555
C12 C11 1_555 1_555
H9 C12 1_555 1_555
C13 C8 1_555 1_555
H10 C13 1_555 1_555
C14 C11 1_555 1_555
H11 C14 1_555 1_555
C15 C14 1_555 1_555
H12 C15 1_555 1_555
C16 O2 1_555 1_555
C17 H13 1_555 1_555
C18 C17 1_555 1_555
H14 C18 1_555 1_555
C19 C18 1_555 1_555
C20 C19 1_555 1_555
H15 C20 1_555 1_555
C21 N2 1_555 1_555
H16 C21 1_555 1_555
C22 C19 1_555 1_555
H17 C22 1_555 1_555
C23 C22 1_555 1_555
H18 C23 1_555 1_555
C24 C23 1_555 1_555
C25 C24 1_555 1_555
H19 C25 1_555 1_555
C26 C25 1_555 1_555
H20 C26 1_555 1_555
C27 C26 1_555 1_555
C28 C27 1_555 1_555
H21 C28 1_555 1_555
C29 C24 1_555 1_555
H22 C29 1_555 1_555
C30 C27 1_555 1_555
H23 C30 1_555 1_555
C31 C30 1_555 1_555
H24 C31 1_555 1_555
C32 O4 1_555 1_555
C33 N3 1_555 1_555
H25 C33 1_555 1_555
C34 C33 1_555 1_555
H26 C34 1_555 1_555
C35 C34 1_555 1_555
C36 C35 1_555 1_555
H27 C36 1_555 1_555
C37 N3 1_555 1_555
H28 C37 1_555 1_555
C38 C35 1_555 1_555
H29 C38 1_555 1_555
C39 C38 1_555 1_555
H30 C39 1_555 1_555
C40 C39 1_555 1_555
C41 C40 1_555 1_555
H31 C41 1_555 1_555
C42 C41 1_555 1_555
H32 C42 1_555 1_555
C43 C42 1_555 1_555
C44 C43 1_555 1_555
H33 C44 1_555 1_555
C45 C40 1_555 1_555
H34 C45 1_555 1_555
C46 C43 1_555 1_555
H35 C46 1_555 1_555
C47 C46 1_555 1_555
H36 C47 1_555 1_555
C48 C47 1_555 1_555
C49 H37 1_555 1_555
C50 C49 1_555 1_555
H38 C50 1_555 1_555
C51 C50 1_555 1_555
C52 C51 1_555 1_555
H39 C52 1_555 1_555
C53 N4 1_555 1_555
H40 C53 1_555 1_555
C54 C51 1_555 1_555
H41 C54 1_555 1_555
C55 C54 1_555 1_555
H42 C55 1_555 1_555
C56 C55 1_555 1_555
C57 C56 1_555 1_555
H43 C57 1_555 1_555
C58 C57 1_555 1_555
H44 C58 1_555 1_555
C59 C58 1_555 1_555
C60 C59 1_555 1_555
H45 C60 1_555 1_555
C61 C56 1_555 1_555
H46 C61 1_555 1_555
C62 C59 1_555 1_555
H47 C62 1_555 1_555
C63 C62 1_555 1_555
H48 C63 1_555 1_555
C64 O6 1_555 1_555
C65 H49 1_555 1_555
C66 C65 1_555 1_555
H50 C66 1_555 1_555
C67 C66 1_555 1_555
C68 C67 1_555 1_555
H51 C68 1_555 1_555
C69 N5 1_555 1_555
H52 C69 1_555 1_555
C70 C67 1_555 1_555
H53 C70 1_555 1_555
C71 C70 1_555 1_555
H54 C71 1_555 1_555
C72 C71 1_555 1_555
C73 C72 1_555 1_555
H55 C73 1_555 1_555
C74 C73 1_555 1_555
H56 C74 1_555 1_555
C75 C74 1_555 1_555
C76 C75 1_555 1_555
H57 C76 1_555 1_555
C77 C72 1_555 1_555
H58 C77 1_555 1_555
C78 C75 1_555 1_555
H59 C78 1_555 1_555
C79 C78 1_555 1_555
H60 C79 1_555 1_555
C80 O9 1_555 1_555
O10 Cd1 1_555 1_555
O11 C81 1_555 1_555
C81 C82 1_555 1_555
O8A Cd2 1_555 1_555
O9A Cd2 1_555 1_555
N5A C65A 1_555 1_555
C65A H49A 1_555 1_555
C66A C65A 1_555 1_555
H50A C66A 1_555 1_555
C67A C66A 1_555 1_555
C68A C67A 1_555 1_555
H51A C68A 1_555 1_555
C69A N5A 1_555 1_555
H52A C69A 1_555 1_555
C70A C67A 1_555 1_555
H53A C70A 1_555 1_555
C71A C70A 1_555 1_555
H54A C71A 1_555 1_555
C72A C71A 1_555 1_555
C73A C72A 1_555 1_555
H55A C73A 1_555 1_555
C74A C73A 1_555 1_555
H56A C74A 1_555 1_555
C75A C74A 1_555 1_555
C76A C75A 1_555 1_555
H57A C76A 1_555 1_555
C77A C72A 1_555 1_555
H58A C77A 1_555 1_555
C78A C75A 1_555 1_555
H59A C78A 1_555 1_555
C79A C78A 1_555 1_555
H60A C79A 1_555 1_555
C80A O8A 1_555 1_555
O5A C48A 1_555 1_555
N3A Cd2 1_555 1_555
C33A N3A 1_555 1_555
H25A C33A 1_555 1_555
C34A C33A 1_555 1_555
H26A C34A 1_555 1_555
C35A C34A 1_555 1_555
C36A C35A 1_555 1_555
H27A C36A 1_555 1_555
C37A N3A 1_555 1_555
H28A C37A 1_555 1_555
C38A C35A 1_555 1_555
H29A C38A 1_555 1_555
C39A C38A 1_555 1_555
H30A C39A 1_555 1_555
C40A C39A 1_555 1_555
C41A C40A 1_555 1_555
H31A C41A 1_555 1_555
C42A C41A 1_555 1_555
H32A C42A 1_555 1_555
C43A C42A 1_555 1_555
C44A C43A 1_555 1_555
H33A C44A 1_555 1_555
C45A C40A 1_555 1_555
H34A C45A 1_555 1_555
C46A C43A 1_555 1_555
H35A C46A 1_555 1_555
C47A C46A 1_555 1_555
H36A C47A 1_555 1_555
C48A C47A 1_555 1_555
O10A C48A 1_555 1_555
Cd1A O10A 1_555 1_555
Cd3A O5A 1_555 1_555
O3J C32J 1_555 1_555
O4J C32J 1_555 1_555
N2J Cd1 1_555 1_555
C17J N2J 1_555 1_555
H13J C17J 1_555 1_555
C18J C17J 1_555 1_555
H14J C18J 1_555 1_555
C19J C18J 1_555 1_555
C20J C19J 1_555 1_555
H15J C20J 1_555 1_555
C21J N2J 1_555 1_555
H16J C21J 1_555 1_555
C22J C19J 1_555 1_555
H17J C22J 1_555 1_555
C23J C22J 1_555 1_555
H18J C23J 1_555 1_555
C24J C23J 1_555 1_555
C25J C24J 1_555 1_555
H19J C25J 1_555 1_555
C26J C25J 1_555 1_555
H20J C26J 1_555 1_555
C27J C26J 1_555 1_555
C28J C27J 1_555 1_555
H21J C28J 1_555 1_555
C29J C24J 1_555 1_555
H22J C29J 1_555 1_555
C30J C27J 1_555 1_555
H23J C30J 1_555 1_555
C31J C30J 1_555 1_555
H24J C31J 1_555 1_555
C32J C31J 1_555 1_555
O1_2 Cd3 1_555 1_555
O2_2 C16_2 1_555 1_555
N1_2 C1_2 1_555 1_555
C1_2 H1_2 1_555 1_555
C2_2 C1_2 1_555 1_555
H2_2 C2_2 1_555 1_555
C3_2 C2_2 1_555 1_555
C4_2 C3_2 1_555 1_555
H3_2 C4_2 1_555 1_555
C5_2 N1_2 1_555 1_555
H4_2 C5_2 1_555 1_555
C6_2 C3_2 1_555 1_555
H5_2 C6_2 1_555 1_555
C7_2 C6_2 1_555 1_555
H6_2 C7_2 1_555 1_555
C8_2 C7_2 1_555 1_555
C9_2 C8_2 1_555 1_555
H7_2 C9_2 1_555 1_555
C10_2 C9_2 1_555 1_555
H8_2 C10_2 1_555 1_555
C11_2 C10_2 1_555 1_555
C12_2 C11_2 1_555 1_555
H9_2 C12_2 1_555 1_555
C13_2 C8_2 1_555 1_555
H10_2 C13_2 1_555 1_555
C14_2 C11_2 1_555 1_555
H11_2 C14_2 1_555 1_555
C15_2 C14_2 1_555 1_555
H12_2 C15_2 1_555 1_555
C16_2 O1_2 1_555 1_555
O6A Cd1A 1_555 1_555
O7A Cd3A 1_555 1_555
N4A C49A 1_555 1_555
C49A H37A 1_555 1_555
C50A C49A 1_555 1_555
H38A C50A 1_555 1_555
C51A C50A 1_555 1_555
C52A C51A 1_555 1_555
H39A C52A 1_555 1_555
C53A N4A 1_555 1_555
H40A C53A 1_555 1_555
C54A C51A 1_555 1_555
H41A C54A 1_555 1_555
C55A C54A 1_555 1_555
H42A C55A 1_555 1_555
C56A C55A 1_555 1_555
C57A C56A 1_555 1_555
H43A C57A 1_555 1_555
C58A C57A 1_555 1_555
H44A C58A 1_555 1_555
C59A C58A 1_555 1_555
C60A C59A 1_555 1_555
H45A C60A 1_555 1_555
C61A C56A 1_555 1_555
H46A C61A 1_555 1_555
C62A C59A 1_555 1_555
H47A C62A 1_555 1_555
C63A C62A 1_555 1_555
H48A C63A 1_555 1_555
C64A O6A 1_555 1_555
O3_2 Cd3 1_555 1_555
N5H Cd3 1_555 1_555
Cd3_2 O1 1_555 1_555
Cd1B N2 1_555 1_555
Cd3H N5 1_555 1_555
Cd3I N5A 1_555 1_555
O1A Cd1A 1_555 1_555
O2A Cd1A 1_555 1_555
O4A Cd1A 1_555 1_555
N2G Cd1A 1_555 1_555
O1A_2 Cd3A 1_555 1_555
O3A Cd3A 1_555 1_555
N5I Cd3A 1_555 1_555
Cd3J O3J 1_555 1_555
Cd1J O4J 1_555 1_555
Cd1_2 O1_2 1_555 1_555
Cd3 O10 1_555 1_555
Cd3 O6 1_555 1_555
O3 Cd3_2 1_555 1_555
O7 C64 1_555 1_555
C4 C5 1_555 1_555
C12 C13 1_555 1_555
C15 C16 1_555 1_555
C20 C21 1_555 1_555
C28 C29 1_555 1_555
C31 C32 1_555 1_555
C36 C37 1_555 1_555
C44 C45 1_555 1_555
C48 O10 1_555 1_555
C52 C53 1_555 1_555
C60 C61 1_555 1_555
C63 C64 1_555 1_555
C68 C69 1_555 1_555
C76 C77 1_555 1_555
C79 C80 1_555 1_555
O9A C80A 1_555 1_555
C68A C69A 1_555 1_555
C76A C77A 1_555 1_555
C79A C80A 1_555 1_555
C36A C37A 1_555 1_555
C44A C45A 1_555 1_555
O10A Cd3A 1_555 1_555
Cd3A O6A 1_555 1_555
C20J C21J 1_555 1_555
C28J C29J 1_555 1_555
O2_2 Cd1_2 1_555 1_555
C4_2 C5_2 1_555 1_555
C12_2 C13_2 1_555 1_555
C15_2 C16_2 1_555 1_555
O7A C64A 1_555 1_555
C52A C53A 1_555 1_555
C60A C61A 1_555 1_555
C63A C64A 1_555 1_555

#END
