
#######################################################################
#
#                 Cambridge Crystallographic Data Centre
#                                CCDC 
#
#######################################################################
#
# If this CIF has been generated from an entry in the Cambridge 
# Structural Database, then it will include bibliographic, chemical, 
# crystal, experimental, refinement or atomic coordinate data resulting 
# from the CCDC's data processing and validation procedures.
#
#######################################################################

data_ICEGED
_symmetry_cell_setting           triclinic
_symmetry_space_group_name_H-M   'P -1'
_symmetry_Int_Tables_number      2
_space_group_name_Hall           '-P 1'
loop_
_symmetry_equiv_pos_site_id
_symmetry_equiv_pos_as_xyz
1 x,y,z
2 -x,-y,-z
_cell_length_a                   11.8400(6)
_cell_length_b                   12.3247(6)
_cell_length_c                   13.7362(6)
_cell_angle_alpha                92.6150(10)
_cell_angle_beta                 112.6750(10)
_cell_angle_gamma                109.0400(10)
_cell_volume                     1714.25
loop_
_atom_site_label
_atom_site_type_symbol
_atom_site_fract_x
_atom_site_fract_y
_atom_site_fract_z
Cd1 Cd 0.0000 0.5000 0.5000
Cd2 Cd -0.115087(16) 0.766684(14) 0.539164(13)
N1 N -0.2541(2) 0.47723(19) 0.26674(16)
N2 N -0.1839(2) 0.53012(18) 0.36988(16)
N3 N -0.20958(19) 0.62361(18) 0.38698(16)
N4 N -0.2971(2) 0.63512(19) 0.29502(17)
C1 C -0.3223(2) 0.5444(2) 0.22303(19)
C2 C -0.4133(2) 0.5216(2) 0.10845(19)
C3 C -0.4733(3) 0.6002(2) 0.0687(2)
H1 H -0.4553 0.6690 0.1153
C4 C -0.4403(3) 0.4225(2) 0.0394(2)
H2 H -0.3993 0.3688 0.0660
N5 N -0.0669(2) 0.65206(19) 0.76034(17)
N6 N -0.0729(2) 0.64337(19) 0.66103(17)
N7 N -0.0521(2) 0.54930(18) 0.63721(16)
N8 N -0.0313(2) 0.49386(19) 0.71902(17)
C5 C -0.0407(2) 0.5587(2) 0.7934(2)
C6 C -0.0197(3) 0.5305(2) 0.9002(2)
C7 C 0.0635(3) 0.4705(2) 0.9432(2)
H3 H 0.1078 0.4511 0.9044
C8 C -0.0823(3) 0.5610(2) 0.9582(2)
H4 H -0.1378 0.6034 0.9301
N9 N -0.2337(2) 0.26274(18) 0.49062(18)
N10 N -0.11887(19) 0.29937(17) 0.48325(17)
N11 N -0.08357(19) 0.20961(17) 0.47289(17)
N12 N -0.1751(2) 0.11209(18) 0.47392(17)
C9 C -0.2661(2) 0.1472(2) 0.4845(2)
C10 C -0.3861(2) 0.0706(2) 0.4919(2)
C11 C -0.4053(3) -0.0442(2) 0.5037(2)
H5 H -0.3405 -0.0750 0.5064
C12 C -0.4816(3) 0.1139(2) 0.4887(2)
H6 H -0.4691 0.1927 0.4811
O1 O -0.0081(2) 0.91649(18) 0.68404(17)
C13 C -0.0228(3) 1.0082(3) 0.6948(2)
H7 H -0.0988 1.0155 0.6417
N13 N 0.0577(2) 1.0988(2) 0.7741(2)
C14 C 0.0303(4) 1.2055(3) 0.7787(3)
H8 H -0.0536 1.1946 0.7183
H9 H 0.1014 1.2707 0.7742
H10 H 0.0247 1.2230 0.8466
C15 C 0.1778(4) 1.0978(4) 0.8566(3)
H11 H 0.1839 1.0214 0.8443
H12 H 0.1774 1.1122 0.9272
H13 H 0.2536 1.1592 0.8543
O2 O -0.31327(18) 0.72231(19) 0.55471(16)
C16 C -0.3130(3) 0.7310(3) 0.6447(2)
H14 H -0.2349 0.7837 0.7026
N14 N -0.4132(2) 0.6724(2) 0.6671(2)
C17 C -0.4021(4) 0.6860(4) 0.7768(3)
H15 H -0.3149 0.7437 0.8250
H16 H -0.4134 0.6106 0.8000
H17 H -0.4705 0.7128 0.7793
C18 C -0.5367(3) 0.5897(3) 0.5842(3)
H18 H -0.5321 0.5883 0.5145
H19 H -0.6092 0.6136 0.5808
H20 H -0.5523 0.5114 0.6016
O5 O -0.1711(2) 0.88724(18) 0.42290(17)
H32 H -0.169(3) 0.951(3) 0.441(3)
H33 H -0.236(4) 0.856(3) 0.370(3)
C4A C -0.5597(3) 0.5775(2) -0.0394(2)
C2A C -0.5867(2) 0.4784(2) -0.10845(19)
C1A C -0.6777(2) 0.4556(2) -0.22303(19)
N1A N -0.7459(2) 0.52277(19) -0.26674(16)
N2A N -0.8161(2) 0.46988(18) -0.36988(16)
N3A N -0.79042(19) 0.37639(18) -0.38698(16)
N4A N -0.7029(2) 0.36488(19) -0.29502(17)
C3A C -0.5267(3) 0.3998(2) -0.0687(2)
H1A H -0.5447 0.3310 -0.1153
H2A H -0.6007 0.6312 -0.0660
C8A C 0.0823(3) 0.4390(2) 1.0418(2)
C6A C 0.0197(3) 0.4695(2) 1.0998(2)
C5A C 0.0407(2) 0.4413(2) 1.2066(2)
N5A N 0.0669(2) 0.34794(19) 1.23966(17)
N6A N 0.0729(2) 0.35663(19) 1.33897(17)
N7A N 0.0521(2) 0.45070(18) 1.36279(16)
N8A N 0.0313(2) 0.50614(19) 1.28098(17)
C7A C -0.0635(3) 0.5295(2) 1.0568(2)
H3A H -0.1078 0.5489 1.0956
H4A H 0.1378 0.3966 1.0699
C12A C -0.5184(3) -0.1139(2) 0.5113(2)
C10A C -0.6139(2) -0.0706(2) 0.5081(2)
C9A C -0.7339(2) -0.1472(2) 0.5155(2)
N9A N -0.7663(2) -0.26274(18) 0.50938(18)
N10A N -0.88113(19) -0.29937(17) 0.51675(17)
N11A N -0.91643(19) -0.20961(17) 0.52711(17)
N12A N -0.8249(2) -0.11209(18) 0.52608(17)
C11A C -0.5947(3) 0.0442(2) 0.4963(2)
H5A H -0.6595 0.0750 0.4936
H6A H -0.5309 -0.1927 0.5189
Cd2A Cd -0.884913(16) 0.233316(14) -0.539164(13)
O1A O -0.9919(2) 0.08351(18) -0.68404(17)
C13A C -0.9772(3) -0.0082(3) -0.6948(2)
H7A H -0.9012 -0.0155 -0.6417
N13A N -1.0577(2) -0.0988(2) -0.7741(2)
C14A C -1.0303(4) -0.2055(3) -0.7787(3)
H8A H -0.9464 -0.1946 -0.7183
H9A H -1.1014 -0.2707 -0.7742
H10A H -1.0247 -0.2230 -0.8466
C15A C -1.1778(4) -0.0978(4) -0.8566(3)
H11A H -1.1839 -0.0214 -0.8443
H12A H -1.1774 -0.1122 -0.9272
H13A H -1.2536 -0.1592 -0.8543
O2A O -0.68673(18) 0.27769(19) -0.55471(16)
C16A C -0.6870(3) 0.2690(3) -0.6447(2)
H14A H -0.7651 0.2163 -0.7026
N14A N -0.5868(2) 0.3276(2) -0.6671(2)
C17A C -0.5979(4) 0.3140(4) -0.7768(3)
H15A H -0.6851 0.2563 -0.8250
H16A H -0.5866 0.3894 -0.8000
H17A H -0.5295 0.2872 -0.7793
C18A C -0.4633(3) 0.4103(3) -0.5842(3)
H18A H -0.4679 0.4117 -0.5145
H19A H -0.3908 0.3864 -0.5808
H20A H -0.4477 0.4886 -0.6016
O5A O -0.8289(2) 0.11276(18) -0.42290(17)
H32A H -0.831(3) 0.049(3) -0.441(3)
H33A H -0.764(4) 0.144(3) -0.370(3)
N2A_2 N 0.1839(2) 0.46988(18) 0.63012(16)
N7A_2 N 0.0521(2) 0.45070(18) 0.36279(16)
N10A_2 N 0.11887(19) 0.70063(17) 0.51675(17)
N11A_2 N 0.08357(19) 0.79039(17) 0.52711(17)
Cd2A_2 Cd 0.115087(16) 0.233316(14) 0.460836(13)
Cd1_2 Cd -1.0000 0.5000 -0.5000
Cd2A_3 Cd 0.115087(16) 0.233316(14) 1.460836(13)
Cd1_3 Cd 0.0000 0.5000 1.5000
Cd1_4 Cd -1.0000 -0.5000 0.5000
Cd2_2 Cd -1.115087(16) -0.233316(14) 0.539164(13)
N6A_2 N -0.9271(2) 0.35663(19) -0.66103(17)
N11_2 N -1.08357(19) 0.20961(17) -0.52711(17)
O3 O -0.5804(3) 0.0761(2) 0.0924(2)
C19 C -0.5033(3) 0.1161(3) 0.0530(3)
H21 H -0.5393 0.1172 -0.0217
N15 N -0.3731(3) 0.1581(2) 0.1061(2)
C20 C -0.2878(4) 0.2026(4) 0.0532(4)
H22 H -0.3416 0.1953 -0.0235
H23 H -0.2313 0.1574 0.0616
H24 H -0.2328 0.2851 0.0857
C21 C -0.3085(5) 0.1623(4) 0.2199(3)
H25 H -0.3751 0.1298 0.2473
H26 H -0.2541 0.2437 0.2571
H27 H -0.2524 0.1162 0.2326
O4 O -0.5884(2) 0.1386(2) 0.75313(19)
C22 C -0.4804(3) 0.1407(3) 0.7612(3)
H28 H -0.4615 0.0723 0.7752
N16 N -0.3878(3) 0.2307(2) 0.7521(2)
C23 C -0.4091(4) 0.3369(3) 0.7275(4)
H29 H -0.4982 0.3283 0.7178
H30 H -0.3994 0.3519 0.6612
H31 H -0.3441 0.4025 0.7868
C24 C -0.2612(3) 0.2266(4) 0.7688(3)
H38 H -0.2594 0.1503 0.7848
H39 H -0.1913 0.2887 0.8293
H40 H -0.2471 0.2379 0.7036
O6 O -0.0521(3) 0.8447(3) 0.9156(3)
H34 H -0.042(5) 0.804(4) 0.866(4)
H35 H 0.014(6) 0.873(5) 0.962(4)
O7 O -0.8304(3) -0.0119(3) 0.1003(3)
H36 H -0.851(5) 0.044(4) 0.098(4)
H37 H -0.762(6) 0.019(5) 0.087(4)
loop_
_geom_bond_atom_site_label_1
_geom_bond_atom_site_label_2
_geom_bond_site_symmetry_1
_geom_bond_site_symmetry_2
Cd1 N2 1_555 1_555
Cd2 N3 1_555 1_555
N1 N2 1_555 1_555
N2 N3 1_555 1_555
N3 N4 1_555 1_555
N4 C1 1_555 1_555
C1 N1 1_555 1_555
C2 C1 1_555 1_555
C3 C2 1_555 1_555
H1 C3 1_555 1_555
C4 C2 1_555 1_555
H2 C4 1_555 1_555
N5 N6 1_555 1_555
N6 Cd2 1_555 1_555
N7 Cd1 1_555 1_555
N8 N7 1_555 1_555
C5 N5 1_555 1_555
C6 C5 1_555 1_555
C7 C6 1_555 1_555
H3 C7 1_555 1_555
C8 C6 1_555 1_555
H4 C8 1_555 1_555
N9 N10 1_555 1_555
N10 Cd1 1_555 1_555
N11 N10 1_555 1_555
N12 N11 1_555 1_555
C9 N9 1_555 1_555
C10 C9 1_555 1_555
C11 C10 1_555 1_555
H5 C11 1_555 1_555
C12 C10 1_555 1_555
H6 C12 1_555 1_555
O1 Cd2 1_555 1_555
C13 O1 1_555 1_555
H7 C13 1_555 1_555
N13 C13 1_555 1_555
C14 N13 1_555 1_555
H8 C14 1_555 1_555
H9 C14 1_555 1_555
H10 C14 1_555 1_555
C15 N13 1_555 1_555
H11 C15 1_555 1_555
H12 C15 1_555 1_555
H13 C15 1_555 1_555
O2 Cd2 1_555 1_555
C16 O2 1_555 1_555
H14 C16 1_555 1_555
N14 C16 1_555 1_555
C17 N14 1_555 1_555
H15 C17 1_555 1_555
H16 C17 1_555 1_555
H17 C17 1_555 1_555
C18 N14 1_555 1_555
H18 C18 1_555 1_555
H19 C18 1_555 1_555
H20 C18 1_555 1_555
O3 C19 1_555 1_555
C19 H21 1_555 1_555
N15 C19 1_555 1_555
C20 N15 1_555 1_555
H22 C20 1_555 1_555
H23 C20 1_555 1_555
H24 C20 1_555 1_555
C21 N15 1_555 1_555
H25 C21 1_555 1_555
H26 C21 1_555 1_555
H27 C21 1_555 1_555
O4 C22 1_555 1_555
C22 H28 1_555 1_555
N16 C22 1_555 1_555
C23 N16 1_555 1_555
H29 C23 1_555 1_555
H30 C23 1_555 1_555
H31 C23 1_555 1_555
O5 Cd2 1_555 1_555
H32 O5 1_555 1_555
H33 O5 1_555 1_555
O6 H34 1_555 1_555
H35 O6 1_555 1_555
O7 H36 1_555 1_555
H37 O7 1_555 1_555
C24 N16 1_555 1_555
H38 C24 1_555 1_555
H39 C24 1_555 1_555
H40 C24 1_555 1_555
C4A C3 1_555 1_555
C2A C4A 1_555 1_555
C1A C2A 1_555 1_555
N1A C1A 1_555 1_555
N2A N1A 1_555 1_555
N3A N2A 1_555 1_555
N4A C1A 1_555 1_555
C3A C4 1_555 1_555
H1A C3A 1_555 1_555
H2A C4A 1_555 1_555
C8A C7 1_555 1_555
C6A C8A 1_555 1_555
C5A C6A 1_555 1_555
N5A C5A 1_555 1_555
N6A N5A 1_555 1_555
N7A N6A 1_555 1_555
N8A C5A 1_555 1_555
C7A C8 1_555 1_555
H3A C7A 1_555 1_555
H4A C8A 1_555 1_555
C12A C11 1_555 1_555
C10A C12A 1_555 1_555
C9A C10A 1_555 1_555
N9A C9A 1_555 1_555
N10A N9A 1_555 1_555
N11A N10A 1_555 1_555
N12A C9A 1_555 1_555
C11A C12 1_555 1_555
H5A C11A 1_555 1_555
H6A C12A 1_555 1_555
Cd2A N3A 1_555 1_555
O1A Cd2A 1_555 1_555
C13A O1A 1_555 1_555
H7A C13A 1_555 1_555
N13A C13A 1_555 1_555
C14A N13A 1_555 1_555
H8A C14A 1_555 1_555
H9A C14A 1_555 1_555
H10A C14A 1_555 1_555
C15A N13A 1_555 1_555
H11A C15A 1_555 1_555
H12A C15A 1_555 1_555
H13A C15A 1_555 1_555
O2A Cd2A 1_555 1_555
C16A O2A 1_555 1_555
H14A C16A 1_555 1_555
N14A C16A 1_555 1_555
C17A N14A 1_555 1_555
H15A C17A 1_555 1_555
H16A C17A 1_555 1_555
H17A C17A 1_555 1_555
C18A N14A 1_555 1_555
H18A C18A 1_555 1_555
H19A C18A 1_555 1_555
H20A C18A 1_555 1_555
O5A Cd2A 1_555 1_555
H32A O5A 1_555 1_555
H33A O5A 1_555 1_555
N2A_2 Cd1 1_555 1_555
N7A_2 Cd1 1_555 1_555
N10A_2 Cd1 1_555 1_555
N11A_2 Cd2 1_555 1_555
Cd2A_2 N11 1_555 1_555
Cd1_2 N2A 1_555 1_555
Cd2A_3 N6A 1_555 1_555
Cd1_3 N7A 1_555 1_555
Cd1_4 N10A 1_555 1_555
Cd2_2 N11A 1_555 1_555
N6A_2 Cd2A 1_555 1_555
N11_2 Cd2A 1_555 1_555
N6 N7 1_555 1_555
N8 C5 1_555 1_555
N12 C9 1_555 1_555
C2A C3A 1_555 1_555
N3A N4A 1_555 1_555
C6A C7A 1_555 1_555
N7A N8A 1_555 1_555
C10A C11A 1_555 1_555
N11A N12A 1_555 1_555
N10A_2 N11A_2 1_555 1_555

#END
