
#######################################################################
#
#                 Cambridge Crystallographic Data Centre
#                                CCDC 
#
#######################################################################
#
# If this CIF has been generated from an entry in the Cambridge 
# Structural Database, then it will include bibliographic, chemical, 
# crystal, experimental, refinement or atomic coordinate data resulting 
# from the CCDC's data processing and validation procedures.
#
#######################################################################

data_IDIWOH04
_symmetry_cell_setting           triclinic
_symmetry_space_group_name_H-M   'P 1'
_symmetry_Int_Tables_number      1
_space_group_name_Hall           'P 1'
loop_
_symmetry_equiv_pos_site_id
_symmetry_equiv_pos_as_xyz
1 x,y,z
_cell_length_a                   16.35110
_cell_length_b                   13.90337
_cell_length_c                   6.84990
_cell_angle_alpha                90.00001
_cell_angle_beta                 90.10788
_cell_angle_gamma                90
_cell_volume                     1557.22
loop_
_atom_site_label
_atom_site_type_symbol
_atom_site_fract_x
_atom_site_fract_y
_atom_site_fract_z
V1 V 0.748949 0.738884 0.218514
V2 V 0.748949 0.761073 0.718514
V3 V 0.248949 0.261072 0.218516
V4 V 0.248949 0.238884 0.718515
O1 O 0.661812 0.656414 0.331681
O2 O 1.161814 1.156412 -0.168317
O3 O 0.838154 0.665542 0.666276
O4 O 0.338156 0.165543 0.166278
O5 O 1.162740 0.337734 0.663367
O6 O 0.662742 -0.162265 0.163366
O7 O 0.332905 0.346760 0.335587
O8 O 0.832907 0.846758 -0.164415
O9 O 0.338154 0.334415 0.666277
O10 O 0.838156 0.834412 0.166276
O11 O 1.161812 0.343542 0.331683
O12 O 0.661814 -0.156455 -0.168319
O13 O 0.832905 0.653196 0.335585
O14 O 0.332907 0.153200 -0.164413
O15 O 0.662740 0.662224 0.663366
O16 O 1.162742 1.162221 0.163367
O17 O 0.748881 0.695777 0.993098
O18 O 0.248882 0.195777 0.493100
O19 O 0.248881 0.304179 0.993101
O20 O 0.748882 0.804179 0.493099
C1 C 0.528028 0.536214 0.326525
C2 C 1.028031 1.036210 -0.173475
C3 C 0.969735 0.536275 0.681339
C4 C 0.469732 0.036270 0.181341
C5 C 1.035227 0.472388 0.680620
C6 C 0.535224 -0.027617 0.180621
C7 C 0.462382 0.472927 0.327329
C8 C 0.962385 0.972923 -0.172671
C9 C 0.469733 0.463685 0.681340
C10 C 0.969735 0.963681 0.181340
C11 C 1.028024 0.463736 0.326527
C12 C 0.528034 -0.036249 -0.173476
C13 C 0.962377 0.527023 0.327330
C14 C 0.462387 0.027037 -0.172672
C15 C 0.535224 0.527572 0.680620
C16 C 1.035227 1.027568 0.180621
C17 C 0.564799 0.564022 0.503117
C18 C 0.634876 0.632379 0.499575
C19 C 1.064801 1.064019 0.003118
C20 C 1.134878 1.132376 -0.000424
C21 C 0.932923 0.563853 0.504653
C22 C 0.862952 0.632380 0.502529
C23 C 0.432926 0.063858 0.004654
C24 C 0.362955 0.132383 0.002529
C25 C 1.064798 0.435933 0.503118
C26 C 1.134876 0.367577 0.499576
C27 C 0.564801 -0.064062 0.003117
C28 C 0.634878 -0.132419 -0.000426
C29 C 0.432924 0.436102 0.504654
C30 C 0.362953 0.367576 0.502529
C31 C 0.932927 0.936098 0.004653
C32 C 0.862955 0.867573 0.002527
H1 H 0.551767 0.565361 0.190387
H2 H 1.051770 1.065357 -0.309612
H3 H 0.946144 0.565762 0.817398
H4 H 0.446135 0.065749 0.317402
H5 H 1.064667 0.450108 0.816080
H6 H 0.564659 -0.049905 0.316082
H7 H 0.432830 0.450965 0.191877
H8 H 0.932834 0.950961 -0.308124
H9 H 0.446139 0.434202 0.817401
H10 H 0.946141 0.934198 0.317400
H11 H 1.051760 0.434584 0.190390
H12 H 0.551775 -0.065393 -0.309614
H13 H 0.932823 0.548980 0.191878
H14 H 0.432838 0.049003 -0.308125
H15 H 0.564662 0.549857 0.816081
H16 H 1.064664 1.049853 0.316082
V1_2 V 0.748949 -0.261116 0.218514
V1_3 V 0.748949 0.738884 1.218514
V2_2 V 0.748949 -0.238927 -0.281486
V2_3 V 0.748949 0.761073 -0.281486
V3_2 V 0.248949 0.261072 1.218516
V3_3 V 1.248949 0.261072 0.218516
V3_4 V 1.248949 1.261072 0.218516
V4_2 V 0.248949 0.238884 -0.281485
V4_3 V 1.248949 0.238884 0.718515
V4_4 V 1.248949 1.238884 -0.281485
O2_2 O 0.161814 0.156412 0.831683
O5_2 O 0.162740 0.337734 0.663367
O6_2 O 0.662742 0.837735 0.163366
O8_2 O 0.832907 0.846758 0.835585
O11_2 O 0.161812 0.343542 0.331683
O12_2 O 0.661814 0.843545 0.831681
O14_2 O 0.332907 0.153200 0.835587
O16_2 O 0.162742 0.162221 0.163367
O17_2 O 0.748881 0.695777 -0.006902
O19_2 O 0.248881 0.304179 -0.006899
loop_
_geom_bond_atom_site_label_1
_geom_bond_atom_site_label_2
_geom_bond_site_symmetry_1
_geom_bond_site_symmetry_2
V1 O1 1_555 1_555
V2 O3 1_555 1_555
V3 O4 1_555 1_555
V4 O9 1_555 1_555
O1 C18 1_555 1_555
O2 C20 1_555 1_555
O3 C22 1_555 1_555
O4 C24 1_555 1_555
O5 C26 1_555 1_555
O6 C28 1_555 1_555
O7 V3 1_555 1_555
O8 C32 1_555 1_555
O9 C30 1_555 1_555
O10 V1 1_555 1_555
O11 C26 1_555 1_555
O12 C28 1_555 1_555
O13 V1 1_555 1_555
O14 C24 1_555 1_555
O15 V2 1_555 1_555
O16 C20 1_555 1_555
O17 V2 1_555 1_555
O18 V3 1_555 1_555
O19 V4 1_555 1_555
O20 V1 1_555 1_555
C1 C7 1_555 1_555
C2 C8 1_555 1_555
C3 C5 1_555 1_555
C4 C6 1_555 1_555
C5 C25 1_555 1_555
C6 C27 1_555 1_555
C7 C29 1_555 1_555
C8 C31 1_555 1_555
C9 C15 1_555 1_555
C10 C16 1_555 1_555
C11 C13 1_555 1_555
C12 C14 1_555 1_555
C13 C21 1_555 1_555
C14 C23 1_555 1_555
C15 C17 1_555 1_555
C16 C19 1_555 1_555
C17 C1 1_555 1_555
C18 O15 1_555 1_555
C19 C2 1_555 1_555
C20 C19 1_555 1_555
C21 C3 1_555 1_555
C22 O13 1_555 1_555
C23 C4 1_555 1_555
C24 C23 1_555 1_555
C25 C11 1_555 1_555
C26 C25 1_555 1_555
C27 C12 1_555 1_555
C28 C27 1_555 1_555
C29 C9 1_555 1_555
C30 O7 1_555 1_555
C31 C10 1_555 1_555
C32 O10 1_555 1_555
H1 C1 1_555 1_555
H2 C2 1_555 1_555
H3 C3 1_555 1_555
H4 C4 1_555 1_555
H5 C5 1_555 1_555
H6 C6 1_555 1_555
H7 C7 1_555 1_555
H8 C8 1_555 1_555
H9 C9 1_555 1_555
H10 C10 1_555 1_555
H11 C11 1_555 1_555
H12 C12 1_555 1_555
H13 C13 1_555 1_555
H14 C14 1_555 1_555
H15 C15 1_555 1_555
H16 C16 1_555 1_555
V1_2 O6 1_555 1_555
V1_3 O17 1_555 1_555
V2_2 O12 1_555 1_555
V2_3 O8 1_555 1_555
V3_2 O19 1_555 1_555
V3_3 O11 1_555 1_555
V3_4 O16 1_555 1_555
V4_2 O14 1_555 1_555
V4_3 O5 1_555 1_555
V4_4 O2 1_555 1_555
O2_2 V4 1_555 1_555
O5_2 V4 1_555 1_555
O6_2 V1 1_555 1_555
O8_2 V2 1_555 1_555
O11_2 V3 1_555 1_555
O12_2 V2 1_555 1_555
O14_2 V4 1_555 1_555
O16_2 V3 1_555 1_555
O17_2 V1 1_555 1_555
O19_2 V3 1_555 1_555
V2 O20 1_555 1_555
V4 O18 1_555 1_555
C17 C18 1_555 1_555
C21 C22 1_555 1_555
C29 C30 1_555 1_555
C31 C32 1_555 1_555
V2_3 O17_2 1_555 1_555
V4_2 O19_2 1_555 1_555

#END
