
#######################################################################
#
#                 Cambridge Crystallographic Data Centre
#                                CCDC 
#
#######################################################################
#
# If this CIF has been generated from an entry in the Cambridge 
# Structural Database, then it will include bibliographic, chemical, 
# crystal, experimental, refinement or atomic coordinate data resulting 
# from the CCDC's data processing and validation procedures.
#
#######################################################################

data_IDUDIW
_symmetry_cell_setting           monoclinic
_symmetry_space_group_name_H-M   'P 21/c'
_symmetry_Int_Tables_number      14
_space_group_name_Hall           '-P 2ybc'
loop_
_symmetry_equiv_pos_site_id
_symmetry_equiv_pos_as_xyz
1 x,y,z
2 -x,1/2+y,1/2-z
3 -x,-y,-z
4 x,1/2-y,1/2+z
_cell_length_a                   10.908(7)
_cell_length_b                   12.434(8)
_cell_length_c                   14.354(9)
_cell_angle_alpha                90
_cell_angle_beta                 107.495(7)
_cell_angle_gamma                90
_cell_volume                     1856.78
loop_
_atom_site_label
_atom_site_type_symbol
_atom_site_fract_x
_atom_site_fract_y
_atom_site_fract_z
C1 C 0.2045(4) 0.2118(3) 0.5712(3)
H1 H 0.1161 0.2009 0.5509
C2 C 0.4170(4) 0.1410(3) 0.6312(3)
H2 H 0.4716 0.0826 0.6521
C3 C 0.4690(4) 0.2440(3) 0.6303(3)
C4 C 0.3847(4) 0.3308(3) 0.5993(3)
H3 H 0.4173 0.3998 0.5982
C5 C 0.6124(4) 0.2554(3) 0.6673(3)
C6 C 0.6817(4) 0.1876(3) 0.7423(3)
H4 H 0.6388 0.1406 0.7721
C7 C 0.8157(4) 0.1909(3) 0.7720(3)
C8 C 0.8806(4) 0.2609(3) 0.7288(3)
H5 H 0.9699 0.2625 0.7492
C9 C 0.8116(4) 0.3292(3) 0.6545(3)
C10 C 0.6765(4) 0.3265(3) 0.6237(3)
H6 H 0.6303 0.3722 0.5743
C11 C 0.8862(4) 0.1193(3) 0.8561(3)
C12 C 0.8807(4) 0.3973(3) 0.6001(3)
Cu1 Cu 1.09886(4) 0.06719(4) 1.02478(4)
N1 N 0.2529(3) 0.3142(3) 0.5703(2)
N2 N 0.2860(3) 0.1254(3) 0.6017(2)
O1 O 0.9971(2) 0.1502(2) 0.90825(19)
O2 O 0.8303(3) 0.0357(2) 0.86758(19)
O3 O 0.9924(2) 0.3659(2) 0.60079(18)
O4 O 0.8250(2) 0.4809(2) 0.55850(18)
Cu1A Cu 0.90114(4) 0.56719(4) 0.47522(4)
Cu1B Cu 0.90114(4) -0.06719(4) 0.97522(4)
Cu1C Cu 0.09886(4) 0.43281(4) 0.52478(4)
Cu1C_2 Cu 1.09886(4) 0.43281(4) 0.52478(4)
N1C N 1.2529(3) 0.1858(3) 1.0703(2)
O2B O 1.1697(3) -0.0357(2) 1.13242(19)
O3C O 0.9924(2) 0.1341(2) 1.10079(18)
O4A O 1.1750(2) -0.0191(2) 0.94150(18)
C13 C 0.4721(4) 0.1902(3) 0.3790(3)
H7 H 0.4877 0.1652 0.3203
H8 H 0.4437 0.1313 0.4105
H9 H 0.5500 0.2195 0.4221
C14 C 0.2321(4) 0.2466(3) 0.3244(3)
H10 H 0.1815 0.3108 0.3070
H11 H 0.2122 0.2117 0.3778
H12 H 0.2130 0.1989 0.2693
C15 C 0.4037(4) 0.3829(3) 0.3616(3)
H13 H 0.3346 0.4302 0.3493
N3 N 0.3713(3) 0.2750(3) 0.3542(3)
O5 O 0.5114(3) 0.4260(2) 0.3824(2)
O6 O 0.2460(8) 0.9104(7) 0.5665(7)
H14 H 0.2747 0.9333 0.6248
H15 H 0.2960 0.9299 0.5343
O7 O 0.1197(9) 0.8981(8) 0.4508(7)
H16 H 0.1636 0.8419 0.4496
H17 H 0.1123 0.9350 0.3995
O8 O 0.0000 0.0000 0.5000
H18 H -0.0466 0.0326 0.4497
H18B H 0.0466 -0.0326 0.5503
H19? H -0.0147 0.0250 0.5507
loop_
_geom_bond_atom_site_label_1
_geom_bond_atom_site_label_2
_geom_bond_site_symmetry_1
_geom_bond_site_symmetry_2
C1 H1 1_555 1_555
C2 H2 1_555 1_555
C3 C2 1_555 1_555
C4 C3 1_555 1_555
H3 C4 1_555 1_555
C5 C3 1_555 1_555
C6 C5 1_555 1_555
H4 C6 1_555 1_555
C7 C6 1_555 1_555
C8 C7 1_555 1_555
H5 C8 1_555 1_555
C9 C8 1_555 1_555
C10 C5 1_555 1_555
H6 C10 1_555 1_555
C11 C7 1_555 1_555
C12 C9 1_555 1_555
Cu1 O1 1_555 1_555
N1 C1 1_555 1_555
N2 C1 1_555 1_555
O1 C11 1_555 1_555
O2 C11 1_555 1_555
O3 C12 1_555 1_555
O4 C12 1_555 1_555
C13 H7 1_555 1_555
H8 C13 1_555 1_555
H9 C13 1_555 1_555
C14 H10 1_555 1_555
H11 C14 1_555 1_555
H12 C14 1_555 1_555
C15 H13 1_555 1_555
N3 C13 1_555 1_555
O5 C15 1_555 1_555
O6 H14 1_555 1_555
H15 O6 1_555 1_555
O7 H16 1_555 1_555
H17 O7 1_555 1_555
O8 H18 1_555 1_555
Cu1A O4 1_555 1_555
Cu1B Cu1 1_555 1_555
Cu1C N1 1_555 1_555
Cu1C_2 O3 1_555 1_555
N1C Cu1 1_555 1_555
O2B Cu1 1_555 1_555
O3C Cu1 1_555 1_555
O4A Cu1 1_555 1_555
H18B O8 1_555 1_555
C2 N2 1_555 1_555
C4 N1 1_555 1_555
C9 C10 1_555 1_555
O2 Cu1B 1_555 1_555
C14 N3 1_555 1_555
C15 N3 1_555 1_555
Cu1A Cu1C_2 1_555 1_555

#END
