
#######################################################################
#
#                 Cambridge Crystallographic Data Centre
#                                CCDC 
#
#######################################################################
#
# If this CIF has been generated from an entry in the Cambridge 
# Structural Database, then it will include bibliographic, chemical, 
# crystal, experimental, refinement or atomic coordinate data resulting 
# from the CCDC's data processing and validation procedures.
#
#######################################################################

data_IGOJEV
_symmetry_cell_setting           orthorhombic
_symmetry_space_group_name_H-M   'C m c a'
_symmetry_Int_Tables_number      64
_space_group_name_Hall           '-C 2ac 2'
loop_
_symmetry_equiv_pos_site_id
_symmetry_equiv_pos_as_xyz
1 x,y,z
2 -x,1/2-y,1/2+z
3 x,-y,-z
4 1/2-x,y,1/2-z
5 1/2+x,1/2+y,z
6 1/2-x,-y,1/2+z
7 1/2+x,1/2-y,-z
8 -x,1/2+y,1/2-z
9 -x,-y,-z
10 x,1/2+y,1/2-z
11 -x,y,z
12 1/2+x,-y,1/2+z
13 1/2-x,1/2-y,-z
14 1/2+x,y,1/2-z
15 1/2-x,1/2+y,z
16 x,1/2-y,1/2+z
_cell_length_a                   20.135(5)
_cell_length_b                   15.964(5)
_cell_length_c                   29.307(5)
_cell_angle_alpha                90
_cell_angle_beta                 90
_cell_angle_gamma                90
_cell_volume                     9420.3
loop_
_atom_site_label
_atom_site_type_symbol
_atom_site_fract_x
_atom_site_fract_y
_atom_site_fract_z
N3 N 0.1679(11) 0.0770(17) 0.2770(8)
H15 H 0.1878 0.1244 0.2746
O7 O 0.1099(14) -0.0076(15) 0.2329(7)
C27 C 0.1442(16) 0.041(3) 0.2384(10)
H16 H 0.1618 0.0633 0.2117
C28 C 0.1619(16) 0.042(3) 0.3206(8)
H17 H 0.1819 0.0788 0.3426
H18 H 0.1838 -0.0113 0.3214
H19 H 0.1157 0.0347 0.3279
O8 O 0.272(5) -0.188(5) 0.146(2)
H20 H 0.2341 -0.1803 0.1618
H21 H 0.2958 -0.2355 0.1503
O9 O 0.3430(18) 0.272(3) 0.411(2)
H22 H 0.3392 0.3309 0.4172
H23 H 0.3254 0.2600 0.3814
Cd1 Cd 0.5000 0.09257(3) 0.043600(16)
N1 N 0.3835(3) 0.0857(3) 0.04782(17)
C1 C 0.5000 0.1701(6) 0.1261(2)
O1 O 0.5000 0.3173(5) 0.4812(2)
O2 O 0.5000 0.4451(4) 0.46207(18)
C2 C 0.5000 0.2041(6) 0.1737(3)
N2 N 0.1749(3) 0.0818(4) 0.0516(2)
O3 O 0.5000 0.2185(4) 0.09295(18)
C3 C 0.5000 0.2880(7) 0.1824(3)
H1 H 0.5000 0.3254 0.1581
O4 O 0.5000 0.0921(4) 0.1218(2)
C4 C 0.5000 0.3186(7) 0.2262(3)
H2 H 0.5000 0.3762 0.2310
C5 C 0.5000 0.1799(7) 0.2544(3)
H3 H 0.5000 0.1425 0.2788
O5 O 0.1744(2) 0.0292(5) 0.12347(18)
O6 O 0.1745(2) 0.1324(4) -0.02085(17)
C6 C 0.5000 0.1490(6) 0.2104(3)
H4 H 0.5000 0.0915 0.2053
C7 C 0.5000 0.2647(6) 0.2633(3)
C8 C 0.5000 0.2955(7) 0.3105(3)
C9 C 0.5000 0.3715(7) 0.3227(3)
H5 H 0.5000 0.4121 0.3000
C10 C 0.5000 0.3988(6) 0.3684(3)
H6 H 0.5000 0.4560 0.3743
C11 C 0.5000 0.3474(6) 0.4023(3)
C12 C 0.4605(9) 0.2711(9) 0.3902(4)
H7 H 0.4401 0.2378 0.4135
C13 C 0.4583(11) 0.2474(9) 0.3451(4)
H8 H 0.4309 0.2010 0.3362
C14 C 0.5000 0.3713(5) 0.4516(2)
C15 C 0.3506(3) 0.0150(4) 0.0561(2)
H9 H 0.3748 -0.0338 0.0612
C16 C 0.2820(3) 0.0108(4) 0.0576(2)
H10 H 0.2604 -0.0398 0.0627
C17 C 0.2466(3) 0.0838(4) 0.0513(2)
C18 C 0.2794(4) 0.1570(5) 0.0440(3)
H11 H 0.2564 0.2070 0.0400
C19 C 0.3488(3) 0.1550(5) 0.0428(3)
H12 H 0.3716 0.2050 0.0382
C20 C 0.1418(3) 0.0512(5) 0.0908(2)
C21 C 0.0695(3) 0.0498(4) 0.0903(2)
C22 C 0.0354(3) 0.0207(5) 0.1271(2)
H13 H 0.065(3) -0.002(4) 0.149(2)
C23 C 0.0348(3) 0.0786(4) 0.0514(2)
C24 C 0.0693(3) 0.1088(3) 0.0125(2)
C25 C 0.0350(3) 0.1375(4) -0.0250(2)
H14 H 0.060(3) 0.155(4) -0.056(2)
C26 C 0.1425(3) 0.1103(4) 0.0119(2)
N1J N -0.3835(3) 0.0857(3) 0.04782(17)
N2J N -0.1749(3) 0.0818(4) 0.0516(2)
O5J O -0.1744(2) 0.0292(5) 0.12347(18)
O6J O -0.1745(2) 0.1324(4) -0.02085(17)
C15J C -0.3506(3) 0.0150(4) 0.0561(2)
H9J H -0.3748 -0.0338 0.0612
C16J C -0.2820(3) 0.0108(4) 0.0576(2)
H10J H -0.2604 -0.0398 0.0627
C17J C -0.2466(3) 0.0838(4) 0.0513(2)
C18J C -0.2794(4) 0.1570(5) 0.0440(3)
H11J H -0.2564 0.2070 0.0400
C19J C -0.3488(3) 0.1550(5) 0.0428(3)
H12J H -0.3716 0.2050 0.0382
C20J C -0.1418(3) 0.0512(5) 0.0908(2)
C21J C -0.0695(3) 0.0498(4) 0.0903(2)
C22J C -0.0354(3) 0.0207(5) 0.1271(2)
H13J H -0.065(3) -0.002(4) 0.149(2)
C23J C -0.0348(3) 0.0786(4) 0.0514(2)
C24J C -0.0693(3) 0.1088(3) 0.0125(2)
C25J C -0.0350(3) 0.1375(4) -0.0250(2)
H14J H -0.060(3) 0.155(4) -0.056(2)
C26J C -0.1425(3) 0.1103(4) 0.0119(2)
C12J C 0.5395(9) 0.2711(9) 0.3902(4)
H7J H 0.5599 0.2378 0.4135
C13J C 0.5417(11) 0.2474(9) 0.3451(4)
H8J H 0.5691 0.2010 0.3362
Cd1_2 Cd -0.5000 0.09257(3) 0.043600(16)
Cd1A Cd 0.5000 0.40743(3) 0.543600(16)
Cd1G Cd 0.5000 0.59257(3) 0.456400(16)
N1J_2 N 0.6165(3) 0.0857(3) 0.04782(17)
O1A O 0.5000 0.1827(5) -0.0188(2)
O2A O 0.5000 0.0549(4) -0.03793(18)
O2G O 0.5000 -0.0549(4) 0.03793(18)
O10? O 0.195(3) -0.166(3) 0.164(3)
H24? H 0.2040 -0.2214 0.1674
H25? H 0.1657 -0.1414 0.1828
loop_
_geom_bond_atom_site_label_1
_geom_bond_atom_site_label_2
_geom_bond_site_symmetry_1
_geom_bond_site_symmetry_2
Cd1 N1 1_555 1_555
N1 C15 1_555 1_555
C1 C2 1_555 1_555
O1 C14 1_555 1_555
O2 C14 1_555 1_555
C2 C3 1_555 1_555
N2 C17 1_555 1_555
O3 Cd1 1_555 1_555
C3 H1 1_555 1_555
O4 Cd1 1_555 1_555
C4 C3 1_555 1_555
H2 C4 1_555 1_555
C5 H3 1_555 1_555
O5 C20 1_555 1_555
O6 C26 1_555 1_555
C6 C2 1_555 1_555
H4 C6 1_555 1_555
C7 C4 1_555 1_555
C8 C7 1_555 1_555
C9 C8 1_555 1_555
H5 C9 1_555 1_555
C10 C9 1_555 1_555
H6 C10 1_555 1_555
C11 C10 1_555 1_555
C12 C11 1_555 1_555
H7 C12 1_555 1_555
C13 C8 1_555 1_555
H8 C13 1_555 1_555
C14 C11 1_555 1_555
C15 H9 1_555 1_555
C16 C15 1_555 1_555
H10 C16 1_555 1_555
C17 C16 1_555 1_555
C18 C17 1_555 1_555
H11 C18 1_555 1_555
C19 N1 1_555 1_555
H12 C19 1_555 1_555
C20 N2 1_555 1_555
C21 C20 1_555 1_555
C22 C21 1_555 1_555
H13 C22 1_555 1_555
C23 C21 1_555 1_555
C24 C23 1_555 1_555
C25 C24 1_555 1_555
H14 C25 1_555 1_555
C26 N2 1_555 1_555
N3 H15 1_555 1_555
O7 C27 1_555 1_555
C27 N3 1_555 1_555
H16 C27 1_555 1_555
C28 N3 1_555 1_555
H17 C28 1_555 1_555
H18 C28 1_555 1_555
H19 C28 1_555 1_555
O8 H20 1_555 1_555
H21 O8 1_555 1_555
O9 H22 1_555 1_555
H23 O9 1_555 1_555
N1J C15J 1_555 1_555
N2J C17J 1_555 1_555
O5J C20J 1_555 1_555
O6J C26J 1_555 1_555
C15J H9J 1_555 1_555
C16J C15J 1_555 1_555
H10J C16J 1_555 1_555
C17J C16J 1_555 1_555
C18J C17J 1_555 1_555
H11J C18J 1_555 1_555
C19J N1J 1_555 1_555
H12J C19J 1_555 1_555
C20J N2J 1_555 1_555
C21J C20J 1_555 1_555
C22J C22 1_555 1_555
H13J C22J 1_555 1_555
C23J C23 1_555 1_555
C24J C23J 1_555 1_555
C25J C25 1_555 1_555
H14J C25J 1_555 1_555
C26J N2J 1_555 1_555
C12J C11 1_555 1_555
H7J C12J 1_555 1_555
C13J C8 1_555 1_555
H8J C13J 1_555 1_555
Cd1_2 N1J 1_555 1_555
Cd1A O1 1_555 1_555
Cd1G O2 1_555 1_555
N1J_2 Cd1 1_555 1_555
O1A Cd1 1_555 1_555
O2A Cd1 1_555 1_555
O2G Cd1 1_555 1_555
C1 O3 1_555 1_555
C1 O4 1_555 1_555
O2 Cd1A 1_555 1_555
C5 C6 1_555 1_555
C5 C7 1_555 1_555
C12 C13 1_555 1_555
C18 C19 1_555 1_555
C24 C26 1_555 1_555
C18J C19J 1_555 1_555
C21J C22J 1_555 1_555
C21J C23J 1_555 1_555
C24J C25J 1_555 1_555
C24J C26J 1_555 1_555
C12J C13J 1_555 1_555

#END
