
#######################################################################
#
#                 Cambridge Crystallographic Data Centre
#                                CCDC 
#
#######################################################################
#
# If this CIF has been generated from an entry in the Cambridge 
# Structural Database, then it will include bibliographic, chemical, 
# crystal, experimental, refinement or atomic coordinate data resulting 
# from the CCDC's data processing and validation procedures.
#
#######################################################################

data_IGUCIY
_symmetry_cell_setting           monoclinic
_symmetry_space_group_name_H-M   'C c'
_symmetry_Int_Tables_number      9
_space_group_name_Hall           'C -2yc'
loop_
_symmetry_equiv_pos_site_id
_symmetry_equiv_pos_as_xyz
1 x,y,z
2 x,-y,1/2+z
3 1/2+x,1/2+y,z
4 1/2+x,1/2-y,1/2+z
_cell_length_a                   13.014(3)
_cell_length_b                   23.695(5)
_cell_length_c                   16.214(3)
_cell_angle_alpha                90
_cell_angle_beta                 107.04(3)
_cell_angle_gamma                90
_cell_volume                     4780.37
loop_
_atom_site_label
_atom_site_type_symbol
_atom_site_fract_x
_atom_site_fract_y
_atom_site_fract_z
Sm1 Sm 0.75230(2) 0.32792(3) 0.67742(2)
Sm2 Sm 0.31176(2) 0.32612(3) 0.82740(2)
Sm3 Sm 0.52649(6) 0.578739(13) 0.75290(6)
N1 N 0.6437(6) 0.3167(3) 0.7803(5)
N2 N 0.5025(6) 0.3113(3) 0.8324(5)
N3 N 0.8349(5) 0.2903(3) 0.5669(4)
N4 N 0.8493(5) 0.2427(3) 0.4496(4)
N5 N 0.9423(5) 0.3493(3) 0.7602(5)
N6 N 1.1214(5) 0.3414(3) 0.8176(5)
N7 N 0.7417(8) 0.4244(4) 0.7366(7)
N8 N 0.6645(8) 0.5055(5) 0.7585(7)
N9 N 0.6731(7) 0.3906(4) 0.5486(7)
N10 N 0.5981(8) 0.4172(5) 0.4112(7)
N11 N 0.5920(6) 0.2690(3) 0.5863(5)
N12 N 0.4847(9) 0.1962(5) 0.5380(8)
H1 H 0.4550 0.1625 0.5336
N13 N 0.3175(8) 0.4259(4) 0.7829(7)
N14 N 0.3921(8) 0.5084(4) 0.7626(7)
N15 N 0.2442(8) 0.2339(4) 0.7552(7)
N16 N 0.1426(7) 0.1550(4) 0.7311(7)
N17 N 0.2878(7) 0.3367(3) 0.6609(5)
N18 N 0.2042(8) 0.3493(6) 0.5236(6)
H2 H 0.1549 0.3454 0.4735
N19 N 0.4002(7) 0.6510(4) 0.7693(7)
N20 N 0.3082(8) 0.7325(4) 0.7440(7)
N21 N 0.4444(8) 0.5805(4) 0.5979(8)
N22 N 0.3619(7) 0.6138(4) 0.4630(6)
C1 C 0.5386(9) 0.3054(3) 0.7654(8)
H3 H 0.4938 0.2940 0.7105
C2 C 0.6772(7) 0.3287(4) 0.8658(6)
H4 H 0.7488 0.3377 0.8979
C3 C 0.5923(7) 0.3258(4) 0.8984(6)
H5 H 0.5946 0.3326 0.9566
C4 C 0.8022(7) 0.2470(5) 0.5134(6)
H6 H 0.7495 0.2209 0.5196
C5 C 0.9095(7) 0.3173(4) 0.5337(6)
H7 H 0.9482 0.3506 0.5562
C6 C 0.9174(7) 0.2881(4) 0.4639(6)
H8 H 0.9632 0.2977 0.4300
C7 C 1.0348(12) 0.3280(3) 0.7522(12)
H9 H 1.0383 0.3055 0.7045
C8 C 0.9725(7) 0.3771(4) 0.8388(6)
H10 H 0.9262 0.3967 0.8646
C9 C 1.0798(7) 0.3712(5) 0.8720(6)
H11 H 1.1208 0.3859 0.9261
C10 C 0.6599(7) 0.4486(4) 0.7575(6)
H12 H 0.6041 0.4278 0.7704
C11 C 0.8024(8) 0.4695(4) 0.7226(7)
H13 H 0.8664 0.4669 0.7060
C12 C 0.7550(9) 0.5180(5) 0.7365(8)
H14 H 0.7809 0.5550 0.7316
C13 C 0.6696(8) 0.3848(4) 0.4653(7)
H15 H 0.7149 0.3595 0.4468
C14 C 0.5948(7) 0.4307(4) 0.5459(6)
H16 H 0.5754 0.4450 0.5940
C15 C 0.5505(7) 0.4461(4) 0.4622(6)
H17 H 0.4947 0.4730 0.4425
C16 C 0.5711(8) 0.2150(4) 0.5998(7)
H18 H 0.6121 0.1929 0.6469
C17 C 0.5153(8) 0.2842(5) 0.5135(7)
H19 H 0.5085 0.3208 0.4885
C18 C 0.4526(10) 0.2423(5) 0.4824(8)
H20 H 0.3946 0.2426 0.4306
C19 C 0.4043(8) 0.4574(4) 0.7979(6)
H21 H 0.4724 0.4443 0.8323
C20 C 0.2380(8) 0.4599(4) 0.7318(7)
H22 H 0.1644 0.4499 0.7087
C21 C 0.2825(9) 0.5099(4) 0.7201(8)
H23 H 0.2448 0.5409 0.6880
C22 C 0.1737(10) 0.2011(5) 0.7792(9)
H24 H 0.1481 0.2100 0.8268
C23 C 0.2586(9) 0.2064(5) 0.6850(8)
H25 H 0.3038 0.2187 0.6520
C24 C 0.1984(9) 0.1589(5) 0.6702(8)
H26 H 0.1947 0.1325 0.6253
C25 C 0.2022(9) 0.3262(5) 0.5985(8)
H27 H 0.1439 0.3044 0.6051
C26 C 0.3480(10) 0.3722(5) 0.6237(7)
H28 H 0.4153 0.3885 0.6536
C27 C 0.2969(10) 0.3799(6) 0.5395(7)
H29 H 0.3202 0.4020 0.4994
C28 C 0.3849(9) 0.7012(5) 0.7295(8)
H30 H 0.4264 0.7134 0.6935
C29 C 0.3241(9) 0.6504(5) 0.8130(7)
H31 H 0.3124 0.6203 0.8479
C30 C 0.2691(8) 0.6993(5) 0.7985(7)
H32 H 0.2126 0.7095 0.8219
C31 C 0.4296(8) 0.6242(4) 0.5402(7)
H33 H 0.4653 0.6595 0.5545
C32 C 0.3812(8) 0.5391(4) 0.5516(6)
H34 H 0.382(7) 0.498(4) 0.576(6)
C33 C 0.3303(7) 0.5586(4) 0.4717(6)
H35 H 0.2804 0.5376 0.4279
Sm1B Sm 0.25230(2) 0.82792(3) 0.67742(2)
Sm2_2 Sm 1.31176(2) 0.32612(3) 0.82740(2)
Sm2A Sm 0.31176(2) 0.67388(3) 0.32740(2)
Sm2C Sm 0.81176(2) 0.17388(3) 0.32740(2)
Sm3A Sm 0.52649(6) 0.421261(13) 0.25290(6)
Sm3B Sm 0.02649(6) 0.078739(13) 0.75290(6)
N4C N 0.3493(5) 0.2573(3) 0.9496(4)
N6_2 N 0.1214(5) 0.3414(3) 0.8176(5)
N10A N 0.5981(8) 0.5828(5) 0.9112(7)
N16B N 0.6426(7) 0.6550(4) 0.7311(7)
N20B N 0.8082(8) 0.2325(4) 0.7440(7)
N22A N 0.3619(7) 0.3862(4) 0.9630(6)
C34 C 0.9143(7) 0.4920(4) 0.4723(6)
H36 H 0.9409 0.4629 0.4438
C35 C 0.9745(8) 0.5321(4) 0.5284(6)
H37 H 1.0507 0.5346 0.5465
N23 N 0.9051(6) 0.5676(3) 0.5536(5)
C36 C 0.8025(8) 0.5488(4) 0.5151(6)
H38 H 0.7384 0.5650 0.5213
N24 N 0.8086(6) 0.5028(3) 0.4662(5)
H39 H 0.7533 0.4831 0.4354
N25 N 1.0645(6) 0.6198(3) 0.8656(5)
C37 C 1.0001(8) 0.6368(4) 0.7866(6)
H40 H 0.9704 0.6735 0.7731
N26 N 0.9856(6) 0.5922(3) 0.7301(5)
H41 H 0.9490 0.5923 0.6751
C38 C 1.0392(8) 0.5478(4) 0.7764(6)
H42 H 1.0419 0.5110 0.7541
C39 C 1.0886(7) 0.5638(4) 0.8594(6)
H43 H 1.1314 0.5406 0.9042
loop_
_geom_bond_atom_site_label_1
_geom_bond_atom_site_label_2
_geom_bond_site_symmetry_1
_geom_bond_site_symmetry_2
Sm1 N1 1_555 1_555
Sm2 N2 1_555 1_555
Sm3 N8 1_555 1_555
N1 C1 1_555 1_555
N2 C1 1_555 1_555
N3 Sm1 1_555 1_555
N4 C4 1_555 1_555
N5 Sm1 1_555 1_555
N6 C7 1_555 1_555
N7 Sm1 1_555 1_555
N8 C10 1_555 1_555
N9 Sm1 1_555 1_555
N10 C13 1_555 1_555
N11 Sm1 1_555 1_555
N12 H1 1_555 1_555
N13 Sm2 1_555 1_555
N14 Sm3 1_555 1_555
N15 Sm2 1_555 1_555
N16 C22 1_555 1_555
N17 Sm2 1_555 1_555
N18 H2 1_555 1_555
N19 Sm3 1_555 1_555
N20 C28 1_555 1_555
N21 Sm3 1_555 1_555
N22 C31 1_555 1_555
C1 H3 1_555 1_555
C2 N1 1_555 1_555
H4 C2 1_555 1_555
C3 N2 1_555 1_555
H5 C3 1_555 1_555
C4 N3 1_555 1_555
H6 C4 1_555 1_555
C5 N3 1_555 1_555
H7 C5 1_555 1_555
C6 N4 1_555 1_555
H8 C6 1_555 1_555
C7 N5 1_555 1_555
H9 C7 1_555 1_555
C8 N5 1_555 1_555
H10 C8 1_555 1_555
C9 N6 1_555 1_555
H11 C9 1_555 1_555
C10 N7 1_555 1_555
H12 C10 1_555 1_555
C11 N7 1_555 1_555
H13 C11 1_555 1_555
C12 N8 1_555 1_555
H14 C12 1_555 1_555
C13 N9 1_555 1_555
H15 C13 1_555 1_555
C14 N9 1_555 1_555
H16 C14 1_555 1_555
C15 N10 1_555 1_555
H17 C15 1_555 1_555
C16 N11 1_555 1_555
H18 C16 1_555 1_555
C17 N11 1_555 1_555
H19 C17 1_555 1_555
C18 N12 1_555 1_555
H20 C18 1_555 1_555
C19 N13 1_555 1_555
H21 C19 1_555 1_555
C20 N13 1_555 1_555
H22 C20 1_555 1_555
C21 N14 1_555 1_555
H23 C21 1_555 1_555
C22 N15 1_555 1_555
H24 C22 1_555 1_555
C23 N15 1_555 1_555
H25 C23 1_555 1_555
C24 N16 1_555 1_555
H26 C24 1_555 1_555
C25 N17 1_555 1_555
H27 C25 1_555 1_555
C26 N17 1_555 1_555
H28 C26 1_555 1_555
C27 N18 1_555 1_555
H29 C27 1_555 1_555
C28 N19 1_555 1_555
H30 C28 1_555 1_555
C29 N19 1_555 1_555
H31 C29 1_555 1_555
C30 N20 1_555 1_555
H32 C30 1_555 1_555
C31 N21 1_555 1_555
H33 C31 1_555 1_555
C32 N21 1_555 1_555
H34 C32 1_555 1_555
C33 N22 1_555 1_555
H35 C33 1_555 1_555
C34 H36 1_555 1_555
C35 C34 1_555 1_555
H37 C35 1_555 1_555
N23 C35 1_555 1_555
C36 N23 1_555 1_555
H38 C36 1_555 1_555
N24 C34 1_555 1_555
H39 N24 1_555 1_555
N25 C37 1_555 1_555
C37 H40 1_555 1_555
N26 C37 1_555 1_555
H41 N26 1_555 1_555
C38 N26 1_555 1_555
H42 C38 1_555 1_555
C39 N25 1_555 1_555
H43 C39 1_555 1_555
Sm1B N20 1_555 1_555
Sm2_2 N6 1_555 1_555
Sm2A N22 1_555 1_555
Sm2C N4 1_555 1_555
Sm3A N10 1_555 1_555
Sm3B N16 1_555 1_555
N4C Sm2 1_555 1_555
N6_2 Sm2 1_555 1_555
N10A Sm3 1_555 1_555
N16B Sm3 1_555 1_555
N20B Sm1 1_555 1_555
N22A Sm2 1_555 1_555
N12 C16 1_555 1_555
N14 C19 1_555 1_555
N18 C25 1_555 1_555
C2 C3 1_555 1_555
C5 C6 1_555 1_555
C8 C9 1_555 1_555
C11 C12 1_555 1_555
C14 C15 1_555 1_555
C17 C18 1_555 1_555
C20 C21 1_555 1_555
C23 C24 1_555 1_555
C26 C27 1_555 1_555
C29 C30 1_555 1_555
C32 C33 1_555 1_555
C36 N24 1_555 1_555
C38 C39 1_555 1_555

#END
