
#######################################################################
#
#                 Cambridge Crystallographic Data Centre
#                                CCDC 
#
#######################################################################
#
# If this CIF has been generated from an entry in the Cambridge 
# Structural Database, then it will include bibliographic, chemical, 
# crystal, experimental, refinement or atomic coordinate data resulting 
# from the CCDC's data processing and validation procedures.
#
#######################################################################

data_IJEXUR
_symmetry_cell_setting           triclinic
_symmetry_space_group_name_H-M   'P -1'
_symmetry_Int_Tables_number      2
_space_group_name_Hall           '-P 1'
loop_
_symmetry_equiv_pos_site_id
_symmetry_equiv_pos_as_xyz
1 x,y,z
2 -x,-y,-z
_cell_length_a                   10.7882(13)
_cell_length_b                   12.3072(12)
_cell_length_c                   14.2893(14)
_cell_angle_alpha                83.183(7)
_cell_angle_beta                 69.590(7)
_cell_angle_gamma                65.174(8)
_cell_volume                     1612.94
loop_
_atom_site_label
_atom_site_type_symbol
_atom_site_fract_x
_atom_site_fract_y
_atom_site_fract_z
Zn1 Zn 0.75157(9) 0.55432(7) 0.03820(6)
Zn2 Zn 0.78919(11) -0.20392(8) -0.09321(7)
Zn3 Zn 0.5000 0.5000 0.0000
S1 S 1.3961(4) 0.0143(3) -0.2234(3)
O1 O 1.4212(10) 0.0896(8) -0.1745(7)
O2 O 1.4277(10) 0.0459(9) -0.3205(7)
O3 O 1.4644(10) -0.1019(8) -0.1932(7)
O4 O 0.8975(6) 0.3957(5) -0.0311(4)
O5 O 0.7088(3) 0.3505(3) -0.0041(2)
O6 O 0.4245(3) 0.3852(3) -0.0100(2)
H1 H 0.4981 0.3186 -0.0223
O7 O 0.8445(3) 0.6627(3) -0.0099(2)
H2 H 0.9260 0.6448 -0.0031
O8 O 0.5633(3) -0.1356(3) -0.0410(2)
H3 H 0.5236 -0.1176 -0.0858
H4 H 0.4975 -0.1057 0.0144
O9 O 0.8003(8) -0.0494(6) -0.0957(6)
O10 O 1.0217(9) -0.1876(6) -0.1437(8)
N1 N 0.5818(7) 0.5132(6) -0.1641(5)
C1 C 0.8425(8) 0.3258(6) -0.0361(5)
N2 N 0.7209(7) 0.5326(6) -0.8134(5)
C2 C 0.5710(10) 0.6386(9) -0.3046(6)
H5 H 0.5460 0.7153 -0.3297
C3 C 0.5486(9) 0.6195(7) -0.2045(6)
H6 H 0.5069 0.6864 -0.1620
C4 C 0.9522(9) 0.2036(7) -0.0855(6)
C5 C 0.6451(10) 0.4175(8) -0.2258(6)
H7 H 0.6718 0.3414 -0.1997
C6 C 0.6523(10) 0.6192(9) -0.6569(6)
H8 H 0.6191 0.6869 -0.6173
C7 C 1.1027(9) 0.1702(7) -0.1276(7)
H9 H 1.1395 0.2262 -0.1274
N3 N 0.8477(9) -0.2806(7) -0.2283(5)
C8 C 0.8970(8) 0.1226(7) -0.0850(6)
H10 H 0.7980 0.1425 -0.0582
C9 C 0.9951(9) 0.0071(7) -0.1266(6)
C10 C 0.7457(9) 0.4265(7) -0.7715(6)
H11 H 0.7758 0.3602 -0.8120
C11 C 1.1982(9) 0.0565(7) -0.1694(7)
C12 C 0.9393(11) -0.3947(10) -0.4069(7)
C13 C 0.6713(10) 0.4286(9) -0.3261(7)
H12 H 0.7160 0.3608 -0.3679
C14 C 0.8827(15) -0.2720(11) -0.3995(8)
H13 H 0.8745 -0.2264 -0.4555
N4 N 0.6675(10) 0.4816(8) -0.5116(6)
C15 C 0.9379(11) -0.0822(9) -0.1230(7)
C16 C 0.9491(11) -0.4594(9) -0.3227(7)
H14 H 0.9872 -0.5426 -0.3258
C17 C 0.6828(10) 0.5064(9) -0.6156(6)
N5 N 0.6480(10) 0.5643(8) -0.4693(6)
C18 C 1.1453(10) -0.0236(7) -0.1680(7)
H15 H 1.2076 -0.1005 -0.1944
C19 C 0.8398(14) -0.2195(11) -0.3113(8)
H16 H 0.8024 -0.1363 -0.3070
C20 C 0.6721(10) 0.6282(8) -0.7567(7)
H17 H 0.6508 0.7031 -0.7850
C21 C 0.6314(9) 0.5403(8) -0.3646(6)
N6 N 0.9834(10) -0.4456(8) -0.5002(6)
C22 C 0.7297(10) 0.4092(8) -0.6736(6)
H18 H 0.7502 0.3332 -0.6473
C23 C 0.9022(11) -0.3995(9) -0.2348(7)
H19 H 0.9083 -0.4429 -0.1775
Zn1A Zn 0.24843(9) 0.44568(7) -0.03820(6)
Zn1_2 Zn 0.75157(9) 0.55432(7) -0.96180(6)
Zn1A_2 Zn 0.24843(9) 0.44568(7) 0.96180(6)
Zn1_3 Zn 0.75157(9) -0.44568(7) 0.03820(6)
Zn2A Zn 0.21081(11) 1.20392(8) 0.09321(7)
Zn2_2 Zn 0.78919(11) 0.79608(8) -0.09321(7)
Zn2A_2 Zn 1.21081(11) -0.79608(8) -0.90679(7)
S1A S -0.3961(4) 0.9857(3) 0.2234(3)
O1A O -0.4212(10) 0.9104(8) 0.1745(7)
O2A O -0.4277(10) 0.9541(9) 0.3205(7)
O3A O -0.4644(10) 1.1019(8) 0.1932(7)
O4A O 0.1025(6) 0.6043(5) 0.0311(4)
O5A O 0.2912(3) 0.6495(3) 0.0041(2)
O6A O 0.5755(3) 0.6148(3) 0.0100(2)
H1A H 0.5019 0.6814 0.0223
O7_2 O 0.8445(3) -0.3373(3) -0.0099(2)
O7A O 0.1555(3) 0.3373(3) 0.0099(2)
O7A_2 O 0.1555(3) 1.3373(3) 0.0099(2)
H2_2 H 0.9260 -0.3552 -0.0031
H2A H 0.0740 0.3552 0.0031
H2A_2 H 0.0740 1.3552 0.0031
O8A O 0.4367(3) 1.1356(3) 0.0410(2)
H3A H 0.4764 1.1176 0.0858
H4A H 0.5025 1.1057 -0.0144
O9A O 0.1997(8) 1.0494(6) 0.0957(6)
O10A O -0.0217(9) 1.1876(6) 0.1437(8)
N1A N 0.4182(7) 0.4868(6) 0.1641(5)
C1A C 0.1575(8) 0.6742(6) 0.0361(5)
N2A N 0.2791(7) 0.4674(6) 0.8134(5)
N2_2 N 0.7209(7) 0.5326(6) 0.1866(5)
N2A_2 N 0.2791(7) 0.4674(6) -0.1866(5)
C2A C 0.4290(10) 0.3614(9) 0.3046(6)
H5A H 0.4540 0.2847 0.3297
C3A C 0.4514(9) 0.3805(7) 0.2045(6)
H6A H 0.4931 0.3136 0.1620
C4A C 0.0478(9) 0.7964(7) 0.0855(6)
C5A C 0.3549(10) 0.5825(8) 0.2258(6)
H7A H 0.3282 0.6586 0.1997
C6A C 0.3477(10) 0.3808(9) 0.6569(6)
H8A H 0.3809 0.3131 0.6173
C7A C -0.1027(9) 0.8298(7) 0.1276(7)
H9A H -0.1395 0.7738 0.1274
N3A N 1.1523(9) -0.7194(7) -0.7717(5)
N3A_2 N 0.1523(9) 1.2806(7) 0.2283(5)
C8A C 0.1030(8) 0.8774(7) 0.0850(6)
H10A H 0.2020 0.8575 0.0582
C9A C 0.0049(9) 0.9929(7) 0.1266(6)
C10A C 0.2543(9) 0.5735(7) 0.7715(6)
H11A H 0.2242 0.6398 0.8120
C11A C -0.1982(9) 0.9435(7) 0.1694(7)
C12A C 1.0607(11) -0.6053(10) -0.5931(7)
C13A C 0.3287(10) 0.5714(9) 0.3261(7)
H12A H 0.2840 0.6392 0.3679
C14A C 1.1173(15) -0.7280(11) -0.6005(8)
H13A H 1.1255 -0.7736 -0.5445
N4A N 0.3325(10) 0.5184(8) 0.5116(6)
C15A C 0.0621(11) 1.0822(9) 0.1230(7)
C16A C 1.0509(11) -0.5406(9) -0.6773(7)
H14A H 1.0128 -0.4574 -0.6742
C17A C 0.3172(10) 0.4936(9) 0.6156(6)
N5A N 0.3520(10) 0.4357(8) 0.4693(6)
C18A C -0.1453(10) 1.0236(7) 0.1680(7)
H15A H -0.2076 1.1005 0.1944
C19A C 1.1602(14) -0.7805(11) -0.6887(8)
H16A H 1.1976 -0.8637 -0.6930
C20A C 0.3279(10) 0.3718(8) 0.7567(7)
H17A H 0.3492 0.2969 0.7850
C21A C 0.3686(9) 0.4597(8) 0.3646(6)
N6A N 1.0166(10) -0.5544(8) -0.4998(6)
C22A C 0.2703(10) 0.5908(8) 0.6736(6)
H18A H 0.2498 0.6668 0.6473
C23A C 1.0978(11) -0.6005(9) -0.7652(7)
H19A H 1.0917 -0.5571 -0.8225
loop_
_geom_bond_atom_site_label_1
_geom_bond_atom_site_label_2
_geom_bond_site_symmetry_1
_geom_bond_site_symmetry_2
Zn1 O4 1_555 1_555
Zn2 O8 1_555 1_555
Zn3 O5 1_555 1_555
S1 O1 1_555 1_555
O2 S1 1_555 1_555
O3 S1 1_555 1_555
O4 C1 1_555 1_555
O5 C1 1_555 1_555
O6 Zn3 1_555 1_555
H1 O6 1_555 1_555
O7 Zn1 1_555 1_555
H2 O7 1_555 1_555
O8 H3 1_555 1_555
H4 O8 1_555 1_555
O9 Zn2 1_555 1_555
O10 C15 1_555 1_555
N1 Zn3 1_555 1_555
C1 C4 1_555 1_555
N2 C10 1_555 1_555
C2 H5 1_555 1_555
C3 N1 1_555 1_555
H6 C3 1_555 1_555
C4 C7 1_555 1_555
C5 N1 1_555 1_555
H7 C5 1_555 1_555
C6 H8 1_555 1_555
C7 H9 1_555 1_555
N3 Zn2 1_555 1_555
C8 C4 1_555 1_555
H10 C8 1_555 1_555
C9 C8 1_555 1_555
C10 H11 1_555 1_555
C11 S1 1_555 1_555
C12 C14 1_555 1_555
C13 C5 1_555 1_555
H12 C13 1_555 1_555
C14 H13 1_555 1_555
N4 C17 1_555 1_555
C15 O9 1_555 1_555
C16 C12 1_555 1_555
H14 C16 1_555 1_555
C17 C6 1_555 1_555
N5 N4 1_555 1_555
C18 C9 1_555 1_555
H15 C18 1_555 1_555
C19 N3 1_555 1_555
H16 C19 1_555 1_555
C20 N2 1_555 1_555
H17 C20 1_555 1_555
C21 C2 1_555 1_555
N6 C12 1_555 1_555
C22 C10 1_555 1_555
H18 C22 1_555 1_555
C23 N3 1_555 1_555
H19 C23 1_555 1_555
Zn1A O6 1_555 1_555
Zn1_2 N2 1_555 1_555
Zn1A_2 N2A 1_555 1_555
Zn1_3 O7_2 1_555 1_555
Zn2A O7A_2 1_555 1_555
Zn2_2 O7 1_555 1_555
Zn2A_2 N3A 1_555 1_555
S1A O1A 1_555 1_555
O2A S1A 1_555 1_555
O3A S1A 1_555 1_555
O4A Zn1A 1_555 1_555
O5A Zn3 1_555 1_555
O6A Zn1 1_555 1_555
H1A O6A 1_555 1_555
O7_2 Zn2 1_555 1_555
O7A Zn1A 1_555 1_555
O7A_2 H2A_2 1_555 1_555
H2_2 O7_2 1_555 1_555
H2A O7A 1_555 1_555
O8A Zn2A 1_555 1_555
H3A O8A 1_555 1_555
H4A O8A 1_555 1_555
O9A Zn2A 1_555 1_555
O10A C15A 1_555 1_555
N1A Zn3 1_555 1_555
C1A O4A 1_555 1_555
N2A C10A 1_555 1_555
N2_2 Zn1 1_555 1_555
N2A_2 Zn1A 1_555 1_555
C2A H5A 1_555 1_555
C3A N1A 1_555 1_555
H6A C3A 1_555 1_555
C4A C1A 1_555 1_555
C5A N1A 1_555 1_555
H7A C5A 1_555 1_555
C6A H8A 1_555 1_555
C7A C4A 1_555 1_555
H9A C7A 1_555 1_555
N3A C19A 1_555 1_555
N3A_2 Zn2A 1_555 1_555
C8A C4A 1_555 1_555
H10A C8A 1_555 1_555
C9A C8A 1_555 1_555
C10A H11A 1_555 1_555
C11A S1A 1_555 1_555
C12A C14A 1_555 1_555
C13A C5A 1_555 1_555
H12A C13A 1_555 1_555
C14A H13A 1_555 1_555
N4A C17A 1_555 1_555
C15A O9A 1_555 1_555
C16A C12A 1_555 1_555
H14A C16A 1_555 1_555
C17A C6A 1_555 1_555
N5A N4A 1_555 1_555
C18A C9A 1_555 1_555
H15A C18A 1_555 1_555
C19A C14A 1_555 1_555
H16A C19A 1_555 1_555
C20A N2A 1_555 1_555
H17A C20A 1_555 1_555
C21A C2A 1_555 1_555
N6A N6 1_555 1_555
C22A C10A 1_555 1_555
H18A C22A 1_555 1_555
C23A N3A 1_555 1_555
H19A C23A 1_555 1_555
Zn3 O6A 1_555 1_555
C2 C3 1_555 1_555
C6 C20 1_555 1_555
C7 C11 1_555 1_555
C9 C15 1_555 1_555
C11 C18 1_555 1_555
C13 C21 1_555 1_555
C14 C19 1_555 1_555
C16 C23 1_555 1_555
C17 C22 1_555 1_555
N5 C21 1_555 1_555
O5A C1A 1_555 1_555
C2A C3A 1_555 1_555
C6A C20A 1_555 1_555
C7A C11A 1_555 1_555
C9A C15A 1_555 1_555
C11A C18A 1_555 1_555
C12A N6A 1_555 1_555
C13A C21A 1_555 1_555
C16A C23A 1_555 1_555
C17A C22A 1_555 1_555
N5A C21A 1_555 1_555

#END
