
#######################################################################
#
#                 Cambridge Crystallographic Data Centre
#                                CCDC 
#
#######################################################################
#
# If this CIF has been generated from an entry in the Cambridge 
# Structural Database, then it will include bibliographic, chemical, 
# crystal, experimental, refinement or atomic coordinate data resulting 
# from the CCDC's data processing and validation procedures.
#
#######################################################################

data_IJOMOJ07
_symmetry_cell_setting           monoclinic
_symmetry_space_group_name_H-M   'P 21/n'
_symmetry_Int_Tables_number      14
_space_group_name_Hall           '-P 2yn'
loop_
_symmetry_equiv_pos_site_id
_symmetry_equiv_pos_as_xyz
1 x,y,z
2 1/2-x,1/2+y,1/2-z
3 -x,-y,-z
4 1/2+x,1/2-y,1/2+z
_cell_length_a                   11.7320(10)
_cell_length_b                   10.2000(10)
_cell_length_c                   14.9470(10)
_cell_angle_alpha                90
_cell_angle_beta                 91.5380(10)
_cell_angle_gamma                90
_cell_volume                     1788.01
loop_
_atom_site_label
_atom_site_type_symbol
_atom_site_fract_x
_atom_site_fract_y
_atom_site_fract_z
Mn1 Mn 0.25706(4) 0.07916(5) 0.13103(3)
Mn2 Mn 0.0000 0.0000 0.0000
Mn3 Mn 0.23985(5) -0.10717(5) 0.31319(4)
Mn4 Mn 0.5000 0.0000 0.0000
O1 O 0.1287(2) -0.0070(2) 0.21776(19)
O2 O 0.1540(2) 0.2578(2) 0.10741(15)
O3 O 0.3051(2) 0.2006(2) 0.24794(15)
O4 O 0.4009(2) 0.1586(2) 0.06168(18)
O5 O 0.3511(2) -0.0807(2) 0.19596(18)
O6 O 0.1856(2) -0.0294(3) 0.02033(18)
O7 O -0.0366(2) 0.0031(3) 0.1411(2)
O8 O 0.0212(3) 0.2107(3) 0.00238(19)
O9 O 0.3924(2) 0.3726(3) 0.09408(19)
O10 O 0.5123(3) -0.1102(3) 0.1229(2)
O11 O 0.3469(2) -0.1056(3) -0.0354(2)
O12 O 0.3159(3) 0.0657(3) 0.36633(18)
C1 C 0.0200(3) -0.0134(4) 0.2102(3)
H1 H -0.0204 -0.0327 0.2628
C2 C 0.0773(4) 0.2869(4) 0.0487(3)
H2 H 0.0622 0.3776 0.0401
C3 C 0.3286(3) 0.1736(3) 0.3293(2)
H3 H 0.3587 0.2427 0.3654
C4 C 0.4332(3) 0.2770(4) 0.0552(3)
H4 H 0.4947 0.2938 0.0168
C5 C 0.4477(4) -0.1328(4) 0.1846(3)
H5 H 0.4727 -0.1954 0.2279
C6 C 0.2420(4) -0.0995(4) -0.0325(3)
H6 H 0.1997 -0.1524 -0.0738
Mn1B Mn -0.25706(4) -0.07916(5) -0.13103(3)
Mn1A Mn 0.24294(4) -0.42084(5) 0.36897(3)
Mn1B_2 Mn 0.74294(4) -0.07916(5) -0.13103(3)
Mn3B Mn -0.23985(5) 0.10717(5) -0.31319(4)
Mn3A Mn 0.26015(5) 0.39283(5) 0.18681(4)
Mn3C Mn -0.26015(5) -0.39283(5) -0.18681(4)
Mn3A_2 Mn 0.26015(5) -0.60717(5) 0.18681(4)
Mn3B_2 Mn 0.76015(5) 0.10717(5) -0.31319(4)
Mn4_2 Mn -0.5000 0.0000 0.0000
Mn4C Mn 0.0000 -0.5000 0.5000
O1B O -0.1287(2) 0.0070(2) -0.21776(19)
O2B O -0.1540(2) -0.2578(2) -0.10741(15)
O2A O 0.3460(2) -0.2422(2) 0.39259(15)
O2C O -0.3460(2) 0.2422(2) -0.39259(15)
O3A O 0.1949(2) -0.2994(2) 0.25206(15)
O3B O -0.3051(2) -0.2006(2) -0.24794(15)
O3C O -0.1949(2) 0.2994(2) -0.25206(15)
O4A O 0.0991(2) -0.3414(2) 0.43832(18)
O4B O 0.5991(2) -0.1586(2) -0.06168(18)
O4B_2 O -0.4009(2) -0.1586(2) -0.06168(18)
O5B O 0.6489(2) 0.0807(2) -0.19596(18)
O5B_2 O -0.3511(2) 0.0807(2) -0.19596(18)
O6B O -0.1856(2) 0.0294(3) -0.02033(18)
O7B O 0.0366(2) -0.0031(3) -0.1411(2)
O8B O -0.0212(3) -0.2107(3) -0.00238(19)
O9A O 0.1076(2) -0.1274(3) 0.40592(19)
O9C O -0.1076(2) 0.1274(3) -0.40592(19)
O10B O 0.4877(3) 0.1102(3) -0.1229(2)
O11B O -0.3469(2) 0.1056(3) 0.0354(2)
O11B_2 O 0.6531(2) 0.1056(3) 0.0354(2)
O12A O 0.1841(3) -0.4343(3) 0.13367(18)
O12B O -0.3159(3) -0.0657(3) -0.36633(18)
C1B C -0.0200(3) 0.0134(4) -0.2102(3)
H1B H 0.0204 0.0327 -0.2628
C2B C -0.0773(4) -0.2869(4) -0.0487(3)
H2B H -0.0622 -0.3776 -0.0401
C3A C 0.1714(3) -0.3264(3) 0.1707(2)
H3A H 0.1413 -0.2573 0.1346
C4A C 0.0668(3) -0.2230(4) 0.4448(3)
H4A H 0.0053 -0.2062 0.4832
C5B C 0.5523(4) 0.1328(4) -0.1846(3)
H5B H 0.5273 0.1954 -0.2279
C6B C -0.2420(4) 0.0995(4) 0.0325(3)
H6B H -0.1997 0.1524 0.0738
loop_
_geom_bond_atom_site_label_1
_geom_bond_atom_site_label_2
_geom_bond_site_symmetry_1
_geom_bond_site_symmetry_2
Mn1 O1 1_555 1_555
Mn2 O6 1_555 1_555
Mn3 O1 1_555 1_555
Mn4 O4 1_555 1_555
O1 C1 1_555 1_555
O2 Mn1 1_555 1_555
O3 Mn1 1_555 1_555
O4 Mn1 1_555 1_555
O5 Mn1 1_555 1_555
O6 Mn1 1_555 1_555
O7 Mn2 1_555 1_555
O8 Mn2 1_555 1_555
O9 C4 1_555 1_555
O10 Mn4 1_555 1_555
O11 Mn4 1_555 1_555
O12 Mn3 1_555 1_555
C1 O7 1_555 1_555
H1 C1 1_555 1_555
C2 O2 1_555 1_555
H2 C2 1_555 1_555
C3 O3 1_555 1_555
H3 C3 1_555 1_555
C4 O4 1_555 1_555
H4 C4 1_555 1_555
C5 O5 1_555 1_555
H5 C5 1_555 1_555
C6 O6 1_555 1_555
H6 C6 1_555 1_555
Mn1B O1B 1_555 1_555
Mn1A O2A 1_555 1_555
Mn1B_2 O4B 1_555 1_555
Mn3B O1B 1_555 1_555
Mn3A O2 1_555 1_555
Mn3C O2B 1_555 1_555
Mn3A_2 O12A 1_555 1_555
Mn3B_2 O5B 1_555 1_555
Mn4_2 O4B_2 1_555 1_555
Mn4C O4A 1_555 1_555
O1B C1B 1_555 1_555
O2B Mn1B 1_555 1_555
O2A Mn3 1_555 1_555
O2C Mn3B 1_555 1_555
O3A Mn3 1_555 1_555
O3B Mn1B 1_555 1_555
O3C Mn3B 1_555 1_555
O4A Mn1A 1_555 1_555
O4B Mn4 1_555 1_555
O4B_2 Mn1B 1_555 1_555
O5B Mn1B_2 1_555 1_555
O5B_2 Mn1B 1_555 1_555
O6B Mn2 1_555 1_555
O7B Mn2 1_555 1_555
O8B Mn2 1_555 1_555
O9A Mn3 1_555 1_555
O9C Mn3B 1_555 1_555
O10B Mn4 1_555 1_555
O11B Mn4_2 1_555 1_555
O11B_2 Mn4 1_555 1_555
O12A C3A 1_555 1_555
O12B Mn3B 1_555 1_555
C1B O7B 1_555 1_555
H1B C1B 1_555 1_555
C2B O2B 1_555 1_555
H2B C2B 1_555 1_555
C3A O3A 1_555 1_555
H3A C3A 1_555 1_555
C4A O4A 1_555 1_555
H4A C4A 1_555 1_555
C5B O5B 1_555 1_555
H5B C5B 1_555 1_555
C6B O6B 1_555 1_555
H6B C6B 1_555 1_555
Mn3 O5 1_555 1_555
O3 Mn3A 1_555 1_555
O8 C2 1_555 1_555
O9 Mn3A 1_555 1_555
O10 C5 1_555 1_555
O11 C6 1_555 1_555
O12 C3 1_555 1_555
Mn1B O6B 1_555 1_555
Mn1A O3A 1_555 1_555
Mn3B O5B_2 1_555 1_555
Mn3C O3B 1_555 1_555
O8B C2B 1_555 1_555
O9A C4A 1_555 1_555
O10B C5B 1_555 1_555
O11B C6B 1_555 1_555

#END
