
#######################################################################
#
#                 Cambridge Crystallographic Data Centre
#                                CCDC 
#
#######################################################################
#
# If this CIF has been generated from an entry in the Cambridge 
# Structural Database, then it will include bibliographic, chemical, 
# crystal, experimental, refinement or atomic coordinate data resulting 
# from the CCDC's data processing and validation procedures.
#
#######################################################################

data_IKEZED
_symmetry_cell_setting           monoclinic
_symmetry_space_group_name_H-M   'C 2/m'
_symmetry_Int_Tables_number      12
_space_group_name_Hall           '-C 2y'
loop_
_symmetry_equiv_pos_site_id
_symmetry_equiv_pos_as_xyz
1 x,y,z
2 1/2+x,1/2+y,z
3 x,-y,z
4 1/2+x,1/2-y,z
5 -x,-y,-z
6 1/2-x,1/2-y,-z
7 -x,y,-z
8 1/2-x,1/2+y,-z
_cell_length_a                   10.4073(5)
_cell_length_b                   17.8174(8)
_cell_length_c                   7.5278(4)
_cell_angle_alpha                90
_cell_angle_beta                 108.4740(10)
_cell_angle_gamma                90
_cell_volume                     1323.95
loop_
_atom_site_label
_atom_site_type_symbol
_atom_site_fract_x
_atom_site_fract_y
_atom_site_fract_z
Zn1 Zn 0.15965(3) 0.722690(10) 0.15033(4)
O1 O 0.1900(2) 0.63450(10) 0.0101(2)
O2 O 0.1982(2) 0.70000(10) -0.2381(2)
O3 O 0.3397(2) 0.65320(10) -0.5297(3)
O4 O 0.1176(2) 0.66970(10) -0.6467(2)
O5 O 0.0000 0.77030(10) 0.0000
C1 C 0.1707(3) 0.5000 -0.1793(5)
C2 C 0.1820(2) 0.56790(10) -0.2629(3)
C3 C 0.1987(2) 0.56780(10) -0.4399(3)
C4 C 0.2044(3) 0.5000 -0.5262(4)
C5 C 0.1892(2) 0.63910(10) -0.1562(3)
C6 C 0.2233(2) 0.63670(10) -0.5403(3)
H1 H 0.0000 0.8176(6) 0.0000
H2 H 0.161(3) 0.5000 -0.061(2)
H3 H 0.216(4) 0.5000 -0.644(3)
C2B C 0.1820(2) 0.43210(10) -0.2629(3)
C3B C 0.1987(2) 0.43220(10) -0.4399(3)
C6B C 0.2233(2) 0.36330(10) -0.5403(3)
O3B O 0.3397(2) 0.34680(10) -0.5297(3)
O4B O 0.1176(2) 0.33030(10) -0.6467(2)
C5B C 0.1892(2) 0.36090(10) -0.1562(3)
O1B O 0.1900(2) 0.36550(10) 0.0101(2)
O2B O 0.1982(2) 0.30000(10) -0.2381(2)
O1E O 0.3100(2) 0.86550(10) -0.0101(2)
O2E O 0.3018(2) 0.80000(10) 0.2381(2)
O3E O 0.1603(2) 0.84680(10) 0.5297(3)
O4E O 0.3824(2) 0.83030(10) 0.6467(2)
C1E C 0.3293(3) 1.0000 0.1793(5)
C2E C 0.3180(2) 0.93210(10) 0.2629(3)
C3E C 0.3013(2) 0.93220(10) 0.4399(3)
C4E C 0.2956(3) 1.0000 0.5262(4)
C5E C 0.3108(2) 0.86090(10) 0.1562(3)
C6E C 0.2767(2) 0.86330(10) 0.5403(3)
H2E H 0.339(3) 1.0000 0.061(2)
H3E H 0.284(4) 1.0000 0.644(3)
C2G C 0.3180(2) 1.06790(10) 0.2629(3)
C3G C 0.3013(2) 1.06780(10) 0.4399(3)
C6G C 0.2767(2) 1.13670(10) 0.5403(3)
O3G O 0.1603(2) 1.15320(10) 0.5297(3)
O4G O 0.3824(2) 1.16970(10) 0.6467(2)
C5G C 0.3108(2) 1.13910(10) 0.1562(3)
O1G O 0.3100(2) 1.13450(10) -0.0101(2)
O2G O 0.3018(2) 1.20000(10) 0.2381(2)
Zn1B Zn 0.15965(3) 0.277310(10) 0.15033(4)
Zn1E Zn 0.34035(3) 0.777310(10) -0.15033(4)
Zn1G Zn 0.34035(3) 1.222690(10) -0.15033(4)
O5B O 0.0000 0.22970(10) 0.0000
H1B H 0.0000 0.1824(6) 0.0000
O4_2 O 0.1176(2) 0.66970(10) 0.3533(2)
Zn1_2 Zn 0.15965(3) 0.722690(10) -0.84967(4)
Zn1F Zn -0.15965(3) 0.722690(10) -0.15033(4)
Zn1B_2 Zn 0.15965(3) 0.277310(10) -0.84967(4)
Zn1G_2 Zn 0.34035(3) 0.222690(10) -0.15033(4)
Zn1E_2 Zn 0.34035(3) 0.777310(10) 0.84967(4)
Zn1G_3 Zn 0.34035(3) 1.222690(10) 0.84967(4)
Zn1B_3 Zn 0.15965(3) 1.277310(10) 0.15033(4)
O2G_2 O 0.3018(2) 0.20000(10) 0.2381(2)
O4B_2 O 0.1176(2) 0.33030(10) 0.3533(2)
O4E_2 O 0.3824(2) 0.83030(10) -0.3533(2)
O5C O 0.5000 0.72970(10) 0.0000
O2B_2 O 0.1982(2) 1.30000(10) -0.2381(2)
O4G_2 O 0.3824(2) 1.16970(10) -0.3533(2)
O5A O 0.5000 1.27030(10) 0.0000
Zn1D Zn -0.15965(3) 0.277310(10) -0.15033(4)
H1C H 0.5000 0.6824(6) 0.0000
H1A H 0.5000 1.3176(6) 0.0000
Na1 Na 0.0000 0.75322(8) 0.5000
N1 N 0.0000 0.9230(2) 0.0000
C7 C -0.0164(3) 0.9616(2) 0.1415(5)
H4 H -0.026(3) 0.933(2) 0.239(3)
C7B C -0.0164(3) 1.0384(2) 0.1415(5)
N1B N 0.0000 1.0770(2) 0.0000
C7D C 0.0164(3) 1.0384(2) -0.1415(5)
C7F C 0.0164(3) 0.9616(2) -0.1415(5)
H4F H 0.026(3) 0.933(2) -0.239(3)
H4D H 0.026(3) 1.067(2) -0.239(3)
H4B H -0.026(3) 1.067(2) 0.239(3)
loop_
_geom_bond_atom_site_label_1
_geom_bond_atom_site_label_2
_geom_bond_site_symmetry_1
_geom_bond_site_symmetry_2
Zn1 O1 1_555 1_555
O1 C5 1_555 1_555
O2 C5 1_555 1_555
O3 C6 1_555 1_555
O4 C6 1_555 1_555
O5 Zn1 1_555 1_555
N1 C7 1_555 1_555
C1 C2 1_555 1_555
C2 C3 1_555 1_555
C3 C4 1_555 1_555
C4 H3 1_555 1_555
C5 C2 1_555 1_555
C6 C3 1_555 1_555
C7 H4 1_555 1_555
H1 O5 1_555 1_555
H2 C1 1_555 1_555
C2B C1 1_555 1_555
C3B C4 1_555 1_555
C6B C3B 1_555 1_555
O3B C6B 1_555 1_555
O4B C6B 1_555 1_555
C5B C2B 1_555 1_555
O1B C5B 1_555 1_555
O2B C5B 1_555 1_555
C7B C7 1_555 1_555
N1B C7B 1_555 1_555
C7D N1B 1_555 1_555
C7F N1 1_555 1_555
H4F C7F 1_555 1_555
H4D C7D 1_555 1_555
H4B C7B 1_555 1_555
O1E C5E 1_555 1_555
O2E Zn1 1_555 1_555
O3E C6E 1_555 1_555
O4E C6E 1_555 1_555
C1E C2E 1_555 1_555
C2E C3E 1_555 1_555
C3E C4E 1_555 1_555
C4E H3E 1_555 1_555
C5E O2E 1_555 1_555
C6E C3E 1_555 1_555
H2E C1E 1_555 1_555
C2G C1E 1_555 1_555
C3G C4E 1_555 1_555
C6G C3G 1_555 1_555
O3G C6G 1_555 1_555
O4G C6G 1_555 1_555
C5G C2G 1_555 1_555
O1G C5G 1_555 1_555
O2G C5G 1_555 1_555
Zn1B O1B 1_555 1_555
Zn1E O2 1_555 1_555
Zn1G O1G 1_555 1_555
O5B Zn1B 1_555 1_555
H1B O5B 1_555 1_555
O4_2 Zn1 1_555 1_555
Zn1_2 O4 1_555 1_555
Zn1F O5 1_555 1_555
Zn1B_2 O4B 1_555 1_555
Zn1G_2 O2B 1_555 1_555
Zn1E_2 O4E 1_555 1_555
Zn1G_3 O4G 1_555 1_555
Zn1B_3 O2G 1_555 1_555
O2G_2 Zn1B 1_555 1_555
O4B_2 Zn1B 1_555 1_555
O4E_2 Zn1E 1_555 1_555
O5C Zn1E 1_555 1_555
O2B_2 Zn1G 1_555 1_555
O4G_2 Zn1G 1_555 1_555
O5A Zn1G 1_555 1_555
Zn1D O5B 1_555 1_555
H1C O5C 1_555 1_555
H1A O5A 1_555 1_555
C2B C3B 1_555 1_555
C7D C7F 1_555 1_555
O1E Zn1E 1_555 1_555
C2E C5E 1_555 1_555
C2G C3G 1_555 1_555

#END
