
#######################################################################
#
#                 Cambridge Crystallographic Data Centre
#                                CCDC 
#
#######################################################################
#
# If this CIF has been generated from an entry in the Cambridge 
# Structural Database, then it will include bibliographic, chemical, 
# crystal, experimental, refinement or atomic coordinate data resulting 
# from the CCDC's data processing and validation procedures.
#
#######################################################################

data_ILOJOJ
_symmetry_cell_setting           monoclinic
_symmetry_space_group_name_H-M   'C 2/c'
_symmetry_Int_Tables_number      15
_space_group_name_Hall           '-C 2yn'
loop_
_symmetry_equiv_pos_site_id
_symmetry_equiv_pos_as_xyz
1 x,y,z
2 -x,y,1/2-z
3 1/2+x,1/2+y,z
4 1/2-x,1/2+y,1/2-z
5 -x,-y,-z
6 x,-y,1/2+z
7 1/2-x,1/2-y,-z
8 1/2+x,1/2-y,1/2+z
_cell_length_a                   28.600(4)
_cell_length_b                   11.5539(14)
_cell_length_c                   17.686(2)
_cell_angle_alpha                90
_cell_angle_beta                 116.123(2)
_cell_angle_gamma                90
_cell_volume                     5247.21
loop_
_atom_site_label
_atom_site_type_symbol
_atom_site_fract_x
_atom_site_fract_y
_atom_site_fract_z
Cu1 Cu 0.19909(3) 0.03632(5) 0.22981(4)
C1 C 0.2175(2) 0.1851(6) 0.3840(4)
H1 H 0.2311 0.1246 0.4222
C2 C 0.1873(2) 0.2756(5) 0.2715(3)
H2 H 0.1747 0.2965 0.2152
C3 C 0.1760(2) 0.4676(5) 0.3294(4)
H3 H 0.1680 0.4984 0.2740
H4 H 0.2048 0.5121 0.3703
C4 C 0.1303(2) 0.4822(5) 0.3461(4)
C5 C 0.0936(2) 0.3951(5) 0.3318(4)
H5 H 0.0986 0.3228 0.3134
C6 C 0.0499(2) 0.4148(5) 0.3446(4)
H6 H 0.0258 0.3555 0.3345
C7 C 0.0412(2) 0.5219(5) 0.3724(4)
C8 C 0.0797(3) 0.6042(6) 0.3922(5)
H7 H 0.0763 0.6744 0.4150
C9 C 0.1234(3) 0.5846(6) 0.3790(5)
H8 H 0.1486 0.6422 0.3927
C10 C -0.0065(2) 0.5447(5) 0.3845(4)
C11 C -0.0361(2) 0.4572(5) 0.3939(4)
H9 H -0.0266 0.3806 0.3923
C12 C -0.0805(2) 0.4820(5) 0.4060(4)
H10 H -0.1000 0.4215 0.4122
C13 C -0.0954(2) 0.5922(5) 0.4086(4)
C14 C -0.0659(3) 0.6812(6) 0.3991(6)
H11 H -0.0751 0.7578 0.4016
C15 C -0.0232(3) 0.6563(6) 0.3863(6)
H12 H -0.0046 0.7173 0.3783
C16 C -0.1424(2) 0.6154(5) 0.4242(4)
H13 H -0.1712 0.5678 0.3866
H14 H -0.1345 0.5934 0.4816
C17 C -0.1788(2) 0.7971(5) 0.3401(4)
H15 H -0.1903 0.7639 0.2870
C18 C -0.1630(4) 0.9171(6) 0.4369(4)
H16 H -0.1628 0.9849 0.4654
C19 C 0.2368(2) -0.1118(4) 0.3560(3)
C20 C 0.2432(2) -0.1846(4) 0.4289(3)
C21 C 0.2769(2) -0.2791(4) 0.4534(3)
C22 C 0.2162(2) -0.1576(4) 0.4761(3)
H17 H 0.1932 -0.0955 0.4597
C23 C 0.3051(2) -0.3207(4) 0.4032(3)
N1 N 0.20261(17) 0.1718(4) 0.3007(3)
N2 N 0.2116(2) 0.2883(5) 0.4066(3)
N3 N 0.19209(16) 0.3473(4) 0.3331(3)
N4 N -0.18119(18) 0.9056(4) 0.3524(3)
N5 N -0.1461(3) 0.8164(6) 0.4711(4)
N6 N -0.15817(17) 0.7371(4) 0.4114(3)
O1 O 0.19155(17) -0.0656(3) 0.3136(2)
O2 O 0.27351(15) -0.0936(3) 0.3392(2)
O3 O 0.27424(15) -0.3687(3) 0.3339(2)
O4 O 0.35213(17) -0.3096(4) 0.4299(3)
O5 O 0.0928(6) 0.0900(14) 0.1573(9)
Cu1A Cu -0.19909(3) -0.96368(5) 0.27019(4)
Cu1A_2 Cu -0.19909(3) 1.03632(5) 0.27019(4)
Cu1C Cu 0.30091(3) -0.46368(5) 0.27019(4)
Cu1F Cu 0.30091(3) -0.53632(5) 0.77019(4)
Cu1E Cu 0.19909(3) -0.03632(5) 0.72981(4)
C1A C -0.2175(2) -0.8149(6) 0.1160(4)
H1A H -0.2311 -0.8754 0.0778
C2A C -0.1873(2) -0.7244(5) 0.2285(3)
H2A H -0.1747 -0.7035 0.2848
C3A C -0.1760(2) -0.5324(5) 0.1706(4)
H3A H -0.1680 -0.5016 0.2260
H4A H -0.2048 -0.4879 0.1297
C4A C -0.1303(2) -0.5178(5) 0.1539(4)
C5A C -0.0936(2) -0.6049(5) 0.1682(4)
H5A H -0.0986 -0.6772 0.1866
C6A C -0.0499(2) -0.5852(5) 0.1554(4)
H6A H -0.0258 -0.6445 0.1655
C7A C -0.0412(2) -0.4781(5) 0.1276(4)
C8A C -0.0797(3) -0.3958(6) 0.1078(5)
H7A H -0.0763 -0.3256 0.0850
C9A C -0.1234(3) -0.4154(6) 0.1210(5)
H8A H -0.1486 -0.3578 0.1073
C10A C 0.0065(2) -0.4553(5) 0.1155(4)
C11A C 0.0361(2) -0.5428(5) 0.1061(4)
H9A H 0.0266 -0.6194 0.1077
C12A C 0.0805(2) -0.5180(5) 0.0940(4)
H10A H 0.1000 -0.5785 0.0878
C13A C 0.0954(2) -0.4078(5) 0.0914(4)
C14A C 0.0659(3) -0.3188(6) 0.1009(6)
H11A H 0.0751 -0.2422 0.0984
C15A C 0.0232(3) -0.3437(6) 0.1137(6)
H12A H 0.0046 -0.2827 0.1217
C16A C 0.1424(2) -0.3846(5) 0.0758(4)
H13A H 0.1712 -0.4322 0.1134
H14A H 0.1345 -0.4066 0.0184
C17A C 0.1788(2) -0.2029(5) 0.1599(4)
H15A H 0.1903 -0.2361 0.2130
C18A C 0.1630(4) -0.0829(6) 0.0631(4)
H16A H 0.1628 -0.0151 0.0346
C19F C 0.2632(2) -0.3882(4) 0.6440(3)
C20F C 0.2568(2) -0.3154(4) 0.5711(3)
C21F C 0.2231(2) -0.2209(4) 0.5466(3)
C22F C 0.2838(2) -0.3424(4) 0.5239(3)
H17F H 0.3068 -0.4045 0.5403
C23F C 0.1949(2) -0.1793(4) 0.5968(3)
N1A N -0.20261(17) -0.8282(4) 0.1993(3)
N2A N -0.2116(2) -0.7117(5) 0.0934(3)
N3A N -0.19209(16) -0.6527(4) 0.1669(3)
N4A N 0.18119(18) -0.0944(4) 0.1476(3)
N4_2 N -0.18119(18) -1.0944(4) 0.3524(3)
N5A N 0.1461(3) -0.1836(6) 0.0289(4)
N6A N 0.15817(17) -0.2629(4) 0.0886(3)
O1F O 0.30845(17) -0.4344(3) 0.6864(2)
O1A O -0.19155(17) -1.0656(3) 0.1864(2)
O2F O 0.22649(15) -0.4064(3) 0.6608(2)
O2A O -0.27351(15) -1.0936(3) 0.1608(2)
O3F O 0.22576(15) -0.1313(3) 0.6661(2)
O3C O 0.22576(15) 0.1313(3) 0.1661(2)
O3B O -0.22576(15) -0.8687(3) 0.3339(2)
O4F O 0.14787(17) -0.1904(4) 0.5701(3)
O5A O -0.0928(6) -0.9100(14) 0.3427(9)
O6 O 0.0599(10) 0.072(2) 0.9251(18)
loop_
_geom_bond_atom_site_label_1
_geom_bond_atom_site_label_2
_geom_bond_site_symmetry_1
_geom_bond_site_symmetry_2
Cu1 N1 1_555 1_555
C1 H1 1_555 1_555
C2 H2 1_555 1_555
C3 H3 1_555 1_555
H4 C3 1_555 1_555
C4 C3 1_555 1_555
C5 C4 1_555 1_555
H5 C5 1_555 1_555
C6 C5 1_555 1_555
H6 C6 1_555 1_555
C7 C6 1_555 1_555
C8 C7 1_555 1_555
H7 C8 1_555 1_555
C9 C4 1_555 1_555
H8 C9 1_555 1_555
C10 C7 1_555 1_555
C11 C10 1_555 1_555
H9 C11 1_555 1_555
C12 C11 1_555 1_555
H10 C12 1_555 1_555
C13 C12 1_555 1_555
C14 C13 1_555 1_555
H11 C14 1_555 1_555
C15 C10 1_555 1_555
H12 C15 1_555 1_555
C16 C13 1_555 1_555
H13 C16 1_555 1_555
H14 C16 1_555 1_555
C17 H15 1_555 1_555
C18 H16 1_555 1_555
C19 C20 1_555 1_555
C20 C21 1_555 1_555
C21 C23 1_555 1_555
C22 C20 1_555 1_555
H17 C22 1_555 1_555
C23 O3 1_555 1_555
N1 C1 1_555 1_555
N2 C1 1_555 1_555
N3 C2 1_555 1_555
N4 C17 1_555 1_555
N5 C18 1_555 1_555
N6 C16 1_555 1_555
O1 Cu1 1_555 1_555
O2 Cu1 1_555 1_555
O3 Cu1C 1_555 1_555
O4 C23 1_555 1_555
O5 Cu1 1_555 1_555
Cu1A N1A 1_555 1_555
Cu1A_2 N4 1_555 1_555
Cu1F O1F 1_555 1_555
Cu1E O3F 1_555 1_555
C1A H1A 1_555 1_555
C2A H2A 1_555 1_555
C3A H3A 1_555 1_555
H4A C3A 1_555 1_555
C4A C3A 1_555 1_555
C5A C4A 1_555 1_555
H5A C5A 1_555 1_555
C6A C5A 1_555 1_555
H6A C6A 1_555 1_555
C7A C6A 1_555 1_555
C8A C7A 1_555 1_555
H7A C8A 1_555 1_555
C9A C4A 1_555 1_555
H8A C9A 1_555 1_555
C10A C7A 1_555 1_555
C11A C10A 1_555 1_555
H9A C11A 1_555 1_555
C12A C11A 1_555 1_555
H10A C12A 1_555 1_555
C13A C12A 1_555 1_555
C14A C13A 1_555 1_555
H11A C14A 1_555 1_555
C15A C10A 1_555 1_555
H12A C15A 1_555 1_555
C16A C13A 1_555 1_555
H13A C16A 1_555 1_555
H14A C16A 1_555 1_555
C17A H15A 1_555 1_555
C18A H16A 1_555 1_555
C19F C20F 1_555 1_555
C20F C21F 1_555 1_555
C21F C22 1_555 1_555
C22F C21 1_555 1_555
H17F C22F 1_555 1_555
C23F C21F 1_555 1_555
N1A C1A 1_555 1_555
N2A C1A 1_555 1_555
N3A C2A 1_555 1_555
N4A Cu1 1_555 1_555
N4_2 Cu1A 1_555 1_555
N5A C18A 1_555 1_555
N6A C16A 1_555 1_555
O1F C19F 1_555 1_555
O1A Cu1A 1_555 1_555
O2F Cu1F 1_555 1_555
O2A Cu1A 1_555 1_555
O3F C23F 1_555 1_555
O3C Cu1 1_555 1_555
O3B Cu1A 1_555 1_555
O4F C23F 1_555 1_555
O5A Cu1A 1_555 1_555
C2 N1 1_555 1_555
C3 N3 1_555 1_555
C8 C9 1_555 1_555
C14 C15 1_555 1_555
C17 N6 1_555 1_555
C18 N4 1_555 1_555
C19 O1 1_555 1_555
C19 O2 1_555 1_555
N2 N3 1_555 1_555
N5 N6 1_555 1_555
C2A N1A 1_555 1_555
C3A N3A 1_555 1_555
C8A C9A 1_555 1_555
C14A C15A 1_555 1_555
C17A N4A 1_555 1_555
C17A N6A 1_555 1_555
C18A N4A 1_555 1_555
C19F O2F 1_555 1_555
C20F C22F 1_555 1_555
N2A N3A 1_555 1_555
N5A N6A 1_555 1_555

#END
