
#######################################################################
#
#                 Cambridge Crystallographic Data Centre
#                                CCDC 
#
#######################################################################
#
# If this CIF has been generated from an entry in the Cambridge 
# Structural Database, then it will include bibliographic, chemical, 
# crystal, experimental, refinement or atomic coordinate data resulting 
# from the CCDC's data processing and validation procedures.
#
#######################################################################

data_ILOWAI
_symmetry_cell_setting           monoclinic
_symmetry_space_group_name_H-M   'C 2/c'
_symmetry_Int_Tables_number      15
_space_group_name_Hall           '-C 2yn'
loop_
_symmetry_equiv_pos_site_id
_symmetry_equiv_pos_as_xyz
1 x,y,z
2 -x,y,1/2-z
3 1/2+x,1/2+y,z
4 1/2-x,1/2+y,1/2-z
5 -x,-y,-z
6 x,-y,1/2+z
7 1/2-x,1/2-y,-z
8 1/2+x,1/2-y,1/2+z
_cell_length_a                   18.504(4)
_cell_length_b                   19.802(3)
_cell_length_c                   8.6570(18)
_cell_angle_alpha                90
_cell_angle_beta                 99.74(2)
_cell_angle_gamma                90
_cell_volume                     3126.34
loop_
_atom_site_label
_atom_site_type_symbol
_atom_site_fract_x
_atom_site_fract_y
_atom_site_fract_z
N5 N 0.1644(10) 0.2696(10) 0.3043(13)
C14 C 0.2082(9) 0.2582(9) 0.4018(18)
N6 N 0.2665(9) 0.2772(14) 0.485(2)
N5F N 0.3356(10) 0.2304(10) 0.6957(13)
C14F C 0.2918(9) 0.2418(9) 0.5982(18)
N6F N 0.2335(9) 0.2228(14) 0.515(2)
O1 O 0.0584(10) 0.3385(12) 0.2191(15)
H13 H 0.092(10) 0.327(12) 0.294(8)
H14 H 0.079(13) 0.356(3) 0.149(17)
O2 O 0.0908(13) 0.4329(17) 0.156(5)
H15 H 0.098(3) 0.461(3) 0.082(10)
H16 H 0.102(4) 0.459(3) 0.237(9)
O3 O 0.0462(9) 0.4762(12) -0.0984(13)
H17 H 0.0535(6) 0.4510(15) -0.1729(18)
H18 H 0.0094(8) 0.5013(14) -0.1218(5)
Ni1 Ni 0.00000 0.17885(5) 0.7500
C1 C 0.2453(4) 0.4509(4) 0.6679(8)
H1 H 0.1986 0.4724 0.6296
H2 H 0.2546 0.4186 0.5894
N1 N 0.07885(19) 0.2562(2) 0.7758(4)
C2 C 0.3056(3) 0.5047(3) 0.6866(7)
N2 N 0.4144(2) 0.6038(2) 0.7160(5)
C3 C 0.1827(3) 0.3598(3) 0.7945(7)
C4 C 0.1296(3) 0.2651(3) 0.9030(6)
H3 H 0.13 0.236 0.9874
C5 C 0.2399(4) 0.4161(4) 0.8061(8)
H4 H 0.2293 0.4486 0.8829
H5 H 0.2875 0.3966 0.8461
C6 C 0.1285(3) 0.3522(3) 0.6641(6)
H6 H 0.1259 0.3819 0.5802
C7 C 0.3526(3) 0.6137(3) 0.7722(5)
H7 H 0.3466 0.654 0.824
C8 C 0.3698(3) 0.4954(3) 0.6298(7)
H8 H 0.3782 0.4549 0.5814
C9 C 0.0786(3) 0.3001(2) 0.6593(5)
H9 H 0.043 0.2954 0.5702
C10 C 0.4218(3) 0.5454(3) 0.6439(6)
H10 H 0.464 0.5382 0.6013
C11 C 0.1820(2) 0.3159(3) 0.9151(6)
H11 H 0.2167 0.32 1.0058
N3 N 0.00017(17) 0.1722(2) 0.5104(4)
C12 C -0.0002(3) 0.1573(2) 0.3830(6)
N4 N 0.0211(8) 0.1330(5) 0.2623(19)
C13 C 0.2962(3) 0.5658(4) 0.7561(7)
H12 H 0.2528 0.5752 0.7923
Ni1B Ni 0.50000 0.67885(5) 0.7500
Ni1_2 Ni 0.00000 0.17885(5) -0.2500
Ni1B_2 Ni -0.50000 0.67885(5) 0.7500
C1A C -0.2453(4) 0.4509(4) 0.8321(8)
H1A H -0.1986 0.4724 0.8704
H2A H -0.2546 0.4186 0.9106
N1A N -0.07885(19) 0.2562(2) 0.7242(4)
C2A C -0.3056(3) 0.5047(3) 0.8134(7)
N2A N -0.4144(2) 0.6038(2) 0.7840(5)
N2B N -0.0856(2) 0.1038(2) 0.7160(5)
N2C N 0.0856(2) 0.1038(2) 0.7840(5)
C3A C -0.1827(3) 0.3598(3) 0.7055(7)
C4A C -0.1296(3) 0.2651(3) 0.5970(6)
H3A H -0.13 0.236 0.5126
C5A C -0.2399(4) 0.4161(4) 0.6939(8)
H4A H -0.2293 0.4486 0.6171
H5A H -0.2875 0.3966 0.6539
C6A C -0.1285(3) 0.3522(3) 0.8359(6)
H6A H -0.1259 0.3819 0.9198
C7A C -0.3526(3) 0.6137(3) 0.7278(5)
H7A H -0.3466 0.654 0.676
C8A C -0.3698(3) 0.4954(3) 0.8702(7)
H8A H -0.3782 0.4549 0.9186
C9A C -0.0786(3) 0.3001(2) 0.8407(5)
H9A H -0.043 0.2954 0.9298
C10A C -0.4218(3) 0.5454(3) 0.8561(6)
H10A H -0.464 0.5382 0.8987
C11A C -0.1820(2) 0.3159(3) 0.5849(6)
H11A H -0.2167 0.32 0.4942
N3A N -0.00017(17) 0.1722(2) -0.0104(4)
N3A_2 N -0.00017(17) 0.1722(2) 0.9896(4)
C12A C 0.0002(3) 0.1573(2) 0.1170(6)
N4A N -0.0211(8) 0.1330(5) 0.2377(19)
C13A C -0.2962(3) 0.5658(4) 0.7439(7)
H12A H -0.2528 0.5752 0.7077
loop_
_geom_bond_atom_site_label_1
_geom_bond_atom_site_label_2
_geom_bond_site_symmetry_1
_geom_bond_site_symmetry_2
Ni1 N1 1_555 1_555
C1 H1 1_555 1_555
H2 C1 1_555 1_555
N1 C4 1_555 1_555
C2 C1 1_555 1_555
N2 C7 1_555 1_555
C3 C5 1_555 1_555
C4 H3 1_555 1_555
C5 C1 1_555 1_555
H4 C5 1_555 1_555
H5 C5 1_555 1_555
C6 C3 1_555 1_555
H6 C6 1_555 1_555
C7 H7 1_555 1_555
C8 C2 1_555 1_555
H8 C8 1_555 1_555
C9 N1 1_555 1_555
H9 C9 1_555 1_555
C10 N2 1_555 1_555
H10 C10 1_555 1_555
C11 C3 1_555 1_555
H11 C11 1_555 1_555
N3 Ni1 1_555 1_555
C12 N3 1_555 1_555
N4 C12 1_555 1_555
C13 C2 1_555 1_555
H12 C13 1_555 1_555
N5 C14 1_555 1_555
C14 N6 1_555 1_555
N6 C14F 1_555 1_555
O1 H13 1_555 1_555
H14 O1 1_555 1_555
O2 H15 1_555 1_555
H16 O2 1_555 1_555
O3 H17 1_555 1_555
H18 O3 1_555 1_555
Ni1B N2 1_555 1_555
Ni1_2 N3A 1_555 1_555
Ni1B_2 N2A 1_555 1_555
C1A H1A 1_555 1_555
H2A C1A 1_555 1_555
N1A Ni1 1_555 1_555
C2A C1A 1_555 1_555
N2A C7A 1_555 1_555
N2B Ni1 1_555 1_555
N2C Ni1 1_555 1_555
C3A C5A 1_555 1_555
C4A N1A 1_555 1_555
H3A C4A 1_555 1_555
C5A C1A 1_555 1_555
H4A C5A 1_555 1_555
H5A C5A 1_555 1_555
C6A C3A 1_555 1_555
H6A C6A 1_555 1_555
C7A H7A 1_555 1_555
C8A C2A 1_555 1_555
H8A C8A 1_555 1_555
C9A N1A 1_555 1_555
H9A C9A 1_555 1_555
C10A N2A 1_555 1_555
H10A C10A 1_555 1_555
C11A C3A 1_555 1_555
H11A C11A 1_555 1_555
N3A C12A 1_555 1_555
N3A_2 Ni1 1_555 1_555
C12A N4 1_555 1_555
N4A C12 1_555 1_555
C13A C2A 1_555 1_555
H12A C13A 1_555 1_555
N5F C14F 1_555 1_555
C14F N6F 1_555 1_555
N6F C14 1_555 1_555
C4 C11 1_555 1_555
C6 C9 1_555 1_555
C7 C13 1_555 1_555
C8 C10 1_555 1_555
N4 N4A 1_555 1_555
N6 N6F 1_555 1_555
C4A C11A 1_555 1_555
C6A C9A 1_555 1_555
C7A C13A 1_555 1_555
C8A C10A 1_555 1_555
C12A N4A 1_555 1_555

#END
