
#######################################################################
#
#                 Cambridge Crystallographic Data Centre
#                                CCDC 
#
#######################################################################
#
# If this CIF has been generated from an entry in the Cambridge 
# Structural Database, then it will include bibliographic, chemical, 
# crystal, experimental, refinement or atomic coordinate data resulting 
# from the CCDC's data processing and validation procedures.
#
#######################################################################

data_IMIDZB04
_symmetry_cell_setting           tetragonal
_symmetry_space_group_name_H-M   'I 41 c d'
_symmetry_Int_Tables_number      110
_space_group_name_Hall           'I 4bw -2c'
loop_
_symmetry_equiv_pos_site_id
_symmetry_equiv_pos_as_xyz
1 x,y,z
2 1/2-x,1/2-y,1/2+z
3 -y,1/2+x,1/4+z
4 1/2+y,-x,3/4+z
5 x,-y,1/2+z
6 1/2-x,1/2+y,z
7 -y,1/2-x,3/4+z
8 1/2+y,x,1/4+z
9 1/2+x,1/2+y,1/2+z
10 -x,-y,z
11 1/2-y,x,3/4+z
12 y,1/2-x,1/4+z
13 1/2+x,1/2-y,z
14 -x,y,1/2+z
15 1/2-y,-x,1/4+z
16 y,1/2+x,3/4+z
_cell_length_a                   23.3569(5)
_cell_length_b                   23.3569(5)
_cell_length_c                   12.4441(6)
_cell_angle_alpha                90
_cell_angle_beta                 90
_cell_angle_gamma                90
_cell_volume                     6788.81
loop_
_atom_site_label
_atom_site_type_symbol
_atom_site_fract_x
_atom_site_fract_y
_atom_site_fract_z
Zn1 Zn 1.6478(2) 1.40260(19) -0.0035(4)
Zn2 Zn 1.8498(2) 1.39799(17) 0.2914(4)
C1 C 1.6214(8) 1.5277(10) 0.0159(16)
H1 H 1.5960 1.5215 0.0723
C2 C 1.6802(8) 1.5126(10) -0.1087(17)
H2 H 1.7059 1.4954 -0.1559
C3 C 1.6673(9) 1.5689(9) -0.1070(17)
H3 H 1.6808 1.5959 -0.1558
C4 C 1.5251(13) 1.3782(11) 0.0148(15)
H4 H 1.5207 1.3854 -0.0583
C5 C 1.5636(11) 1.3681(10) 0.1660(17)
H5 H 1.5895 1.3682 0.2228
C6 C 1.5086(11) 1.3507(12) 0.1722(19)
H6 H 1.4918 1.3347 0.2329
C7 C 1.6436(8) 1.3810(6) -0.236(2)
H7 H 1.6409 1.4199 -0.2521
C8 C 1.6523(10) 1.3040(8) -0.1518(15)
H8 H 1.6573 1.2772 -0.0973
C9 C 1.6440(7) 1.2919(10) -0.2564(17)
H9 H 1.6421 1.2552 -0.2854
C10 C 1.7516(12) 1.4033(6) 0.138(2)
H10 H 1.7606 1.4402 0.1163
C11 C 1.7071(8) 1.3253(8) 0.1549(17)
H11 H 1.6802 1.2962 0.1478
C12 C 1.7527(9) 1.3250(7) 0.2210(14)
H12 H 1.7625 1.2954 0.2674
N1 N 1.6502(8) 1.4849(8) -0.031(2)
N2 N 1.6315(8) 1.5802(9) -0.0235(18)
N3 N 1.5753(10) 1.3854(9) 0.065(2)
N4 N 1.4812(10) 1.3599(10) 0.076(2)
N5 N 1.6523(9) 1.3617(10) -0.1385(18)
N6 N 1.6390(11) 1.3405(10) -0.3121(17)
N7 N 1.7075(9) 1.3745(10) 0.1016(17)
N8 N 1.7820(9) 1.3748(9) 0.2094(18)
Zn2B Zn 1.60201(17) 1.3498(2) -0.4586(4)
Zn2F Zn 1.60201(17) 1.6502(2) 0.0414(4)
Zn2O Zn 1.39799(17) 1.3498(2) 0.0414(4)
N2N N 1.9198(9) 1.3685(8) 0.2265(18)
N4G N 1.8599(10) 1.4812(10) 0.326(2)
N6C N 1.8405(10) 1.3610(11) 0.4379(17)
loop_
_geom_bond_atom_site_label_1
_geom_bond_atom_site_label_2
_geom_bond_site_symmetry_1
_geom_bond_site_symmetry_2
Zn1 N1 1_555 1_555
Zn2 N8 1_555 1_555
C1 H1 1_555 1_555
C2 H2 1_555 1_555
C3 C2 1_555 1_555
H3 C3 1_555 1_555
C4 H4 1_555 1_555
C5 H5 1_555 1_555
C6 C5 1_555 1_555
H6 C6 1_555 1_555
C7 H7 1_555 1_555
C8 H8 1_555 1_555
C9 C8 1_555 1_555
H9 C9 1_555 1_555
C10 H10 1_555 1_555
C11 H11 1_555 1_555
C12 C11 1_555 1_555
H12 C12 1_555 1_555
N1 C1 1_555 1_555
N2 C1 1_555 1_555
N3 Zn1 1_555 1_555
N4 C4 1_555 1_555
N5 Zn1 1_555 1_555
N6 C7 1_555 1_555
N7 Zn1 1_555 1_555
N8 C10 1_555 1_555
Zn2B N6 1_555 1_555
Zn2F N2 1_555 1_555
Zn2O N4 1_555 1_555
N2N Zn2 1_555 1_555
N4G Zn2 1_555 1_555
N6C Zn2 1_555 1_555
C2 N1 1_555 1_555
C3 N2 1_555 1_555
C4 N3 1_555 1_555
C5 N3 1_555 1_555
C6 N4 1_555 1_555
C7 N5 1_555 1_555
C8 N5 1_555 1_555
C9 N6 1_555 1_555
C10 N7 1_555 1_555
C11 N7 1_555 1_555
C12 N8 1_555 1_555

#END
