
#######################################################################
#
#                 Cambridge Crystallographic Data Centre
#                                CCDC 
#
#######################################################################
#
# If this CIF has been generated from an entry in the Cambridge 
# Structural Database, then it will include bibliographic, chemical, 
# crystal, experimental, refinement or atomic coordinate data resulting 
# from the CCDC's data processing and validation procedures.
#
#######################################################################

data_IMIQIF
_symmetry_cell_setting           triclinic
_symmetry_space_group_name_H-M   'P -1'
_symmetry_Int_Tables_number      2
_space_group_name_Hall           '-P 1'
loop_
_symmetry_equiv_pos_site_id
_symmetry_equiv_pos_as_xyz
1 x,y,z
2 -x,-y,-z
_cell_length_a                   11.71520(10)
_cell_length_b                   13.5922(5)
_cell_length_c                   20.6532(7)
_cell_angle_alpha                89.218(8)
_cell_angle_beta                 76.358(8)
_cell_angle_gamma                67.393(4)
_cell_volume                     2939.48
loop_
_atom_site_label
_atom_site_type_symbol
_atom_site_fract_x
_atom_site_fract_y
_atom_site_fract_z
W7 W 0.79562(16) 0.96724(15) 0.91006(8)
W8 W 1.00212(18) 0.74245(13) 0.97159(9)
W9 W 0.73715(15) 0.94049(15) 1.08301(9)
W10 W 1.25645(15) 0.80819(13) 0.88267(8)
W11 W 0.78163(15) 1.22624(13) 0.94485(8)
W12 W 1.04830(16) 1.04132(13) 0.82793(8)
Si2 Si 1.0000 1.0000 1.0000
O23 O 0.913(5) 0.925(5) 0.993(3)
O24 O 0.935(5) 1.042(4) 0.945(3)
O25 O 1.098(5) 0.873(4) 0.983(3)
O26 O 0.900(5) 1.020(4) 1.072(3)
O27 O 0.855(3) 0.799(3) 1.0444(16)
O28 O 1.112(3) 0.710(2) 1.0261(14)
O29 O 0.683(3) 1.332(3) 0.9196(18)
O30 O 0.699(3) 0.948(2) 0.8675(14)
O31 O 0.701(3) 0.969(3) 0.9995(15)
O32 O 0.899(3) 0.822(3) 0.9148(15)
O33 O 0.724(3) 1.117(2) 0.9240(15)
O34 O 1.002(3) 0.624(2) 0.9558(14)
O35 O 0.918(3) 0.983(2) 0.8395(15)
O36 O 1.162(3) 0.898(2) 0.8270(15)
O37 O 1.149(3) 0.734(2) 0.8988(14)
O38 O 1.381(3) 0.717(2) 0.8285(15)
O39 O 0.619(3) 0.909(2) 1.1203(14)
O40 O 0.676(3) 1.086(2) 1.1079(14)
O41 O 0.703(3) 1.237(2) 1.0363(14)
O42 O 1.060(3) 1.064(2) 0.7481(14)
O43 O 0.837(3) 0.910(2) 1.1456(15)
O44 O 0.911(3) 1.179(2) 0.8634(14)
W7A W 1.20438(16) 1.03276(15) 1.08994(8)
W8A W 0.99788(18) 1.25755(13) 1.02841(9)
W9A W 1.26285(15) 1.05951(15) 0.91699(9)
W10A W 0.74355(15) 1.19181(13) 1.11733(8)
W11A W 1.21837(15) 0.77376(13) 1.05515(8)
W12A W 0.95170(16) 0.95868(13) 1.17207(8)
O23A O 1.087(5) 1.075(5) 1.007(3)
O24A O 1.065(5) 0.958(4) 1.055(3)
O25A O 0.902(5) 1.127(4) 1.017(3)
O26A O 1.100(5) 0.980(4) 0.928(3)
O27A O 1.145(3) 1.201(3) 0.9556(16)
O28A O 0.888(3) 1.290(2) 0.9739(14)
O29A O 1.317(3) 0.668(3) 1.0804(18)
O30A O 1.301(3) 1.052(2) 1.1325(14)
O31A O 1.299(3) 1.031(3) 1.0005(15)
O32A O 1.101(3) 1.178(3) 1.0852(15)
O33A O 1.276(3) 0.883(2) 1.0760(15)
O34A O 0.998(3) 1.376(2) 1.0442(14)
O35A O 1.082(3) 1.017(2) 1.1605(15)
O36A O 0.838(3) 1.102(2) 1.1730(15)
O37A O 0.851(3) 1.266(2) 1.1012(14)
O38A O 0.619(3) 1.283(2) 1.1715(15)
O39A O 1.381(3) 1.091(2) 0.8797(14)
O40A O 1.324(3) 0.914(2) 0.8921(14)
O41A O 1.297(3) 0.763(2) 0.9637(14)
O42A O 0.940(3) 0.936(2) 1.2519(14)
O43A O 1.163(3) 1.090(2) 0.8544(15)
O44A O 1.089(3) 0.821(2) 1.1366(14)
Cu1 Cu 0.6836(6) 0.9392(5) 0.7634(3)
Cu2 Cu 0.2929(5) 0.8511(5) 0.6089(3)
Cu3 Cu 0.5099(5) 1.3162(5) 0.7196(3)
Cu4 Cu 0.8705(5) 1.5206(5) 0.8451(3)
Cu5 Cu 0.5243(6) 1.1916(5) 0.8718(3)
Cl1 Cl 0.6161(10) 1.1418(9) 0.7686(5)
N1 N 0.541(4) 0.919(3) 0.7401(18)
N2 N 0.389(3) 0.880(3) 0.6715(17)
N3 N 0.373(3) 0.803(3) 0.5148(17)
N4 N 0.446(3) 0.736(3) 0.3803(19)
N5 N 0.619(3) 1.379(3) 0.7523(17)
N6 N 0.770(3) 1.458(3) 0.8074(18)
N7 N 0.251(4) 1.386(3) 1.0762(19)
N8 N 0.422(4) 1.269(3) 0.9528(19)
N9 N 0.864(4) 0.893(3) 0.716(2)
N10 N 1.121(3) 0.858(3) 0.6488(17)
N11 N 0.323(3) 1.377(3) 0.7688(17)
N12 N 0.060(3) 1.460(3) 0.8209(18)
C1 C 0.539(4) 0.823(4) 0.739(2)
H1 H 0.5841 0.7718 0.7640
C2 C 0.464(4) 0.794(4) 0.698(2)
H2 H 0.4686 0.7251 0.6915
C3 C 0.384(4) 0.973(4) 0.683(2)
H3 H 0.3236 1.0300 0.6689
C4 C 0.461(5) 0.997(4) 0.715(2)
H4 H 0.4571 1.0666 0.7193
C5 C 0.439(4) 0.699(4) 0.487(2)
H5 H 0.4560 0.6435 0.5149
C6 C 0.479(4) 0.675(4) 0.419(2)
H6 H 0.5353 0.6052 0.4034
C7 C 0.394(4) 0.837(4) 0.397(2)
H7 H 0.3831 0.8850 0.3641
C8 C 0.349(4) 0.880(4) 0.470(2)
H8 H 0.3092 0.9529 0.4839
C9 C 0.746(4) 1.327(4) 0.743(2)
H9 H 0.7880 1.2628 0.7162
C10 C 0.814(4) 1.366(4) 0.773(2)
H10 H 0.8994 1.3231 0.7685
C11 C 0.572(4) 1.478(4) 0.783(2)
H11 H 0.4886 1.5230 0.7833
C12 C 0.638(4) 1.514(4) 0.812(2)
H12 H 0.5958 1.5792 0.8377
C13 C 0.322(4) 1.290(4) 1.070(2)
H13 H 0.3132 1.2567 1.1099
C14 C 0.413(4) 1.222(4) 1.017(2)
H14 H 0.4645 1.1519 1.0211
C15 C 0.351(5) 1.376(4) 0.957(2)
H15 H 0.3622 1.4135 0.9194
C16 C 0.250(5) 1.436(4) 1.022(2)
H16 H 0.1907 1.5054 1.0227
C17 C 0.958(4) 0.833(4) 0.734(2)
H17 H 0.9438 0.7973 0.7722
C18 C 0.893(5) 0.938(4) 0.660(3)
H18 H 0.8263 0.9863 0.6441
C19 C 1.023(5) 0.916(4) 0.623(2)
H19 H 1.0387 0.9421 0.5811
C20 C 1.091(4) 0.813(4) 0.700(2)
H20 H 1.1562 0.7647 0.7161
C21 C 0.266(4) 1.321(4) 0.800(2)
H21 H 0.3157 1.2508 0.8046
C22 C 0.253(4) 1.479(4) 0.762(2)
H22 H 0.2936 1.5196 0.7384
C23 C 0.129(4) 1.523(4) 0.787(2)
H23 H 0.0850 1.5950 0.7823
C24 C 0.130(4) 1.360(4) 0.828(2)
H24 H 0.0926 1.3159 0.8507
Cu1_2 Cu 1.6836(6) 0.9392(5) 0.7634(3)
Cu1_3 Cu -0.3164(6) 0.9392(5) 0.7634(3)
Cu2_2 Cu 1.2929(5) 0.8511(5) 0.6089(3)
Cu2A Cu 0.7071(5) 1.1489(5) 0.3911(3)
Cu3A Cu 0.4901(5) 0.6838(5) 0.2804(3)
Cu3_2 Cu 1.5099(5) 1.3162(5) 0.7196(3)
Cu4A Cu 0.1295(5) 1.4794(5) 1.1549(3)
Cu4_2 Cu -0.1295(5) 1.5206(5) 0.8451(3)
Cu4A_2 Cu 0.1295(5) 0.4794(5) 0.1549(3)
Cu5_2 Cu 1.5243(6) 1.1916(5) 0.8718(3)
Cu5A Cu 0.4757(6) 1.8084(5) 1.1282(3)
Cl1_2 Cl 1.6161(10) 1.1418(9) 0.7686(5)
Cl1A Cl 0.3839(10) 0.8582(9) 0.2314(5)
N1_2 N 1.541(4) 0.919(3) 0.7401(18)
N2_2 N 1.389(3) 0.880(3) 0.6715(17)
N3A N 0.627(3) 1.197(3) 0.4852(17)
N3_2 N 1.373(3) 0.803(3) 0.5148(17)
N4A N 0.554(3) 1.264(3) 0.6197(19)
N5A N 0.381(3) 0.621(3) 0.2477(17)
N6A N 0.230(3) 0.542(3) 0.1926(18)
N6A_2 N 0.230(3) 1.542(3) 1.1926(18)
N7A N 0.749(4) 1.614(3) 0.9238(19)
N8A N 0.578(4) 1.731(3) 1.0472(19)
N8_2 N 1.422(4) 1.269(3) 0.9528(19)
N9_2 N -0.136(4) 0.893(3) 0.716(2)
N9_3 N 1.864(4) 0.893(3) 0.716(2)
N10_2 N 0.121(3) 0.858(3) 0.6488(17)
N11_2 N 1.323(3) 1.377(3) 0.7688(17)
N11A N 0.677(3) 0.623(3) 0.2312(17)
N12_2 N 1.060(3) 1.460(3) 0.8209(18)
N12A N -0.060(3) 1.540(3) 1.1791(18)
C1_2 C 1.539(4) 0.823(4) 0.739(2)
H1_2 H 1.5841 0.7718 0.7640
C2_2 C 1.464(4) 0.794(4) 0.698(2)
H2_2 H 1.4686 0.7251 0.6915
C3_2 C 1.384(4) 0.973(4) 0.683(2)
H3_2 H 1.3236 1.0300 0.6689
C4_2 C 1.461(5) 0.997(4) 0.715(2)
H4_2 H 1.4571 1.0666 0.7193
C5A C 0.561(4) 1.301(4) 0.513(2)
H5A H 0.5440 1.3565 0.4851
C6A C 0.521(4) 1.325(4) 0.581(2)
H6A H 0.4647 1.3948 0.5966
C7A C 0.606(4) 1.163(4) 0.603(2)
H7A H 0.6169 1.1150 0.6359
C8A C 0.651(4) 1.120(4) 0.530(2)
H8A H 0.6908 1.0471 0.5161
C9A C 0.254(4) 0.673(4) 0.257(2)
H9A H 0.2120 0.7372 0.2838
C10A C 0.186(4) 0.634(4) 0.227(2)
H10A H 0.1006 0.6769 0.2315
C11A C 0.428(4) 0.522(4) 0.217(2)
H11A H 0.5114 0.4770 0.2167
C12A C 0.362(4) 0.486(4) 0.188(2)
H12A H 0.4042 0.4208 0.1623
C13A C 0.678(4) 1.710(4) 0.930(2)
H13A H 0.6868 1.7433 0.8901
C14A C 0.587(4) 1.778(4) 0.983(2)
H14A H 0.5355 1.8481 0.9789
C15A C 0.649(5) 1.624(4) 1.043(2)
H15A H 0.6378 1.5865 1.0806
C16A C 0.750(5) 1.564(4) 0.978(2)
H16A H 0.8093 1.4946 0.9773
C17_2 C -0.042(4) 0.833(4) 0.734(2)
H17_2 H -0.0562 0.7973 0.7722
C18_2 C -0.107(5) 0.938(4) 0.660(3)
H18_2 H -0.1737 0.9863 0.6441
C19_2 C 0.023(5) 0.916(4) 0.623(2)
H19_2 H 0.0387 0.9421 0.5811
C20_2 C 0.091(4) 0.813(4) 0.700(2)
H20_2 H 0.1562 0.7647 0.7161
C21_2 C 1.266(4) 1.321(4) 0.800(2)
H21_2 H 1.3157 1.2508 0.8046
C22_2 C 1.253(4) 1.479(4) 0.762(2)
H22_2 H 1.2936 1.5196 0.7384
C23_2 C 1.129(4) 1.523(4) 0.787(2)
H23_2 H 1.0850 1.5950 0.7823
C24_2 C 1.130(4) 1.360(4) 0.828(2)
H24_2 H 1.0926 1.3159 0.8507
W1 W 0.1082(2) 0.40015(17) 0.33000(9)
W2 W -0.30685(16) 0.52930(17) 0.59230(8)
W3 W -0.19911(16) 0.43026(16) 0.42281(9)
W4 W -0.13411(17) 0.65929(14) 0.37920(9)
W5 W 0.24147(17) 0.24186(14) 0.45129(9)
W6 W -0.06627(15) 0.27097(14) 0.54380(8)
Si1 Si 0.0000 0.5000 0.5000
O1 O -0.046(5) 0.508(5) 0.424(3)
O2 O -0.099(5) 0.440(5) 0.513(3)
O3 O 0.128(5) 0.414(5) 0.443(3)
O4 O -0.046(5) 0.618(5) 0.475(3)
O5 O -0.135(3) 0.318(3) 0.4649(15)
O6 O 0.149(3) 0.361(3) 0.2501(14)
O7 O -0.036(3) 0.368(3) 0.3580(15)
O8 O -0.218(3) 0.379(3) 0.5931(15)
O9 O 0.245(3) 0.441(3) 0.3347(14)
O10 O 0.005(3) 0.542(3) 0.3229(15)
O11 O -0.248(3) 0.742(2) 0.4601(14)
O12 O -0.290(3) 0.394(3) 0.3845(15)
O13 O -0.346(3) 0.674(3) 0.5722(14)
O14 O -0.320(3) 0.501(3) 0.5039(15)
O15 O -0.013(3) 0.715(3) 0.3889(15)
O16 O 0.348(3) 0.122(3) 0.4300(16)
O17 O -0.451(3) 0.546(2) 0.6397(13)
O18 O -0.199(3) 0.733(3) 0.3236(16)
O19 O 0.194(3) 0.273(2) 0.3714(14)
O20 O 0.098(3) 0.206(3) 0.4818(14)
O21 O -0.222(3) 0.568(3) 0.3948(16)
O22 O -0.091(3) 0.158(3) 0.5676(16)
W1A W -0.1082(2) 0.59985(17) 0.67000(9)
W2A W 0.30685(16) 0.47070(17) 0.40770(8)
W3A W 0.19911(16) 0.56974(16) 0.57719(9)
W4A W 0.13411(17) 0.34071(14) 0.62080(9)
W5A W -0.24147(17) 0.75814(14) 0.54871(9)
W6A W 0.06627(15) 0.72903(14) 0.45620(8)
O1A O 0.046(5) 0.492(5) 0.576(3)
O2A O 0.099(5) 0.560(5) 0.487(3)
O3A O -0.128(5) 0.586(5) 0.557(3)
O4A O 0.046(5) 0.382(5) 0.525(3)
O5A O 0.135(3) 0.682(3) 0.5351(15)
O6A O -0.149(3) 0.639(3) 0.7499(14)
O7A O 0.036(3) 0.632(3) 0.6420(15)
O8A O 0.218(3) 0.621(3) 0.4069(15)
O9A O -0.245(3) 0.559(3) 0.6653(14)
O10A O -0.005(3) 0.458(3) 0.6771(15)
O11A O 0.248(3) 0.258(2) 0.5399(14)
O12A O 0.290(3) 0.606(3) 0.6155(15)
O13A O 0.346(3) 0.326(3) 0.4278(14)
O14A O 0.320(3) 0.499(3) 0.4961(15)
O15A O 0.013(3) 0.285(3) 0.6111(15)
O16A O -0.348(3) 0.878(3) 0.5700(16)
O17A O 0.451(3) 0.454(2) 0.3603(13)
O18A O 0.199(3) 0.267(3) 0.6764(16)
O19A O -0.194(3) 0.727(2) 0.6286(14)
O20A O -0.098(3) 0.794(3) 0.5182(14)
O21A O 0.222(3) 0.432(3) 0.6052(16)
O22A O 0.091(3) 0.842(3) 0.4324(16)
loop_
_geom_bond_atom_site_label_1
_geom_bond_atom_site_label_2
_geom_bond_site_symmetry_1
_geom_bond_site_symmetry_2
W1 O1 1_555 1_555
W2 O2 1_555 1_555
W3 O1 1_555 1_555
W4 O1 1_555 1_555
W5 O3 1_555 1_555
W6 O2 1_555 1_555
W7 O23 1_555 1_555
W8 O23 1_555 1_555
W9 O23 1_555 1_555
W10 O25 1_555 1_555
W11 O24 1_555 1_555
W12 O24 1_555 1_555
Cu1 Cl1 1_555 1_555
Cu2 N2 1_555 1_555
Cu3 Cl1 1_555 1_555
Cu4 N6 1_555 1_555
Cu5 Cl1 1_555 1_555
Si1 O1 1_555 1_555
Si2 O23 1_555 1_555
N1 Cu1 1_555 1_555
N2 C2 1_555 1_555
N3 Cu2 1_555 1_555
N4 C6 1_555 1_555
N5 Cu3 1_555 1_555
N6 C10 1_555 1_555
N7 C13 1_555 1_555
N8 Cu5 1_555 1_555
N9 Cu1 1_555 1_555
N10 C19 1_555 1_555
N11 Cu3 1_555 1_555
N12 C23 1_555 1_555
O2 W3 1_555 1_555
O3 W1 1_555 1_555
O4 W4 1_555 1_555
O5 W3 1_555 1_555
O6 W1 1_555 1_555
O7 W1 1_555 1_555
O8 W2 1_555 1_555
O9 W1 1_555 1_555
O10 W1 1_555 1_555
O11 W4 1_555 1_555
O12 W3 1_555 1_555
O13 W2 1_555 1_555
O14 W2 1_555 1_555
O15 W4 1_555 1_555
O16 W5 1_555 1_555
O17 W2 1_555 1_555
O18 W4 1_555 1_555
O19 W1 1_555 1_555
O20 W5 1_555 1_555
O21 W3 1_555 1_555
O22 W6 1_555 1_555
O24 W7 1_555 1_555
O25 W8 1_555 1_555
O26 W9 1_555 1_555
O27 W8 1_555 1_555
O28 W8 1_555 1_555
O29 W11 1_555 1_555
O30 W7 1_555 1_555
O31 W7 1_555 1_555
O32 W7 1_555 1_555
O33 W7 1_555 1_555
O34 W8 1_555 1_555
O35 W7 1_555 1_555
O36 W10 1_555 1_555
O37 W8 1_555 1_555
O38 W10 1_555 1_555
O39 W9 1_555 1_555
O40 W9 1_555 1_555
O41 W11 1_555 1_555
O42 W12 1_555 1_555
O43 W9 1_555 1_555
O44 W11 1_555 1_555
C1 N1 1_555 1_555
H1 C1 1_555 1_555
C2 C1 1_555 1_555
H2 C2 1_555 1_555
C3 N2 1_555 1_555
H3 C3 1_555 1_555
C4 N1 1_555 1_555
H4 C4 1_555 1_555
C5 N3 1_555 1_555
H5 C5 1_555 1_555
C6 C5 1_555 1_555
H6 C6 1_555 1_555
C7 N4 1_555 1_555
H7 C7 1_555 1_555
C8 N3 1_555 1_555
H8 C8 1_555 1_555
C9 N5 1_555 1_555
H9 C9 1_555 1_555
C10 C9 1_555 1_555
H10 C10 1_555 1_555
C11 N5 1_555 1_555
H11 C11 1_555 1_555
C12 N6 1_555 1_555
H12 C12 1_555 1_555
C13 H13 1_555 1_555
C14 N8 1_555 1_555
H14 C14 1_555 1_555
C15 N8 1_555 1_555
H15 C15 1_555 1_555
C16 N7 1_555 1_555
H16 C16 1_555 1_555
C17 N9 1_555 1_555
H17 C17 1_555 1_555
C18 N9 1_555 1_555
H18 C18 1_555 1_555
C19 C18 1_555 1_555
H19 C19 1_555 1_555
C20 N10 1_555 1_555
H20 C20 1_555 1_555
C21 N11 1_555 1_555
H21 C21 1_555 1_555
C22 N11 1_555 1_555
H22 C22 1_555 1_555
C23 C22 1_555 1_555
H23 C23 1_555 1_555
C24 N12 1_555 1_555
H24 C24 1_555 1_555
W1A O1A 1_555 1_555
W2A O3 1_555 1_555
W3A O1A 1_555 1_555
W4A O1A 1_555 1_555
W5A O4 1_555 1_555
W6A O4 1_555 1_555
W7A O23A 1_555 1_555
W8A O23A 1_555 1_555
W9A O23A 1_555 1_555
W10A O26 1_555 1_555
W11A O25 1_555 1_555
W12A O26 1_555 1_555
Cu1_2 Cl1_2 1_555 1_555
Cu1_3 N9_2 1_555 1_555
Cu2_2 N10 1_555 1_555
Cu2A N3A 1_555 1_555
Cu3A N4 1_555 1_555
Cu3_2 Cl1_2 1_555 1_555
Cu4A N7 1_555 1_555
Cu4_2 N12 1_555 1_555
Cu4A_2 N6A 1_555 1_555
Cu5_2 Cl1_2 1_555 1_555
Cu5A N8A 1_555 1_555
Cl1A Cu3A 1_555 1_555
N1_2 Cu1_2 1_555 1_555
N2_2 Cu2_2 1_555 1_555
N3A C5A 1_555 1_555
N3_2 Cu2_2 1_555 1_555
N4A Cu3 1_555 1_555
N5A Cu3A 1_555 1_555
N6A C10A 1_555 1_555
N6A_2 Cu4A 1_555 1_555
N7A Cu4 1_555 1_555
N8A C14A 1_555 1_555
N8_2 Cu5_2 1_555 1_555
N9_2 C17_2 1_555 1_555
N9_3 Cu1_2 1_555 1_555
N10_2 Cu2 1_555 1_555
N11_2 Cu3_2 1_555 1_555
N11A Cu3A 1_555 1_555
N12_2 Cu4 1_555 1_555
N12A Cu4A 1_555 1_555
O1A Si1 1_555 1_555
O2A Si1 1_555 1_555
O3A W2 1_555 1_555
O4A W5 1_555 1_555
O5A W3A 1_555 1_555
O6A W1A 1_555 1_555
O7A W1A 1_555 1_555
O8A W2A 1_555 1_555
O9A W2 1_555 1_555
O10A W1A 1_555 1_555
O11A W5 1_555 1_555
O12A W3A 1_555 1_555
O13A W5 1_555 1_555
O14A W2A 1_555 1_555
O15A W6 1_555 1_555
O16A W5A 1_555 1_555
O17A W2A 1_555 1_555
O18A W4A 1_555 1_555
O19A W1A 1_555 1_555
O20A W5A 1_555 1_555
O21A W3A 1_555 1_555
O22A W6A 1_555 1_555
O23A Si2 1_555 1_555
O24A Si2 1_555 1_555
O25A W11 1_555 1_555
O26A W10 1_555 1_555
O27A W8A 1_555 1_555
O28A W11 1_555 1_555
O29A W11A 1_555 1_555
O30A W7A 1_555 1_555
O31A W7A 1_555 1_555
O32A W7A 1_555 1_555
O33A W7A 1_555 1_555
O34A W8A 1_555 1_555
O35A W7A 1_555 1_555
O36A W10A 1_555 1_555
O37A W8A 1_555 1_555
O38A W10A 1_555 1_555
O39A W9A 1_555 1_555
O40A W10 1_555 1_555
O41A W10 1_555 1_555
O42A W12A 1_555 1_555
O43A W12 1_555 1_555
O44A W11A 1_555 1_555
C1_2 N1_2 1_555 1_555
H1_2 C1_2 1_555 1_555
C2_2 N2_2 1_555 1_555
H2_2 C2_2 1_555 1_555
C3_2 N2_2 1_555 1_555
H3_2 C3_2 1_555 1_555
C4_2 N1_2 1_555 1_555
H4_2 C4_2 1_555 1_555
C5A H5A 1_555 1_555
C6A N4A 1_555 1_555
H6A C6A 1_555 1_555
C7A N4A 1_555 1_555
H7A C7A 1_555 1_555
C8A N3A 1_555 1_555
H8A C8A 1_555 1_555
C9A N5A 1_555 1_555
H9A C9A 1_555 1_555
C10A C9A 1_555 1_555
H10A C10A 1_555 1_555
C11A N5A 1_555 1_555
H11A C11A 1_555 1_555
C12A N6A 1_555 1_555
H12A C12A 1_555 1_555
C13A N7A 1_555 1_555
H13A C13A 1_555 1_555
C14A C13A 1_555 1_555
H14A C14A 1_555 1_555
C15A N8A 1_555 1_555
H15A C15A 1_555 1_555
C16A N7A 1_555 1_555
H16A C16A 1_555 1_555
C17_2 H17_2 1_555 1_555
C18_2 N9_2 1_555 1_555
H18_2 C18_2 1_555 1_555
C19_2 N10_2 1_555 1_555
H19_2 C19_2 1_555 1_555
C20_2 N10_2 1_555 1_555
H20_2 C20_2 1_555 1_555
C21_2 N11_2 1_555 1_555
H21_2 C21_2 1_555 1_555
C22_2 N11_2 1_555 1_555
H22_2 C22_2 1_555 1_555
C23_2 N12_2 1_555 1_555
H23_2 C23_2 1_555 1_555
C24_2 N12_2 1_555 1_555
H24_2 C24_2 1_555 1_555
W3 O7 1_555 1_555
W3 O14 1_555 1_555
W4 O10 1_555 1_555
W4 O21 1_555 1_555
W5 O19 1_555 1_555
W6 O5 1_555 1_555
W6 O8 1_555 1_555
W6 O20 1_555 1_555
W6 O4A 1_555 1_555
W8 O32 1_555 1_555
W9 O27 1_555 1_555
W9 O31 1_555 1_555
W10 O37 1_555 1_555
W11 O33 1_555 1_555
W12 O35 1_555 1_555
W12 O36 1_555 1_555
W12 O44 1_555 1_555
W12 O26A 1_555 1_555
Si1 O2 1_555 1_555
Si1 O3 1_555 1_555
Si1 O4 1_555 1_555
Si1 O3A 1_555 1_555
Si1 O4A 1_555 1_555
Si2 O24 1_555 1_555
Si2 O25 1_555 1_555
Si2 O26 1_555 1_555
Si2 O25A 1_555 1_555
Si2 O26A 1_555 1_555
O2 O4A 1_555 1_555
O4 O2A 1_555 1_555
O9 W2A 1_555 1_555
O11 W5A 1_555 1_555
O13 W5A 1_555 1_555
O15 W6A 1_555 1_555
O24 O25A 1_555 1_555
O24 O26A 1_555 1_555
O25 O24A 1_555 1_555
O26 O24A 1_555 1_555
O28 W11A 1_555 1_555
O40 W10A 1_555 1_555
O41 W10A 1_555 1_555
O43 W12A 1_555 1_555
C3 C4 1_555 1_555
C7 C8 1_555 1_555
C11 C12 1_555 1_555
C13 C14 1_555 1_555
C15 C16 1_555 1_555
C17 C20 1_555 1_555
C21 C24 1_555 1_555
W1A O3A 1_555 1_555
W1A O9A 1_555 1_555
W2A O2A 1_555 1_555
W2A O13A 1_555 1_555
W3A O2A 1_555 1_555
W3A O7A 1_555 1_555
W3A O14A 1_555 1_555
W4A O4A 1_555 1_555
W4A O10A 1_555 1_555
W4A O11A 1_555 1_555
W4A O15A 1_555 1_555
W4A O21A 1_555 1_555
W5A O3A 1_555 1_555
W5A O19A 1_555 1_555
W6A O2A 1_555 1_555
W6A O5A 1_555 1_555
W6A O8A 1_555 1_555
W6A O20A 1_555 1_555
W7A O24A 1_555 1_555
W8A O25A 1_555 1_555
W8A O28A 1_555 1_555
W8A O32A 1_555 1_555
W9A O26A 1_555 1_555
W9A O27A 1_555 1_555
W9A O31A 1_555 1_555
W9A O40A 1_555 1_555
W9A O43A 1_555 1_555
W10A O25A 1_555 1_555
W10A O37A 1_555 1_555
W11A O24A 1_555 1_555
W11A O33A 1_555 1_555
W11A O41A 1_555 1_555
W12A O24A 1_555 1_555
W12A O35A 1_555 1_555
W12A O36A 1_555 1_555
W12A O44A 1_555 1_555
C1_2 C2_2 1_555 1_555
C3_2 C4_2 1_555 1_555
C5A C6A 1_555 1_555
C7A C8A 1_555 1_555
C11A C12A 1_555 1_555
C15A C16A 1_555 1_555
C17_2 C20_2 1_555 1_555
C18_2 C19_2 1_555 1_555
C21_2 C24_2 1_555 1_555
C22_2 C23_2 1_555 1_555

#END
