
#######################################################################
#
#                 Cambridge Crystallographic Data Centre
#                                CCDC 
#
#######################################################################
#
# If this CIF has been generated from an entry in the Cambridge 
# Structural Database, then it will include bibliographic, chemical, 
# crystal, experimental, refinement or atomic coordinate data resulting 
# from the CCDC's data processing and validation procedures.
#
#######################################################################

data_INEBOT01
_symmetry_cell_setting           monoclinic
_symmetry_space_group_name_H-M   'P 21/c'
_symmetry_Int_Tables_number      14
_space_group_name_Hall           '-P 2ybc'
loop_
_symmetry_equiv_pos_site_id
_symmetry_equiv_pos_as_xyz
1 x,y,z
2 -x,1/2+y,1/2-z
3 -x,-y,-z
4 x,1/2-y,1/2+z
_cell_length_a                   17.5910(2)
_cell_length_b                   22.7810(3)
_cell_length_c                   19.0580(2)
_cell_angle_alpha                90
_cell_angle_beta                 93.2250(10)
_cell_angle_gamma                90
_cell_volume                     7625.22
loop_
_atom_site_label
_atom_site_type_symbol
_atom_site_fract_x
_atom_site_fract_y
_atom_site_fract_z
N1 N -0.0083(2) 0.49784(15) 0.31527(18)
N2 N -0.2420(2) 0.30462(15) 0.17088(18)
N3 N -0.1155(2) 0.30910(15) 0.18870(18)
C1 C 0.3737(10) 0.3349(4) 0.0517(6)
H1 H 0.3932 0.3547 0.0140
N4 N -0.0972(2) 0.39780(15) 0.09654(18)
C2 C 0.3453(11) 0.3678(4) 0.1104(8)
H2 H 0.3484 0.4085 0.1089
C3 C -0.2197(3) 0.25393(19) 0.2064(2)
O1 O -0.46999(19) 0.45006(13) 0.41364(16)
C4 C -0.0876(3) 0.42187(18) 0.3135(2)
C5 C -0.0628(3) 0.47012(19) 0.3518(2)
N5 N -0.0437(2) 0.26698(17) -0.00546(19)
N6 N 0.0526(2) 0.43400(16) 0.1467(2)
C6 C -0.3570(3) 0.3599(2) 0.2033(2)
N7 N -0.0470(2) 0.41986(15) 0.25259(18)
C7 C 0.1206(3) 0.52619(18) 0.3631(2)
C8 C -0.1775(3) 0.33556(19) 0.1627(2)
N8 N 0.0074(2) 0.30660(17) 0.0924(2)
C9 C -0.0007(3) 0.46553(19) 0.2565(2)
C10 C -0.3113(3) 0.2306(2) -0.0616(3)
H3 H -0.3542 0.2365 -0.0917
C11 C -0.3920(3) 0.17146(19) 0.0197(3)
C12 C -0.2619(3) 0.2062(2) 0.2297(2)
H4 H -0.3147 0.2047 0.2233
N9 N 0.2108(3) 0.3611(2) 0.2400(3)
C13 C -0.1002(3) 0.20950(19) 0.2489(2)
H5 H -0.0474 0.2097 0.2550
C14 C 0.2512(3) 0.55124(19) 0.3910(2)
H6 H 0.2885 0.5800 0.3972
O2 O -0.5304(2) 0.42195(13) 0.53940(16)
C15 C 0.1972(3) 0.3217(2) 0.2937(3)
C16 C -0.0970(3) 0.3621(2) 0.0312(2)
H7 H -0.1479 0.3474 0.0198
H8 H -0.0826 0.3868 -0.0074
C17 C -0.0432(3) 0.31201(19) 0.0393(2)
O3 O -0.5517(2) 0.32748(16) 0.3554(2)
C18 C -0.2420(4) 0.2505(2) -0.0804(3)
H9 H -0.2387 0.2708 -0.1225
C19 C 0.2122(3) 0.4507(2) 0.3984(3)
H10 H 0.2235 0.4117 0.4087
O4 O -0.4879(3) 0.51872(17) 0.33069(19)
C20 C 0.0119(3) 0.2274(2) 0.0218(3)
C21 C 0.3168(3) 0.3447(3) 0.1632(3)
C22 C 0.1429(3) 0.3702(2) 0.2038(3)
C23 C -0.0929(3) 0.4838(2) 0.4179(3)
H11 H -0.0744 0.5150 0.4454
C24 C 0.0538(3) 0.4795(2) 0.2025(2)
H12 H 0.1048 0.4823 0.2246
H13 H 0.0410 0.5173 0.1816
C25 C 0.0155(3) 0.4569(2) 0.0791(2)
H14 H 0.0281 0.4318 0.0404
H15 H 0.0341 0.4961 0.0700
O5 O 0.4002(2) 0.18680(17) 0.0027(2)
C26 C 0.3498(3) 0.4752(2) 0.4239(3)
C27 C 0.1189(3) 0.3101(2) 0.2872(3)
C28 C 0.1383(3) 0.4673(2) 0.3779(3)
H16 H 0.1001 0.4391 0.3741
C29 C -0.1430(4) 0.1633(2) 0.2714(3)
H17 H -0.1181 0.1318 0.2934
C30 C 0.2849(3) 0.3826(3) 0.2203(4)
H18 H 0.3202 0.3826 0.2613
H19 H 0.2798 0.4227 0.2036
C31 C -0.1769(3) 0.4002(2) 0.3989(3)
H20 H -0.2163 0.3776 0.4151
C32 C 0.1006(4) 0.2231(3) 0.1216(3)
H21 H 0.1208 0.2386 0.1638
C33 C -0.2208(4) 0.1619(2) 0.2626(3)
H22 H -0.2467 0.1298 0.2795
C34 C -0.1004(3) 0.2579(2) -0.0631(3)
H23 H -0.0829 0.2272 -0.0936
H24 H -0.1056 0.2937 -0.0905
C35 C -0.1498(4) 0.4490(2) 0.4382(3)
H25 H -0.1722 0.4576 0.4800
C36 C -0.3805(3) 0.3859(2) 0.3220(3)
H26 H -0.3716 0.3793 0.3699
C37 C -0.4644(3) 0.4694(2) 0.3533(3)
O6 O -0.3917(3) 0.4069(2) 0.7098(2)
C38 C 0.1289(3) 0.4082(2) 0.1406(3)
H27 H 0.1672 0.4388 0.1395
H28 H 0.1305 0.3851 0.0979
C39 C -0.4063(5) 0.4042(3) 0.1801(3)
H29 H -0.4167 0.4101 0.1322
C40 C 0.3718(4) 0.2778(2) 0.0518(4)
C41 C 0.0356(4) 0.1730(2) -0.0033(3)
H30 H 0.0132 0.1558 -0.0437
C42 C -0.3459(3) 0.3506(3) 0.2735(3)
H31 H -0.3145 0.3200 0.2895
C43 C 0.0874(3) 0.2712(2) 0.3352(3)
H32 H 0.0355 0.2631 0.3325
O7 O -0.5282(4) 0.3531(2) 0.6631(4)
C44 C 0.1341(4) 0.2459(3) 0.3850(3)
H33 H 0.1139 0.2199 0.4167
C45 C -0.4407(5) 0.4404(3) 0.2295(3)
H34 H -0.4722 0.4711 0.2141
C46 C 0.2456(4) 0.2957(3) 0.3454(4)
H35 H 0.2976 0.3037 0.3491
C47 C 0.1258(5) 0.1717(3) 0.0970(4)
H36 H 0.1654 0.1522 0.1216
C48 C 0.0933(5) 0.1472(3) 0.0351(4)
H37 H 0.1122 0.1116 0.0197
C49 C 0.3982(4) 0.2405(3) -0.0066(4)
C50 C 0.3376(8) 0.2548(3) 0.1047(6)
H38 H 0.3297 0.2145 0.1051
C51 C 0.3126(8) 0.2880(4) 0.1603(6)
H39 H 0.2917 0.2683 0.1974
C52 C 0.2123(5) 0.2580(3) 0.3901(4)
H40 H 0.2426 0.2397 0.4252
C53 C -0.1399(3) 0.25608(18) 0.2164(2)
C54 C -0.0698(3) 0.4584(2) 0.0850(2)
H41 H -0.0825 0.4833 0.1239
H42 H -0.0943 0.4743 0.0422
C55 C -0.1734(3) 0.39527(19) 0.1278(3)
H43 H -0.2140 0.3995 0.0915
H44 H -0.1781 0.4263 0.1621
C56 C -0.1450(3) 0.3858(2) 0.3363(2)
H45 H -0.1615 0.3531 0.3104
C57 C 0.2697(3) 0.4934(2) 0.4034(3)
N10 N 0.0861(2) 0.34123(17) 0.2310(2)
C58 C -0.1766(3) 0.24108(19) -0.0379(2)
C59 C 0.1783(3) 0.5671(2) 0.3697(2)
H46 H 0.1675 0.6062 0.3595
O8 O 0.3650(2) 0.42106(14) 0.4201(2)
C60 C -0.1856(3) 0.2151(2) 0.0267(2)
H47 H -0.1434 0.2108 0.0579
C61 C 0.0434(3) 0.2526(2) 0.0822(3)
C62 C -0.2542(3) 0.19563(18) 0.0457(2)
H48 H -0.2583 0.1779 0.0893
O9 O 0.39783(19) 0.51568(14) 0.44272(19)
C63 C -0.3184(3) 0.20191(17) 0.0009(2)
O10 O -0.4437(2) 0.17018(14) -0.03052(19)
O11 O -0.3957(2) 0.14930(14) 0.07855(17)
C64 C -0.4279(3) 0.4305(2) 0.2986(3)
C65 C -0.3200(3) 0.3210(2) 0.1497(3)
H49 H -0.3501 0.2856 0.1427
H50 H -0.3203 0.3415 0.1051
C66 C 0.0416(3) 0.54650(18) 0.3387(3)
H51 H 0.0188 0.5669 0.3770
H52 H 0.0455 0.5741 0.3004
O12 O 0.4155(4) 0.2649(2) -0.0613(3)
Ni1 Ni -0.5000 0.5000 0.5000
Ni2 Ni -0.01775(4) 0.36090(2) 0.17533(3)
Ni3 Ni -0.53937(4) 0.37471(3) 0.45041(3)
Ni4 Ni -0.45885(4) 0.41520(3) 0.61921(4)
N1_2 N -1.0083(2) 0.49784(15) 0.31527(18)
N2_2 N -1.2420(2) 0.30462(15) 0.17088(18)
N3_2 N -1.1155(2) 0.30910(15) 0.18870(18)
C1_2 C -0.6263(10) 0.3349(4) 0.0517(6)
H1_2 H -0.6068 0.3547 0.0140
N4_2 N -1.0972(2) 0.39780(15) 0.09654(18)
C2_2 C -0.6547(11) 0.3678(4) 0.1104(8)
H2_2 H -0.6516 0.4085 0.1089
C3_2 C -1.2197(3) 0.25393(19) 0.2064(2)
O1_2 O -1.46999(19) 0.45006(13) 0.41364(16)
O1B O -0.53001(19) 0.54994(13) 0.58636(16)
C4_2 C -1.0876(3) 0.42187(18) 0.3135(2)
C5_2 C -1.0628(3) 0.47012(19) 0.3518(2)
N5_2 N -1.0437(2) 0.26698(17) -0.00546(19)
N6_2 N -0.9474(2) 0.43400(16) 0.1467(2)
C6_2 C -1.3570(3) 0.3599(2) 0.2033(2)
N7_2 N -1.0470(2) 0.41986(15) 0.25259(18)
C7_2 C -0.8794(3) 0.52619(18) 0.3631(2)
C8_2 C -1.1775(3) 0.33556(19) 0.1627(2)
N8_2 N -0.9926(2) 0.30660(17) 0.0924(2)
C9_2 C -1.0007(3) 0.46553(19) 0.2565(2)
C10_2 C -1.3113(3) 0.2306(2) -0.0616(3)
H3_2 H -1.3542 0.2365 -0.0917
C11_2 C -1.3920(3) 0.17146(19) 0.0197(3)
C12_2 C -1.2619(3) 0.2062(2) 0.2297(2)
H4_2 H -1.3147 0.2047 0.2233
N9_2 N -0.7892(3) 0.3611(2) 0.2400(3)
C13_2 C -1.1002(3) 0.20950(19) 0.2489(2)
H5_2 H -1.0474 0.2097 0.2550
C14_2 C -0.7488(3) 0.55124(19) 0.3910(2)
H6_2 H -0.7115 0.5800 0.3972
O2B O -0.4696(2) 0.57805(13) 0.46060(16)
O2_2 O -1.5304(2) 0.42195(13) 0.53940(16)
C15_2 C -0.8028(3) 0.3217(2) 0.2937(3)
C16_2 C -1.0970(3) 0.3621(2) 0.0312(2)
H7_2 H -1.1479 0.3474 0.0198
H8_2 H -1.0826 0.3868 -0.0074
C17_2 C -1.0432(3) 0.31201(19) 0.0393(2)
O3_2 O -1.5517(2) 0.32748(16) 0.3554(2)
C18_2 C -1.2420(4) 0.2505(2) -0.0804(3)
H9_2 H -1.2387 0.2708 -0.1225
C19_2 C -0.7878(3) 0.4507(2) 0.3984(3)
H10_2 H -0.7765 0.4117 0.4087
O4_2 O -1.4879(3) 0.51872(17) 0.33069(19)
O4B O -0.5121(3) 0.48128(17) 0.66931(19)
C20_2 C -0.9881(3) 0.2274(2) 0.0218(3)
C21_2 C -0.6832(3) 0.3447(3) 0.1632(3)
C22_2 C -0.8571(3) 0.3702(2) 0.2038(3)
C23_2 C -1.0929(3) 0.4838(2) 0.4179(3)
H11_2 H -1.0744 0.5150 0.4454
C24_2 C -0.9462(3) 0.4795(2) 0.2025(2)
H12_2 H -0.8952 0.4823 0.2246
H13_2 H -0.9590 0.5173 0.1816
C25_2 C -0.9845(3) 0.4569(2) 0.0791(2)
H14_2 H -0.9719 0.4318 0.0404
H15_2 H -0.9659 0.4961 0.0700
O5_2 O -0.5998(2) 0.18680(17) 0.0027(2)
O5C O -0.5998(2) 0.31320(17) 0.5027(2)
O5C_2 O -1.5998(2) 0.31320(17) 0.5027(2)
C26_2 C -0.6502(3) 0.4752(2) 0.4239(3)
C27_2 C -0.8811(3) 0.3101(2) 0.2872(3)
C28_2 C -0.8617(3) 0.4673(2) 0.3779(3)
H16_2 H -0.8999 0.4391 0.3741
C29_2 C -1.1430(4) 0.1633(2) 0.2714(3)
H17_2 H -1.1181 0.1318 0.2934
C30_2 C -0.7151(3) 0.3826(3) 0.2203(4)
H18_2 H -0.6798 0.3826 0.2613
H19_2 H -0.7202 0.4227 0.2036
C31_2 C -1.1769(3) 0.4002(2) 0.3989(3)
H20_2 H -1.2163 0.3776 0.4151
C32_2 C -0.8994(4) 0.2231(3) 0.1216(3)
H21_2 H -0.8792 0.2386 0.1638
C33_2 C -1.2208(4) 0.1619(2) 0.2626(3)
H22_2 H -1.2467 0.1298 0.2795
C34_2 C -1.1004(3) 0.2579(2) -0.0631(3)
H23_2 H -1.0829 0.2272 -0.0936
H24_2 H -1.1056 0.2937 -0.0905
C35_2 C -1.1498(4) 0.4490(2) 0.4382(3)
H25_2 H -1.1722 0.4576 0.4800
C36_2 C -1.3805(3) 0.3859(2) 0.3220(3)
H26_2 H -1.3716 0.3793 0.3699
C37_2 C -1.4644(3) 0.4694(2) 0.3533(3)
O6B O -0.6083(3) 0.5931(2) 0.2902(2)
C38_2 C -0.8711(3) 0.4082(2) 0.1406(3)
H27_2 H -0.8328 0.4388 0.1395
H28_2 H -0.8695 0.3851 0.0979
C39_2 C -1.4063(5) 0.4042(3) 0.1801(3)
H29_2 H -1.4167 0.4101 0.1322
C40_2 C -0.6282(4) 0.2778(2) 0.0518(4)
C41_2 C -0.9644(4) 0.1730(2) -0.0033(3)
H30_2 H -0.9868 0.1558 -0.0437
C42_2 C -1.3459(3) 0.3506(3) 0.2735(3)
H31_2 H -1.3145 0.3200 0.2895
C43_2 C -0.9126(3) 0.2712(2) 0.3352(3)
H32_2 H -0.9645 0.2631 0.3325
O7B O -0.4718(4) 0.6469(2) 0.3369(4)
C44_2 C -0.8659(4) 0.2459(3) 0.3850(3)
H33_2 H -0.8861 0.2199 0.4167
C45_2 C -1.4407(5) 0.4404(3) 0.2295(3)
H34_2 H -1.4722 0.4711 0.2141
C46_2 C -0.7544(4) 0.2957(3) 0.3454(4)
H35_2 H -0.7024 0.3037 0.3491
C47_2 C -0.8742(5) 0.1717(3) 0.0970(4)
H36_2 H -0.8346 0.1522 0.1216
C48_2 C -0.9067(5) 0.1472(3) 0.0351(4)
H37_2 H -0.8878 0.1116 0.0197
C49_2 C -0.6018(4) 0.2405(3) -0.0066(4)
C50_2 C -0.6624(8) 0.2548(3) 0.1047(6)
H38_2 H -0.6703 0.2145 0.1051
C51_2 C -0.6874(8) 0.2880(4) 0.1603(6)
H39_2 H -0.7083 0.2683 0.1974
C52_2 C -0.7877(5) 0.2580(3) 0.3901(4)
H40_2 H -0.7574 0.2397 0.4252
C53_2 C -1.1399(3) 0.25608(18) 0.2164(2)
C54_2 C -1.0698(3) 0.4584(2) 0.0850(2)
H41_2 H -1.0825 0.4833 0.1239
H42_2 H -1.0943 0.4743 0.0422
C55_2 C -1.1734(3) 0.39527(19) 0.1278(3)
H43_2 H -1.2140 0.3995 0.0915
H44_2 H -1.1781 0.4263 0.1621
C56_2 C -1.1450(3) 0.3858(2) 0.3363(2)
H45_2 H -1.1615 0.3531 0.3104
C57_2 C -0.7303(3) 0.4934(2) 0.4034(3)
N10_2 N -0.9139(2) 0.34123(17) 0.2310(2)
C58_2 C -1.1766(3) 0.24108(19) -0.0379(2)
C59_2 C -0.8217(3) 0.5671(2) 0.3697(2)
H46_2 H -0.8325 0.6062 0.3595
O8_2 O -0.6350(2) 0.42106(14) 0.4201(2)
O8_3 O -1.6350(2) 0.42106(14) 0.4201(2)
C60_2 C -1.1856(3) 0.2151(2) 0.0267(2)
H47_2 H -1.1434 0.2108 0.0579
C61_2 C -0.9566(3) 0.2526(2) 0.0822(3)
C62_2 C -1.2542(3) 0.19563(18) 0.0457(2)
H48_2 H -1.2583 0.1779 0.0893
O9_2 O -0.60217(19) 0.51568(14) 0.44272(19)
O9B O -0.39783(19) 0.48432(14) 0.55728(19)
C63_2 C -1.3184(3) 0.20191(17) 0.0009(2)
O10_2 O -1.4437(2) 0.17018(14) -0.03052(19)
O10C O -0.4437(2) 0.32982(14) 0.46948(19)
O10C_2 O -1.4437(2) 0.32982(14) 0.46948(19)
O11_2 O -1.3957(2) 0.14930(14) 0.07855(17)
O11C O -0.3957(2) 0.35070(14) 0.57855(17)
O11A O -0.6043(2) 0.64930(14) 0.42145(17)
C64_2 C -1.4279(3) 0.4305(2) 0.2986(3)
C65_2 C -1.3200(3) 0.3210(2) 0.1497(3)
H49_2 H -1.3501 0.2856 0.1427
H50_2 H -1.3203 0.3415 0.1051
C66_2 C -0.9584(3) 0.54650(18) 0.3387(3)
H51_2 H -0.9812 0.5669 0.3770
H52_2 H -0.9545 0.5741 0.3004
O12_2 O -0.5845(4) 0.2649(2) -0.0613(3)
Ni1_2 Ni 0.5000 0.5000 0.5000
Ni1_3 Ni -1.5000 0.5000 0.5000
Ni2_2 Ni -1.01775(4) 0.36090(2) 0.17533(3)
Ni3C Ni -0.53937(4) 0.12529(3) -0.04959(3)
Ni3C_2 Ni 0.46063(4) 0.12529(3) -0.04959(3)
Ni3_2 Ni 0.46063(4) 0.37471(3) 0.45041(3)
Ni3_3 Ni -1.53937(4) 0.37471(3) 0.45041(3)
Ni3C_3 Ni -1.53937(4) 0.12529(3) -0.04959(3)
Ni3B Ni -0.46063(4) 0.62529(3) 0.54959(3)
Ni4C Ni -1.45885(4) 0.08480(3) 0.11921(4)
Ni4C_2 Ni -0.45885(4) 0.08480(3) 0.11921(4)
Ni4B Ni -0.54115(4) 0.58480(3) 0.38079(4)
Ni4B_2 Ni 0.45885(4) 0.58480(3) 0.38079(4)
Ni4B_3 Ni -1.54115(4) 0.58480(3) 0.38079(4)
loop_
_geom_bond_atom_site_label_1
_geom_bond_atom_site_label_2
_geom_bond_site_symmetry_1
_geom_bond_site_symmetry_2
N1 C5 1_555 1_555
N2 C3 1_555 1_555
N3 C8 1_555 1_555
C1 H1 1_555 1_555
N4 C16 1_555 1_555
C2 C1 1_555 1_555
H2 C2 1_555 1_555
C3 C12 1_555 1_555
O1 C37 1_555 1_555
C4 C5 1_555 1_555
C5 C23 1_555 1_555
N5 C17 1_555 1_555
N6 C24 1_555 1_555
C6 C39 1_555 1_555
N7 C4 1_555 1_555
C7 C28 1_555 1_555
C8 N2 1_555 1_555
N8 C17 1_555 1_555
C9 N1 1_555 1_555
C10 H3 1_555 1_555
C11 C63 1_555 1_555
C12 H4 1_555 1_555
N9 C15 1_555 1_555
C13 H5 1_555 1_555
C14 H6 1_555 1_555
O2 Ni1 1_555 1_555
C15 C27 1_555 1_555
C16 H7 1_555 1_555
H8 C16 1_555 1_555
C17 C16 1_555 1_555
O3 Ni3 1_555 1_555
C18 C10 1_555 1_555
H9 C18 1_555 1_555
C19 H10 1_555 1_555
O4 C37 1_555 1_555
C20 N5 1_555 1_555
C21 C2 1_555 1_555
C22 N9 1_555 1_555
C23 H11 1_555 1_555
C24 C9 1_555 1_555
H12 C24 1_555 1_555
H13 C24 1_555 1_555
C25 N6 1_555 1_555
H14 C25 1_555 1_555
H15 C25 1_555 1_555
O5 C49 1_555 1_555
C26 C57 1_555 1_555
C27 C43 1_555 1_555
C28 C19 1_555 1_555
H16 C28 1_555 1_555
C29 C13 1_555 1_555
H17 C29 1_555 1_555
C30 N9 1_555 1_555
H18 C30 1_555 1_555
H19 C30 1_555 1_555
C31 H20 1_555 1_555
C32 H21 1_555 1_555
C33 C12 1_555 1_555
H22 C33 1_555 1_555
C34 N5 1_555 1_555
H23 C34 1_555 1_555
H24 C34 1_555 1_555
C35 C23 1_555 1_555
H25 C35 1_555 1_555
C36 H26 1_555 1_555
C37 C64 1_555 1_555
O6 Ni4 1_555 1_555
C38 N6 1_555 1_555
H27 C38 1_555 1_555
H28 C38 1_555 1_555
C39 H29 1_555 1_555
C40 C1 1_555 1_555
C41 C20 1_555 1_555
H30 C41 1_555 1_555
C42 C6 1_555 1_555
H31 C42 1_555 1_555
C43 H32 1_555 1_555
O7 Ni4 1_555 1_555
C44 C43 1_555 1_555
H33 C44 1_555 1_555
C45 C39 1_555 1_555
H34 C45 1_555 1_555
C46 C15 1_555 1_555
H35 C46 1_555 1_555
C47 C32 1_555 1_555
H36 C47 1_555 1_555
C48 C41 1_555 1_555
H37 C48 1_555 1_555
C49 C40 1_555 1_555
C50 C40 1_555 1_555
H38 C50 1_555 1_555
C51 C21 1_555 1_555
H39 C51 1_555 1_555
C52 C44 1_555 1_555
H40 C52 1_555 1_555
C53 N3 1_555 1_555
C54 N4 1_555 1_555
H41 C54 1_555 1_555
H42 C54 1_555 1_555
C55 N4 1_555 1_555
H43 C55 1_555 1_555
H44 C55 1_555 1_555
C56 C4 1_555 1_555
H45 C56 1_555 1_555
C57 C14 1_555 1_555
N10 C22 1_555 1_555
C58 C18 1_555 1_555
C59 C7 1_555 1_555
H46 C59 1_555 1_555
O8 C26 1_555 1_555
C60 C58 1_555 1_555
H47 C60 1_555 1_555
C61 N8 1_555 1_555
C62 C60 1_555 1_555
H48 C62 1_555 1_555
O9 C26 1_555 1_555
C63 C10 1_555 1_555
O10 C11 1_555 1_555
O11 C11 1_555 1_555
C64 C36 1_555 1_555
C65 N2 1_555 1_555
H49 C65 1_555 1_555
H50 C65 1_555 1_555
C66 N1 1_555 1_555
H51 C66 1_555 1_555
H52 C66 1_555 1_555
O12 C49 1_555 1_555
Ni1 O1 1_555 1_555
Ni2 N3 1_555 1_555
Ni3 O1 1_555 1_555
Ni4 O2 1_555 1_555
N1_2 C5_2 1_555 1_555
N2_2 C3_2 1_555 1_555
N3_2 C8_2 1_555 1_555
C1_2 H1_2 1_555 1_555
N4_2 C16_2 1_555 1_555
C2_2 C1_2 1_555 1_555
H2_2 C2_2 1_555 1_555
C3_2 C12_2 1_555 1_555
O1_2 C37_2 1_555 1_555
O1B Ni1 1_555 1_555
C4_2 C5_2 1_555 1_555
C5_2 C23_2 1_555 1_555
N5_2 C17_2 1_555 1_555
N6_2 C24_2 1_555 1_555
C6_2 C39_2 1_555 1_555
N7_2 C4_2 1_555 1_555
C7_2 C28_2 1_555 1_555
C8_2 N2_2 1_555 1_555
N8_2 C17_2 1_555 1_555
C9_2 N1_2 1_555 1_555
C10_2 H3_2 1_555 1_555
C11_2 C63_2 1_555 1_555
C12_2 H4_2 1_555 1_555
N9_2 C15_2 1_555 1_555
C13_2 H5_2 1_555 1_555
C14_2 H6_2 1_555 1_555
O2B Ni1 1_555 1_555
O2_2 Ni1_3 1_555 1_555
C15_2 C27_2 1_555 1_555
C16_2 H7_2 1_555 1_555
H8_2 C16_2 1_555 1_555
C17_2 C16_2 1_555 1_555
O3_2 Ni3_3 1_555 1_555
C18_2 C10_2 1_555 1_555
H9_2 C18_2 1_555 1_555
C19_2 H10_2 1_555 1_555
O4_2 C37_2 1_555 1_555
O4B Ni4 1_555 1_555
C20_2 N5_2 1_555 1_555
C21_2 C2_2 1_555 1_555
C22_2 N9_2 1_555 1_555
C23_2 H11_2 1_555 1_555
C24_2 C9_2 1_555 1_555
H12_2 C24_2 1_555 1_555
H13_2 C24_2 1_555 1_555
C25_2 N6_2 1_555 1_555
H14_2 C25_2 1_555 1_555
H15_2 C25_2 1_555 1_555
O5_2 C49_2 1_555 1_555
O5C Ni3 1_555 1_555
O5C_2 Ni3_3 1_555 1_555
C26_2 C57_2 1_555 1_555
C27_2 C43_2 1_555 1_555
C28_2 C19_2 1_555 1_555
H16_2 C28_2 1_555 1_555
C29_2 C13_2 1_555 1_555
H17_2 C29_2 1_555 1_555
C30_2 N9_2 1_555 1_555
H18_2 C30_2 1_555 1_555
H19_2 C30_2 1_555 1_555
C31_2 H20_2 1_555 1_555
C32_2 H21_2 1_555 1_555
C33_2 C12_2 1_555 1_555
H22_2 C33_2 1_555 1_555
C34_2 N5_2 1_555 1_555
H23_2 C34_2 1_555 1_555
H24_2 C34_2 1_555 1_555
C35_2 C23_2 1_555 1_555
H25_2 C35_2 1_555 1_555
C36_2 H26_2 1_555 1_555
C37_2 C64_2 1_555 1_555
O6B Ni4B 1_555 1_555
C38_2 N6_2 1_555 1_555
H27_2 C38_2 1_555 1_555
H28_2 C38_2 1_555 1_555
C39_2 H29_2 1_555 1_555
C40_2 C1_2 1_555 1_555
C41_2 C20_2 1_555 1_555
H30_2 C41_2 1_555 1_555
C42_2 C6_2 1_555 1_555
H31_2 C42_2 1_555 1_555
C43_2 H32_2 1_555 1_555
O7B Ni4B 1_555 1_555
C44_2 C43_2 1_555 1_555
H33_2 C44_2 1_555 1_555
C45_2 C39_2 1_555 1_555
H34_2 C45_2 1_555 1_555
C46_2 C15_2 1_555 1_555
H35_2 C46_2 1_555 1_555
C47_2 C32_2 1_555 1_555
H36_2 C47_2 1_555 1_555
C48_2 C41_2 1_555 1_555
H37_2 C48_2 1_555 1_555
C49_2 C40_2 1_555 1_555
C50_2 C40_2 1_555 1_555
H38_2 C50_2 1_555 1_555
C51_2 C21_2 1_555 1_555
H39_2 C51_2 1_555 1_555
C52_2 C44_2 1_555 1_555
H40_2 C52_2 1_555 1_555
C53_2 N3_2 1_555 1_555
C54_2 N4_2 1_555 1_555
H41_2 C54_2 1_555 1_555
H42_2 C54_2 1_555 1_555
C55_2 N4_2 1_555 1_555
H43_2 C55_2 1_555 1_555
H44_2 C55_2 1_555 1_555
C56_2 C4_2 1_555 1_555
H45_2 C56_2 1_555 1_555
C57_2 C14_2 1_555 1_555
N10_2 C22_2 1_555 1_555
C58_2 C18_2 1_555 1_555
C59_2 C7_2 1_555 1_555
H46_2 C59_2 1_555 1_555
O8_2 Ni3 1_555 1_555
O8_3 Ni3_3 1_555 1_555
C60_2 C58_2 1_555 1_555
H47_2 C60_2 1_555 1_555
C61_2 N8_2 1_555 1_555
C62_2 C60_2 1_555 1_555
H48_2 C62_2 1_555 1_555
O9_2 Ni1 1_555 1_555
O9B Ni1 1_555 1_555
C63_2 C10_2 1_555 1_555
O10_2 C11_2 1_555 1_555
O10C Ni3 1_555 1_555
O10C_2 Ni3_3 1_555 1_555
O11_2 C11_2 1_555 1_555
O11C Ni4 1_555 1_555
O11A Ni4B 1_555 1_555
C64_2 C36_2 1_555 1_555
C65_2 N2_2 1_555 1_555
H49_2 C65_2 1_555 1_555
H50_2 C65_2 1_555 1_555
C66_2 N1_2 1_555 1_555
H51_2 C66_2 1_555 1_555
H52_2 C66_2 1_555 1_555
O12_2 C49_2 1_555 1_555
Ni1_2 O9 1_555 1_555
Ni1_3 O1_2 1_555 1_555
Ni2_2 N3_2 1_555 1_555
Ni3C O10 1_555 1_555
Ni3C_2 O5 1_555 1_555
Ni3_2 O8 1_555 1_555
Ni3_3 O1_2 1_555 1_555
Ni3C_3 O10_2 1_555 1_555
Ni3B O1B 1_555 1_555
Ni4C O11_2 1_555 1_555
Ni4C_2 O11 1_555 1_555
Ni4B O4 1_555 1_555
Ni4B_2 O9 1_555 1_555
Ni4B_3 O4_2 1_555 1_555
N4 Ni2 1_555 1_555
C3 C53 1_555 1_555
N6 Ni2 1_555 1_555
C6 C65 1_555 1_555
N7 C9 1_555 1_555
N7 Ni2 1_555 1_555
C7 C66 1_555 1_555
C8 C55 1_555 1_555
N8 Ni2 1_555 1_555
C13 C53 1_555 1_555
C14 C59 1_555 1_555
O2 Ni3 1_555 1_555
C19 C57 1_555 1_555
C20 C61 1_555 1_555
C21 C30 1_555 1_555
C22 C38 1_555 1_555
C25 C54 1_555 1_555
C27 N10 1_555 1_555
C29 C33 1_555 1_555
C31 C35 1_555 1_555
C31 C56 1_555 1_555
C32 C61 1_555 1_555
C34 C58 1_555 1_555
C36 C42 1_555 1_555
C45 C64 1_555 1_555
C46 C52 1_555 1_555
C47 C48 1_555 1_555
C50 C51 1_555 1_555
N10 Ni2 1_555 1_555
C62 C63 1_555 1_555
Ni4 O9B 1_555 1_555
N4_2 Ni2_2 1_555 1_555
C3_2 C53_2 1_555 1_555
N6_2 Ni2_2 1_555 1_555
C6_2 C65_2 1_555 1_555
N7_2 C9_2 1_555 1_555
N7_2 Ni2_2 1_555 1_555
C7_2 C66_2 1_555 1_555
C8_2 C55_2 1_555 1_555
N8_2 Ni2_2 1_555 1_555
C13_2 C53_2 1_555 1_555
C14_2 C59_2 1_555 1_555
O2B Ni3B 1_555 1_555
O2B Ni4B 1_555 1_555
O2_2 Ni3_3 1_555 1_555
C19_2 C57_2 1_555 1_555
C20_2 C61_2 1_555 1_555
C21_2 C30_2 1_555 1_555
C22_2 C38_2 1_555 1_555
C25_2 C54_2 1_555 1_555
O5_2 Ni3C 1_555 1_555
C26_2 O8_2 1_555 1_555
C26_2 O9_2 1_555 1_555
C27_2 N10_2 1_555 1_555
C29_2 C33_2 1_555 1_555
C31_2 C35_2 1_555 1_555
C31_2 C56_2 1_555 1_555
C32_2 C61_2 1_555 1_555
C34_2 C58_2 1_555 1_555
C36_2 C42_2 1_555 1_555
C45_2 C64_2 1_555 1_555
C46_2 C52_2 1_555 1_555
C47_2 C48_2 1_555 1_555
C50_2 C51_2 1_555 1_555
N10_2 Ni2_2 1_555 1_555
C62_2 C63_2 1_555 1_555
O9_2 Ni4B 1_555 1_555

#END
