
#######################################################################
#
#                 Cambridge Crystallographic Data Centre
#                                CCDC 
#
#######################################################################
#
# If this CIF has been generated from an entry in the Cambridge 
# Structural Database, then it will include bibliographic, chemical, 
# crystal, experimental, refinement or atomic coordinate data resulting 
# from the CCDC's data processing and validation procedures.
#
#######################################################################

data_INESIE
_symmetry_cell_setting           monoclinic
_symmetry_space_group_name_H-M   'P 21/c'
_symmetry_Int_Tables_number      14
_space_group_name_Hall           '-P 2ybc'
loop_
_symmetry_equiv_pos_site_id
_symmetry_equiv_pos_as_xyz
1 x,y,z
2 -x,1/2+y,1/2-z
3 -x,-y,-z
4 x,1/2-y,1/2+z
_cell_length_a                   10.728(2)
_cell_length_b                   19.576(4)
_cell_length_c                   13.790(3)
_cell_angle_alpha                90
_cell_angle_beta                 104.49(3)
_cell_angle_gamma                90
_cell_volume                     2803.94
loop_
_atom_site_label
_atom_site_type_symbol
_atom_site_fract_x
_atom_site_fract_y
_atom_site_fract_z
Ni1 Ni 0.24591(4) 0.02561(2) -0.20476(3)
Ni2 Ni 0.40506(4) 0.118250(19) -0.36062(3)
O1 O 0.2239(2) 0.08874(12) -0.09038(16)
O2 O 0.2353(3) 0.19244(13) -0.15574(18)
O3 O 0.4421(2) 0.04500(12) -0.14521(16)
O4 O 0.5211(2) 0.13019(11) -0.22185(15)
O5 O 0.4349(2) 0.01238(11) -0.35536(17)
O6 O 0.2711(2) -0.04025(11) -0.31223(16)
O7 O -0.0927(2) -0.09440(16) -0.51883(18)
O8 O -0.2912(2) -0.09774(12) -0.49699(15)
O9 O 0.2400(2) 0.10948(11) -0.30215(15)
N1 N 0.3744(3) 0.27582(14) 0.12526(18)
N2 N 0.7426(2) 0.05465(14) 0.10226(19)
N3 N 0.4377(3) -0.12455(13) -0.57693(19)
N4 N 0.0450(2) 0.01149(14) -0.25729(18)
C1 C 0.2478(3) 0.15151(18) -0.0840(2)
C2 C 0.3013(3) 0.17921(17) 0.0199(2)
C3 C 0.3325(6) 0.1365(2) 0.1024(3)
H1 H 0.3180 0.0897 0.0954
C4 C 0.3835(7) 0.1645(2) 0.1951(3)
H2 H 0.4057 0.1368 0.2515
C5 C 0.4034(5) 0.2339(2) 0.2037(3)
H3 H 0.4391 0.2523 0.2668
C6 C 0.3258(3) 0.24798(16) 0.0351(2)
H4 H 0.3076 0.2766 -0.0205
C7 C 0.8135(6) 0.1571(3) 0.0408(4)
H5 H 0.8698 0.1940 0.0517
C8 C 0.8222(5) 0.1082(2) 0.1129(3)
H6 H 0.8876 0.1119 0.1715
C9 C 0.6528(3) 0.05056(16) 0.0160(2)
H7 H 0.5992 0.0125 0.0061
C10 C 0.7173(5) 0.1525(2) -0.0475(3)
H8 H 0.7115 0.1846 -0.0982
C11 C 0.6327(3) 0.09836(16) -0.0595(2)
C12 C 0.5223(3) 0.09035(15) -0.1501(2)
C13 C 0.3502(3) -0.03313(15) -0.3646(2)
C14 C 0.3398(3) -0.08224(16) -0.4499(2)
C15 C 0.2293(4) -0.1202(2) -0.4906(3)
H9 H 0.1596 -0.1196 -0.4618
C16 C 0.2254(4) -0.1588(2) -0.5751(4)
H10 H 0.1520 -0.1837 -0.6047
C17 C 0.3300(4) -0.1604(2) -0.6156(3)
H11 H 0.3261 -0.1872 -0.6720
C18 C 0.4392(3) -0.08562(16) -0.4970(2)
H12 H 0.5118 -0.0590 -0.4717
C19 C -0.1744(3) -0.08120(16) -0.4712(2)
C20 C -0.1313(3) -0.04186(16) -0.3746(2)
C21 C -0.2150(3) -0.0217(2) -0.3187(3)
H13 H -0.3020 -0.0328 -0.3386
C22 C -0.1665(4) 0.0151(2) -0.2322(3)
H14 H -0.2207 0.0293 -0.1931
C23 C -0.0373(3) 0.0304(2) -0.2035(3)
H15 H -0.0063 0.0553 -0.1451
C24 C -0.0037(3) -0.02296(16) -0.3420(2)
H16 H 0.0518 -0.0352 -0.3812
Ni1B Ni 0.75409(4) -0.02561(2) 0.20476(3)
Ni1B_2 Ni -0.24591(4) -0.02561(2) -0.79524(3)
Ni1B_3 Ni 0.75409(4) -0.02561(2) -0.79524(3)
Ni1C Ni 0.24591(4) 0.47439(2) -0.70476(3)
Ni1_2 Ni -0.75409(4) 0.02561(2) -1.20476(3)
Ni2B Ni -0.40506(4) -0.118250(19) -0.63938(3)
Ni2C Ni 0.40506(4) 0.381750(19) 0.13938(3)
Ni2B_2 Ni 0.59494(4) -0.118250(19) -0.63938(3)
O1B O -0.2239(2) -0.08874(12) -0.90962(16)
O1C O 0.2239(2) 0.41126(12) -0.59038(16)
O2C O 0.2353(3) 0.30756(13) -0.65574(18)
O3B O -0.4421(2) -0.04500(12) -0.85479(16)
O4B O -0.5211(2) -0.13019(11) -0.77815(15)
O4B_2 O 0.4789(2) -0.13019(11) -0.77815(15)
O5B O 0.5651(2) -0.01238(11) -0.64464(17)
O6B O -0.2711(2) 0.04025(11) -0.68777(16)
O6B_2 O 0.7289(2) 0.04025(11) -0.68777(16)
O7B O 0.0927(2) 0.09440(16) -0.48117(18)
O8B O 0.2912(2) 0.09774(12) -0.50301(15)
O8_2 O 0.7088(2) -0.09774(12) -0.49699(15)
O9B O -0.2400(2) -0.10948(11) -0.69785(15)
O9B_2 O 0.7600(2) -0.10948(11) -0.69785(15)
N1C N 0.3744(3) 0.22418(14) -0.37474(18)
N1A N 0.6256(3) -0.22418(14) -0.62526(18)
N2B N 0.2574(2) -0.05465(14) -0.10226(19)
N2_2 N -0.2574(2) 0.05465(14) -0.89774(19)
N2B_2 N -0.7426(2) -0.05465(14) -1.10226(19)
N3B N 0.5623(3) 0.12455(13) -0.42307(19)
N4B N -0.0450(2) -0.01149(14) -0.74271(18)
C1C C 0.2478(3) 0.34849(18) -0.5840(2)
C2C C 0.3013(3) 0.32079(17) -0.4801(2)
C3C C 0.3325(6) 0.3635(2) -0.3976(3)
H1C H 0.3180 0.4103 -0.4046
C4C C 0.3835(7) 0.3355(2) -0.3049(3)
H2C H 0.4057 0.3632 -0.2485
C5C C 0.4034(5) 0.2661(2) -0.2963(3)
H3C H 0.4391 0.2477 -0.2332
C6C C 0.3258(3) 0.25202(16) -0.4649(2)
H4C H 0.3076 0.2234 -0.5205
C7B C -0.8135(6) -0.1571(3) -1.0408(4)
H5B H -0.8698 -0.1940 -1.0517
C8B C -0.8222(5) -0.1082(2) -1.1129(3)
H6B H -0.8876 -0.1119 -1.1715
C9B C -0.6528(3) -0.05056(16) -1.0160(2)
H7B H -0.5992 -0.0125 -1.0061
C10B C -0.7173(5) -0.1525(2) -0.9525(3)
H8B H -0.7115 -0.1846 -0.9018
C11B C -0.6327(3) -0.09836(16) -0.9405(2)
C12B C -0.5223(3) -0.09035(15) -0.8499(2)
C13B C 0.6498(3) 0.03313(15) -0.6354(2)
C14B C 0.6602(3) 0.08224(16) -0.5501(2)
C15B C 0.7707(4) 0.1202(2) -0.5094(3)
H9B H 0.8404 0.1196 -0.5382
C16B C 0.7746(4) 0.1588(2) -0.4249(4)
H10B H 0.8480 0.1837 -0.3953
C17B C 0.6700(4) 0.1604(2) -0.3844(3)
H11B H 0.6739 0.1872 -0.3280
C18B C 0.5608(3) 0.08562(16) -0.5030(2)
H12B H 0.4882 0.0590 -0.5283
C19B C 0.1744(3) 0.08120(16) -0.5288(2)
C20B C 0.1313(3) 0.04186(16) -0.6254(2)
C21B C 0.2150(3) 0.0217(2) -0.6813(3)
H13B H 0.3020 0.0328 -0.6614
C22B C 0.1665(4) -0.0151(2) -0.7678(3)
H14B H 0.2207 -0.0293 -0.8069
C23B C 0.0373(3) -0.0304(2) -0.7965(3)
H15B H 0.0063 -0.0553 -0.8549
C24B C 0.0037(3) 0.02296(16) -0.6580(2)
H16B H -0.0518 0.0352 -0.6188
O10 O 0.011(2) 0.7267(11) 0.1382(17)
H17 H -0.0213 0.6948 0.0979
H18 H 0.0635 0.7486 0.1124
O11 O 1.048(2) 0.2849(13) 0.7469(19)
H19 H 1.0317 0.2464 0.7181
H20 H 1.0951 0.3072 0.7168
O12 O 0.247(3) 0.7102(14) 0.221(2)
H21 H 0.2018 0.7441 0.2305
H22 H 0.2071 0.6741 0.2296
loop_
_geom_bond_atom_site_label_1
_geom_bond_atom_site_label_2
_geom_bond_site_symmetry_1
_geom_bond_site_symmetry_2
Ni1 O1 1_555 1_555
Ni2 O4 1_555 1_555
O1 C1 1_555 1_555
O2 C1 1_555 1_555
O3 Ni1 1_555 1_555
O4 C12 1_555 1_555
O5 Ni2 1_555 1_555
O6 Ni1 1_555 1_555
O7 C19 1_555 1_555
O8 C19 1_555 1_555
O9 Ni1 1_555 1_555
N1 C5 1_555 1_555
N2 C8 1_555 1_555
N3 C17 1_555 1_555
N4 Ni1 1_555 1_555
C1 C2 1_555 1_555
C2 C3 1_555 1_555
C3 H1 1_555 1_555
C4 C3 1_555 1_555
H2 C4 1_555 1_555
C5 C4 1_555 1_555
H3 C5 1_555 1_555
C6 N1 1_555 1_555
H4 C6 1_555 1_555
C7 H5 1_555 1_555
C8 C7 1_555 1_555
H6 C8 1_555 1_555
C9 N2 1_555 1_555
H7 C9 1_555 1_555
C10 C7 1_555 1_555
H8 C10 1_555 1_555
C11 C9 1_555 1_555
C12 O3 1_555 1_555
C13 O5 1_555 1_555
C14 C13 1_555 1_555
C15 C14 1_555 1_555
H9 C15 1_555 1_555
C16 C15 1_555 1_555
H10 C16 1_555 1_555
C17 C16 1_555 1_555
H11 C17 1_555 1_555
C18 N3 1_555 1_555
H12 C18 1_555 1_555
C19 C20 1_555 1_555
C20 C21 1_555 1_555
C21 H13 1_555 1_555
C22 C21 1_555 1_555
H14 C22 1_555 1_555
C23 N4 1_555 1_555
H15 C23 1_555 1_555
C24 N4 1_555 1_555
H16 C24 1_555 1_555
O10 H17 1_555 1_555
H18 O10 1_555 1_555
O11 H19 1_555 1_555
H20 O11 1_555 1_555
O12 H21 1_555 1_555
H22 O12 1_555 1_555
Ni1B N2 1_555 1_555
Ni1B_2 O1B 1_555 1_555
Ni1B_3 O6B_2 1_555 1_555
Ni1C O1C 1_555 1_555
Ni1_2 N2B_2 1_555 1_555
Ni2B O8 1_555 1_555
Ni2C N1 1_555 1_555
Ni2B_2 N3 1_555 1_555
O1C C1C 1_555 1_555
O2C C1C 1_555 1_555
O3B Ni1B_2 1_555 1_555
O4B Ni2B 1_555 1_555
O4B_2 Ni2B_2 1_555 1_555
O5B Ni2B_2 1_555 1_555
O6B Ni1B_2 1_555 1_555
O6B_2 C13B 1_555 1_555
O7B C19B 1_555 1_555
O8B Ni2 1_555 1_555
O8_2 Ni2B_2 1_555 1_555
O9B Ni1B_2 1_555 1_555
O9B_2 Ni1B_3 1_555 1_555
N1C Ni2 1_555 1_555
N1A Ni2B_2 1_555 1_555
N2B Ni1 1_555 1_555
N2_2 Ni1B_2 1_555 1_555
N2B_2 C8B 1_555 1_555
N3B Ni2 1_555 1_555
N4B Ni1B_2 1_555 1_555
C1C C2C 1_555 1_555
C2C C3C 1_555 1_555
C3C H1C 1_555 1_555
C4C C3C 1_555 1_555
H2C C4C 1_555 1_555
C5C N1C 1_555 1_555
H3C C5C 1_555 1_555
C6C N1C 1_555 1_555
H4C C6C 1_555 1_555
C7B H5B 1_555 1_555
C8B C7B 1_555 1_555
H6B C8B 1_555 1_555
C9B N2B_2 1_555 1_555
H7B C9B 1_555 1_555
C10B C7B 1_555 1_555
H8B C10B 1_555 1_555
C11B C9B 1_555 1_555
C12B O3B 1_555 1_555
C13B O5B 1_555 1_555
C14B C13B 1_555 1_555
C15B C14B 1_555 1_555
H9B C15B 1_555 1_555
C16B C15B 1_555 1_555
H10B C16B 1_555 1_555
C17B N3B 1_555 1_555
H11B C17B 1_555 1_555
C18B N3B 1_555 1_555
H12B C18B 1_555 1_555
C19B O8B 1_555 1_555
C20B C19B 1_555 1_555
C21B C20B 1_555 1_555
H13B C21B 1_555 1_555
C22B C21B 1_555 1_555
H14B C22B 1_555 1_555
C23B N4B 1_555 1_555
H15B C23B 1_555 1_555
C24B N4B 1_555 1_555
H16B C24B 1_555 1_555
Ni2 O9 1_555 1_555
O6 C13 1_555 1_555
C2 C6 1_555 1_555
C10 C11 1_555 1_555
C11 C12 1_555 1_555
C14 C18 1_555 1_555
C20 C24 1_555 1_555
C22 C23 1_555 1_555
Ni2B O9B 1_555 1_555
Ni2B_2 O9B_2 1_555 1_555
O4B C12B 1_555 1_555
C2C C6C 1_555 1_555
C4C C5C 1_555 1_555
C10B C11B 1_555 1_555
C11B C12B 1_555 1_555
C14B C18B 1_555 1_555
C16B C17B 1_555 1_555
C20B C24B 1_555 1_555
C22B C23B 1_555 1_555

#END
