
#######################################################################
#
#                 Cambridge Crystallographic Data Centre
#                                CCDC 
#
#######################################################################
#
# If this CIF has been generated from an entry in the Cambridge 
# Structural Database, then it will include bibliographic, chemical, 
# crystal, experimental, refinement or atomic coordinate data resulting 
# from the CCDC's data processing and validation procedures.
#
#######################################################################

data_IPIDUH
_symmetry_cell_setting           orthorhombic
_symmetry_space_group_name_H-M   'P b c a'
_symmetry_Int_Tables_number      61
_space_group_name_Hall           '-P 2ac 2ab'
loop_
_symmetry_equiv_pos_site_id
_symmetry_equiv_pos_as_xyz
1 x,y,z
2 1/2-x,-y,1/2+z
3 1/2+x,1/2-y,-z
4 -x,1/2+y,1/2-z
5 -x,-y,-z
6 1/2+x,y,1/2-z
7 1/2-x,1/2+y,z
8 x,1/2-y,1/2+z
_cell_length_a                   12.5675(7)
_cell_length_b                   11.1614(6)
_cell_length_c                   31.0577(17)
_cell_angle_alpha                90
_cell_angle_beta                 90
_cell_angle_gamma                90
_cell_volume                     4356.49
loop_
_atom_site_label
_atom_site_type_symbol
_atom_site_fract_x
_atom_site_fract_y
_atom_site_fract_z
C1 C 0.3700(3) 0.3559(3) 0.09901(10)
H1 H 0.3458 0.2810 0.1078
C2 C 0.3230(2) 0.4569(3) 0.11670(10)
C3 C 0.3551(3) 0.5686(3) 0.10264(11)
H2 H 0.3245 0.6379 0.1137
C4 C 0.4340(3) 0.5745(3) 0.07164(11)
H3 H 0.4559 0.6482 0.0608
C5 C 0.4798(3) 0.4693(3) 0.05701(11)
H4 H 0.5351 0.4742 0.0372
C6 C 0.9001(3) 0.3765(3) -0.01045(10)
H5 H 0.9209 0.2992 -0.0031
C7 C 0.8277(2) 0.4350(3) 0.01560(10)
C8 C 0.7954(3) 0.5493(3) 0.00483(11)
H6 H 0.7460 0.5900 0.0217
C9 C 0.8380(3) 0.6016(3) -0.03134(11)
H7 H 0.8184 0.6789 -0.0392
C10 C 0.9101(3) 0.5380(3) -0.05588(10)
H8 H 0.9380 0.5741 -0.0804
C11 C 0.4058(2) 0.5492(3) 0.32788(10)
H9 H 0.4730 0.5116 0.3352
H10 H 0.3500 0.5085 0.3438
C12 C 0.2836(2) 0.5948(3) 0.27063(10)
H11 H 0.2700 0.5874 0.2400
H12 H 0.2263 0.5550 0.2859
C13 C 0.4726(2) 0.5972(3) 0.25809(10)
H13 H 0.4616 0.5889 0.2273
H14 H 0.5399 0.5598 0.2652
C14 C 0.3059(2) 0.7326(3) 0.32912(10)
H15 H 0.2489 0.6934 0.3448
H16 H 0.3067 0.8164 0.3375
C15 C 0.3734(2) 0.7823(3) 0.25874(10)
H17 H 0.3606 0.7757 0.2280
H18 H 0.3754 0.8668 0.2661
C16 C 0.4943(2) 0.7375(3) 0.31657(9)
H19 H 0.5623 0.7024 0.3241
H20 H 0.4961 0.8216 0.3245
O1 O 0.29828(19) 0.4072(2) 0.19605(7)
O2 O 0.1767(2) 0.5493(2) 0.16413(9)
O4 O 0.1646(2) 0.3385(2) 0.14657(8)
O6 O 0.8650(2) 0.2898(3) 0.07813(9)
O7 O 0.7488(2) 0.4595(2) 0.09144(7)
O8 O 0.6892(2) 0.2944(2) 0.04748(8)
S1 S 0.23247(6) 0.43751(7) 0.15955(3)
S2 S 0.77884(7) 0.36396(8) 0.06248(3)
Ag1 Ag 0.378320(18) 0.32367(2) 0.265640(8)
Ag2 Ag 0.55845(2) 0.18216(2) 0.086205(8)
N1 N 0.4479(2) 0.3608(3) 0.07011(9)
N2 N 0.9418(2) 0.4273(2) -0.04605(9)
N3 N 0.38605(19) 0.5355(2) 0.28123(8)
N4 N 0.4088(2) 0.6767(2) 0.34088(8)
N5 N 0.4773(2) 0.7266(2) 0.26933(8)
N6 N 0.28505(19) 0.7235(2) 0.28260(8)
Ag1C Ag 0.621680(18) 0.82367(2) 0.234360(8)
Ag1F Ag 0.121680(18) 0.82367(2) 0.265640(8)
Ag2B Ag 1.05845(2) 0.31784(2) -0.086205(8)
Ag2C Ag 0.44155(2) 0.68216(2) 0.413795(8)
N2B N 0.4418(2) 0.0727(2) 0.04605(9)
N4C N 0.5912(2) 0.1767(2) 0.15912(8)
N5C N 0.5227(2) 0.2266(2) 0.23067(8)
N6F N 0.21495(19) 0.2235(2) 0.28260(8)
O3 O 0.5403(2) -0.2423(2) 0.15864(8)
H21 H 0.571(3) -0.227(3) 0.1340(8)
H22 H 0.4770(18) -0.212(3) 0.1549(11)
O5 O 0.0962(2) -0.0114(2) -0.15751(8)
H23 H 0.073(3) -0.0844(19) -0.1540(11)
H24 H 0.130(2) -0.004(3) -0.1330(8)
loop_
_geom_bond_atom_site_label_1
_geom_bond_atom_site_label_2
_geom_bond_site_symmetry_1
_geom_bond_site_symmetry_2
C1 H1 1_555 1_555
C2 C1 1_555 1_555
C3 C2 1_555 1_555
H2 C3 1_555 1_555
C4 C3 1_555 1_555
H3 C4 1_555 1_555
C5 C4 1_555 1_555
H4 C5 1_555 1_555
C6 H5 1_555 1_555
C7 C6 1_555 1_555
C8 C7 1_555 1_555
H6 C8 1_555 1_555
C9 C8 1_555 1_555
H7 C9 1_555 1_555
C10 C9 1_555 1_555
H8 C10 1_555 1_555
C11 H9 1_555 1_555
H10 C11 1_555 1_555
C12 H11 1_555 1_555
H12 C12 1_555 1_555
C13 H13 1_555 1_555
H14 C13 1_555 1_555
C14 H15 1_555 1_555
H16 C14 1_555 1_555
C15 H17 1_555 1_555
H18 C15 1_555 1_555
C16 H19 1_555 1_555
H20 C16 1_555 1_555
O1 S1 1_555 1_555
O2 S1 1_555 1_555
O3 H21 1_555 1_555
O4 S1 1_555 1_555
O5 H23 1_555 1_555
O6 S2 1_555 1_555
O7 S2 1_555 1_555
O8 S2 1_555 1_555
S1 C2 1_555 1_555
S2 C7 1_555 1_555
Ag1 O1 1_555 1_555
Ag2 O8 1_555 1_555
N1 C1 1_555 1_555
N2 C6 1_555 1_555
N3 C11 1_555 1_555
N4 C11 1_555 1_555
N5 C13 1_555 1_555
N6 C12 1_555 1_555
H22 O3 1_555 1_555
H24 O5 1_555 1_555
Ag1C N5 1_555 1_555
Ag1F N6 1_555 1_555
Ag2B N2 1_555 1_555
Ag2C N4 1_555 1_555
N2B Ag2 1_555 1_555
N4C Ag2 1_555 1_555
N5C Ag1 1_555 1_555
N6F Ag1 1_555 1_555
C5 N1 1_555 1_555
C10 N2 1_555 1_555
C12 N3 1_555 1_555
C13 N3 1_555 1_555
C14 N4 1_555 1_555
C14 N6 1_555 1_555
C15 N5 1_555 1_555
C15 N6 1_555 1_555
C16 N4 1_555 1_555
C16 N5 1_555 1_555
Ag1 N3 1_555 1_555
Ag2 N1 1_555 1_555

#END
