
#######################################################################
#
#                 Cambridge Crystallographic Data Centre
#                                CCDC 
#
#######################################################################
#
# If this CIF has been generated from an entry in the Cambridge 
# Structural Database, then it will include bibliographic, chemical, 
# crystal, experimental, refinement or atomic coordinate data resulting 
# from the CCDC's data processing and validation procedures.
#
#######################################################################

data_IQEWOQ
_symmetry_cell_setting           monoclinic
_symmetry_space_group_name_H-M   'P 21/n'
_symmetry_Int_Tables_number      14
_space_group_name_Hall           '-P 2yn'
loop_
_symmetry_equiv_pos_site_id
_symmetry_equiv_pos_as_xyz
1 x,y,z
2 1/2-x,1/2+y,1/2-z
3 -x,-y,-z
4 1/2+x,1/2-y,1/2+z
_cell_length_a                   11.715(2)
_cell_length_b                   10.248(2)
_cell_length_c                   15.159(3)
_cell_angle_alpha                90
_cell_angle_beta                 91.81(2)
_cell_angle_gamma                90
_cell_volume                     1819.01
loop_
_atom_site_label
_atom_site_type_symbol
_atom_site_fract_x
_atom_site_fract_y
_atom_site_fract_z
Mn1 Mn 0.75691(4) 0.07694(5) 0.13214(3)
Mn2 Mn 0.73845(5) -0.11206(5) 0.30965(3)
Mn3 Mn 0.5000 0.0000 0.0000
Mn4 Mn 1.0000 0.0000 0.0000
O1 O 0.8504(2) -0.0845(2) 0.19504(16)
O2 O 0.6276(2) -0.0118(2) 0.21471(16)
O3 O 0.8061(2) 0.1955(2) 0.24953(15)
O4 O 0.6875(2) -0.0254(3) 0.01941(16)
O5 O 0.6560(2) 0.2554(2) 0.11025(15)
O6 O 0.8067(3) 0.0614(3) 0.36569(17)
O7 O 0.9020(2) 0.1554(2) 0.06488(16)
O8 O 0.5148(3) 0.2088(3) 0.0130(2)
O9 O 0.8982(2) 0.3662(3) 0.10213(18)
O10 O 0.8454(2) -0.0989(3) -0.0419(2)
O11 O 0.4635(2) -0.0144(3) 0.13787(19)
O12 O 1.0060(3) -0.1182(3) 0.1172(2)
C1 C 0.5204(3) -0.0242(4) 0.2059(2)
H1 H 0.4807 -0.0429 0.2574
C2 C 0.9375(4) 0.2724(4) 0.0622(3)
H2 H 0.9998 0.2891 0.0262
C3 C 0.9438(4) -0.1410(4) 0.1787(3)
H3 H 0.9678 -0.2072 0.2180
C4 C 0.8235(3) 0.1681(4) 0.3309(2)
H4 H 0.8517 0.2354 0.3676
C5 C 0.7418(3) -0.0909(4) -0.0367(3)
H5 H 0.6977 -0.1381 -0.0786
C6 C 0.5724(3) 0.2858(4) 0.0583(3)
H6 H 0.5531 0.3747 0.0542
O4B O 0.3125(2) 0.0254(3) -0.01941(16)
O10B O 0.1546(2) 0.0989(3) 0.0419(2)
C5B C 0.2582(3) 0.0909(4) 0.0367(3)
H5B H 0.3023 0.1381 0.0786
O5B O 0.3440(2) -0.2554(2) -0.11025(15)
O8B O 0.4852(3) -0.2088(3) -0.0130(2)
C6B C 0.4276(3) -0.2858(4) -0.0583(3)
H6B H 0.4469 -0.3747 -0.0542
O2B O 0.3724(2) 0.0118(2) -0.21471(16)
O11B O 0.5365(2) 0.0144(3) -0.13787(19)
C1B C 0.4796(3) 0.0242(4) -0.2059(2)
H1B H 0.5193 0.0429 -0.2574
Mn1B Mn 0.24309(4) -0.07694(5) -0.13214(3)
Mn2B Mn 0.26155(5) 0.11206(5) -0.30965(3)
O3A O 0.6939(2) -0.3045(2) 0.25047(15)
O6A O 0.6933(3) -0.4386(3) 0.13431(17)
C4A C 0.6765(3) -0.3319(4) 0.1691(2)
H4A H 0.6483 -0.2646 0.1324
O7A O 0.5980(2) -0.3446(2) 0.43512(16)
O9A O 0.6018(2) -0.1338(3) 0.39787(18)
C2A C 0.5625(4) -0.2276(4) 0.4378(3)
H2A H 0.5002 -0.2109 0.4738
O1B O 1.1496(2) 0.0845(2) -0.19504(16)
O12B O 0.9940(3) 0.1182(3) -0.1172(2)
C3B C 1.0562(4) 0.1410(4) -0.1787(3)
H3B H 1.0322 0.2072 -0.2180
O5A O 0.8440(2) -0.2446(2) 0.38975(15)
O7B O 1.0980(2) -0.1554(2) -0.06488(16)
O10B_2 O 1.1546(2) 0.0989(3) 0.0419(2)
Mn2A Mn 0.76155(5) 0.38794(5) 0.19035(3)
Mn4_2 Mn 0.0000 0.0000 0.0000
Mn2C Mn 0.23845(5) -0.38794(5) -0.19035(3)
O1B_2 O 0.1496(2) 0.0845(2) -0.19504(16)
O3B O 0.1939(2) -0.1955(2) -0.24953(15)
O7B_2 O 0.0980(2) -0.1554(2) -0.06488(16)
O3C O 0.3061(2) 0.3045(2) -0.25047(15)
O5C O 0.1560(2) 0.2446(2) -0.38975(15)
O6B O 0.1933(3) -0.0614(3) -0.36569(17)
O9C O 0.3982(2) 0.1338(3) -0.39787(18)
Mn1A Mn 0.74309(4) -0.42306(5) 0.36786(3)
Mn2A_2 Mn 0.76155(5) -0.61206(5) 0.19035(3)
Mn4C Mn 0.5000 -0.5000 0.5000
Mn1B_2 Mn 1.24309(4) -0.07694(5) -0.13214(3)
Mn2B_2 Mn 1.26155(5) 0.11206(5) -0.30965(3)
O13 O 0.1739(6) 0.6026(8) 0.1527(9)
O14 O 0.3923(7) 0.5228(9) 0.1567(10)
C7 C 0.2199(9) 0.4868(11) 0.1014(7)
H7 H 0.1642 0.4154 0.1004
H8 H 0.2335 0.5126 0.0404
C8 C 0.3145(14) 0.4487(16) 0.1397(15)
H9 H 0.2941 0.4078 0.1955
H10 H 0.3453 0.3794 0.1028
C9 C 0.3520(11) 0.6289(15) 0.2063(8)
H11 H 0.3357 0.5997 0.2662
H12 H 0.4108 0.6968 0.2107
C10 C 0.2563(13) 0.6782(13) 0.1673(16)
H13 H 0.2296 0.7497 0.2042
H14 H 0.2772 0.7163 0.1107
loop_
_geom_bond_atom_site_label_1
_geom_bond_atom_site_label_2
_geom_bond_site_symmetry_1
_geom_bond_site_symmetry_2
Mn1 O1 1_555 1_555
Mn2 O1 1_555 1_555
Mn3 O4 1_555 1_555
Mn4 O7 1_555 1_555
O1 C3 1_555 1_555
O2 Mn1 1_555 1_555
O3 Mn1 1_555 1_555
O4 Mn1 1_555 1_555
O5 Mn1 1_555 1_555
O6 Mn2 1_555 1_555
O7 Mn1 1_555 1_555
O8 Mn3 1_555 1_555
O9 C2 1_555 1_555
O10 Mn4 1_555 1_555
O11 Mn3 1_555 1_555
O12 Mn4 1_555 1_555
C1 O2 1_555 1_555
H1 C1 1_555 1_555
C2 O7 1_555 1_555
H2 C2 1_555 1_555
C3 O12 1_555 1_555
H3 C3 1_555 1_555
C4 O3 1_555 1_555
H4 C4 1_555 1_555
C5 O4 1_555 1_555
H5 C5 1_555 1_555
C6 O5 1_555 1_555
H6 C6 1_555 1_555
O13 C7 1_555 1_555
O14 C8 1_555 1_555
C7 H7 1_555 1_555
H8 C7 1_555 1_555
C8 C7 1_555 1_555
H9 C8 1_555 1_555
H10 C8 1_555 1_555
C9 O14 1_555 1_555
H11 C9 1_555 1_555
H12 C9 1_555 1_555
C10 O13 1_555 1_555
H13 C10 1_555 1_555
H14 C10 1_555 1_555
O4B Mn3 1_555 1_555
O10B C5B 1_555 1_555
C5B O4B 1_555 1_555
H5B C5B 1_555 1_555
O5B C6B 1_555 1_555
O8B Mn3 1_555 1_555
C6B O8B 1_555 1_555
H6B C6B 1_555 1_555
O2B C1B 1_555 1_555
O11B Mn3 1_555 1_555
C1B O11B 1_555 1_555
H1B C1B 1_555 1_555
Mn1B O4B 1_555 1_555
Mn2B O2B 1_555 1_555
O3A Mn2 1_555 1_555
O6A C4A 1_555 1_555
C4A O3A 1_555 1_555
H4A C4A 1_555 1_555
O7A C2A 1_555 1_555
O9A Mn2 1_555 1_555
C2A O9A 1_555 1_555
H2A C2A 1_555 1_555
O1B C3B 1_555 1_555
O12B Mn4 1_555 1_555
C3B O12B 1_555 1_555
H3B C3B 1_555 1_555
O5A Mn2 1_555 1_555
O7B Mn4 1_555 1_555
O10B_2 Mn4 1_555 1_555
Mn2A O3 1_555 1_555
Mn4_2 O10B 1_555 1_555
Mn2C O5B 1_555 1_555
O1B_2 Mn1B 1_555 1_555
O3B Mn1B 1_555 1_555
O7B_2 Mn1B 1_555 1_555
O3C Mn2B 1_555 1_555
O5C Mn2B 1_555 1_555
O6B Mn2B 1_555 1_555
O9C Mn2B 1_555 1_555
Mn1A O3A 1_555 1_555
Mn2A_2 O6A 1_555 1_555
Mn4C O7A 1_555 1_555
Mn1B_2 O1B 1_555 1_555
Mn2B_2 O1B 1_555 1_555
Mn2 O2 1_555 1_555
O5 Mn2A 1_555 1_555
O6 C4 1_555 1_555
O8 C6 1_555 1_555
O9 Mn2A 1_555 1_555
O10 C5 1_555 1_555
O11 C1 1_555 1_555
C9 C10 1_555 1_555
O5B Mn1B 1_555 1_555
O2B Mn1B 1_555 1_555
Mn2B O1B_2 1_555 1_555
O7A Mn1A 1_555 1_555
O5A Mn1A 1_555 1_555
O7B Mn1B_2 1_555 1_555
Mn4_2 O7B_2 1_555 1_555
Mn2C O3B 1_555 1_555

#END
