
#######################################################################
#
#                 Cambridge Crystallographic Data Centre
#                                CCDC 
#
#######################################################################
#
# If this CIF has been generated from an entry in the Cambridge 
# Structural Database, then it will include bibliographic, chemical, 
# crystal, experimental, refinement or atomic coordinate data resulting 
# from the CCDC's data processing and validation procedures.
#
#######################################################################

data_ISIKOL
_symmetry_cell_setting           monoclinic
_symmetry_space_group_name_H-M   'P 21/n'
_symmetry_Int_Tables_number      14
_space_group_name_Hall           '-P 2yn'
loop_
_symmetry_equiv_pos_site_id
_symmetry_equiv_pos_as_xyz
1 x,y,z
2 1/2-x,1/2+y,1/2-z
3 -x,-y,-z
4 1/2+x,1/2-y,1/2+z
_cell_length_a                   7.2765(4)
_cell_length_b                   16.9791(9)
_cell_length_c                   17.0668(10)
_cell_angle_alpha                90
_cell_angle_beta                 96.538(5)
_cell_angle_gamma                90
_cell_volume                     2094.86
loop_
_atom_site_label
_atom_site_type_symbol
_atom_site_fract_x
_atom_site_fract_y
_atom_site_fract_z
Co1 Co 0.56530(7) 0.20130(3) 0.19338(3)
O1 O 0.1575(3) 0.44591(16) 0.44883(15)
O2 O 0.8842(3) 0.31702(14) 0.60128(14)
O3 O 0.7331(5) 0.25602(17) 0.31747(16)
O4 O 0.6950(3) 0.38680(17) 0.66670(16)
N1 N 1.7541(4) -0.23725(17) 0.3658(2)
N2 N 0.6699(4) 0.09649(17) 0.22971(18)
N3 N 0.8782(4) 0.00752(19) 0.2690(2)
N4 N 1.5076(4) -0.17589(18) 0.3996(2)
O5 O 0.4440(4) 0.27094(16) 0.26686(16)
C1 C 0.3220(5) 0.4059(2) 0.4592(2)
C2 C 0.0905(4) 0.4807(2) 0.5146(2)
H1 H 0.1777 0.5195 0.5383
H2 H 0.0723 0.4411 0.5539
C3 C 0.3668(5) 0.3667(2) 0.3935(2)
H3 H 0.2850 0.3677 0.3474
C4 C 0.6519(5) 0.32392(19) 0.4629(2)
H4 H 0.7645 0.2979 0.4637
C5 C 0.6058(5) 0.3608(2) 0.5306(2)
C6 C 0.7352(5) 0.3560(2) 0.6058(2)
C7 C 0.4402(5) 0.4016(2) 0.5279(2)
H5 H 0.4087 0.4263 0.5731
C8 C 0.5316(6) 0.3257(2) 0.3947(2)
C9 C 0.5761(7) 0.2820(2) 0.3223(3)
C10 C 1.3136(6) -0.0567(2) 0.4026(3)
H6 H 1.3951 -0.0327 0.3683
H7 H 1.3583 -0.0425 0.4565
C11 C 1.0615(5) -0.0275(2) 0.2943(3)
H8 H 1.1541 -0.0001 0.2680
H9 H 1.0606 -0.0821 0.2776
C12 C 1.6386(6) -0.1743(2) 0.4633(3)
H10 H 1.6271 -0.1512 0.5119
C13 C 0.5917(6) 0.0232(3) 0.2209(3)
H11 H 0.4694 0.0131 0.2014
C14 C 1.7875(5) -0.2122(2) 0.4426(2)
H12 H 1.8969 -0.2203 0.4754
C15 C 1.1156(6) -0.0238(2) 0.3821(3)
H13 H 1.0291 -0.0544 0.4089
H14 H 1.1108 0.0303 0.3999
C16 C 1.3206(5) -0.1441(2) 0.3940(3)
H15 H 1.2561 -0.1681 0.4347
H16 H 1.2554 -0.1587 0.3434
C17 C 0.7187(6) -0.0322(3) 0.2450(3)
H17 H 0.7011 -0.0864 0.2451
C18 C 1.5847(6) -0.2139(2) 0.3429(3)
H18 H 1.5246 -0.2228 0.2927
C19 C 0.8416(5) 0.0833(2) 0.2561(2)
H19 H 0.9299 0.1229 0.2650
Co1B Co -0.56530(7) 0.79870(3) 0.80662(3)
Co1A Co -1.06530(7) 0.70130(3) 0.30662(3)
Co1A_2 Co 1.93470(7) -0.29870(3) 0.30662(3)
Co1C Co -1.93470(7) 1.29870(3) 0.69338(3)
Co1C_2 Co 1.06530(7) 0.29870(3) 0.69338(3)
O1B O -0.1575(3) 0.55409(16) 0.55117(15)
O2B O -0.8842(3) 0.68298(14) 0.39872(14)
O2A O -0.3842(3) 0.81702(14) 0.89872(14)
O2C O 0.3842(3) 0.18298(14) 0.10128(14)
O3B O -0.7331(5) 0.74398(17) 0.68253(16)
O4B O -0.6950(3) 0.61320(17) 0.33330(16)
N1B N -1.7541(4) 1.23725(17) 0.6342(2)
N1A N 0.7459(4) 0.26275(17) 0.1342(2)
N1C N -0.7459(4) 0.73725(17) 0.8658(2)
N2B N -0.6699(4) 0.90351(17) 0.77029(18)
N3B N -0.8782(4) 0.99248(19) 0.7310(2)
N4B N -1.5076(4) 1.17589(18) 0.6004(2)
O5B O -0.4440(4) 0.72906(16) 0.73314(16)
C1B C -0.3220(5) 0.5941(2) 0.5408(2)
C2B C -0.0905(4) 0.5193(2) 0.4854(2)
H1B H -0.1777 0.4805 0.4617
H2B H -0.0723 0.5589 0.4461
C3B C -0.3668(5) 0.6333(2) 0.6065(2)
H3B H -0.2850 0.6323 0.6526
C4B C -0.6519(5) 0.67608(19) 0.5371(2)
H4B H -0.7645 0.7021 0.5363
C5B C -0.6058(5) 0.6392(2) 0.4694(2)
C6B C -0.7352(5) 0.6440(2) 0.3942(2)
C7B C -0.4402(5) 0.5984(2) 0.4721(2)
H5B H -0.4087 0.5737 0.4269
C8B C -0.5316(6) 0.6743(2) 0.6053(2)
C9B C -0.5761(7) 0.7180(2) 0.6777(3)
C10B C -1.3136(6) 1.0567(2) 0.5974(3)
H6B H -1.3951 1.0327 0.6317
H7B H -1.3583 1.0425 0.5435
C11B C -1.0615(5) 1.0275(2) 0.7057(3)
H8B H -1.1541 1.0001 0.7320
H9B H -1.0606 1.0821 0.7224
C12B C -1.6386(6) 1.1743(2) 0.5367(3)
H10B H -1.6271 1.1512 0.4881
C13B C -0.5917(6) 0.9768(3) 0.7791(3)
H11B H -0.4694 0.9869 0.7986
C14B C -1.7875(5) 1.2122(2) 0.5574(2)
H12B H -1.8969 1.2203 0.5246
C15B C -1.1156(6) 1.0238(2) 0.6179(3)
H13B H -1.0291 1.0544 0.5911
H14B H -1.1108 0.9697 0.6001
C16B C -1.3206(5) 1.1441(2) 0.6060(3)
H15B H -1.2561 1.1681 0.5653
H16B H -1.2554 1.1587 0.6566
C17B C -0.7187(6) 1.0322(3) 0.7550(3)
H17B H -0.7011 1.0864 0.7549
C18B C -1.5847(6) 1.2139(2) 0.6571(3)
H18B H -1.5246 1.2228 0.7073
C19B C -0.8416(5) 0.9167(2) 0.7439(2)
H19B H -0.9299 0.8771 0.7350
O6 O 1.1154(18) 0.2004(11) 0.3653(8)
O7? O 1.2384(19) 0.1587(8) 0.3334(7)
loop_
_geom_bond_atom_site_label_1
_geom_bond_atom_site_label_2
_geom_bond_site_symmetry_1
_geom_bond_site_symmetry_2
Co1 N2 1_555 1_555
O1 C1 1_555 1_555
O2 C6 1_555 1_555
O3 C9 1_555 1_555
O4 C6 1_555 1_555
N1 C14 1_555 1_555
N2 C13 1_555 1_555
N3 C11 1_555 1_555
N4 C12 1_555 1_555
O5 Co1 1_555 1_555
C1 C3 1_555 1_555
C2 O1 1_555 1_555
H1 C2 1_555 1_555
H2 C2 1_555 1_555
C3 H3 1_555 1_555
C4 H4 1_555 1_555
C5 C4 1_555 1_555
C6 C5 1_555 1_555
C7 C1 1_555 1_555
H5 C7 1_555 1_555
C8 C3 1_555 1_555
C9 O5 1_555 1_555
C10 H6 1_555 1_555
H7 C10 1_555 1_555
C11 H8 1_555 1_555
H9 C11 1_555 1_555
C12 H10 1_555 1_555
C13 H11 1_555 1_555
C14 C12 1_555 1_555
H12 C14 1_555 1_555
C15 C10 1_555 1_555
H13 C15 1_555 1_555
H14 C15 1_555 1_555
C16 N4 1_555 1_555
H15 C16 1_555 1_555
H16 C16 1_555 1_555
C17 N3 1_555 1_555
H17 C17 1_555 1_555
C18 N1 1_555 1_555
H18 C18 1_555 1_555
C19 N2 1_555 1_555
H19 C19 1_555 1_555
Co1B O2A 1_555 1_555
Co1A O2B 1_555 1_555
Co1A_2 N1 1_555 1_555
Co1C N1B 1_555 1_555
Co1C_2 O2 1_555 1_555
O1B C1B 1_555 1_555
O2B C6B 1_555 1_555
O2C Co1 1_555 1_555
O3B C9B 1_555 1_555
O4B C6B 1_555 1_555
N1B C14B 1_555 1_555
N1A Co1 1_555 1_555
N1C Co1B 1_555 1_555
N2B Co1B 1_555 1_555
N3B C11B 1_555 1_555
N4B C12B 1_555 1_555
O5B Co1B 1_555 1_555
C1B C3B 1_555 1_555
C2B C2 1_555 1_555
H1B C2B 1_555 1_555
H2B C2B 1_555 1_555
C3B H3B 1_555 1_555
C4B H4B 1_555 1_555
C5B C4B 1_555 1_555
C6B C5B 1_555 1_555
C7B C1B 1_555 1_555
H5B C7B 1_555 1_555
C8B C3B 1_555 1_555
C9B O5B 1_555 1_555
C10B H6B 1_555 1_555
H7B C10B 1_555 1_555
C11B H8B 1_555 1_555
H9B C11B 1_555 1_555
C12B H10B 1_555 1_555
C13B N2B 1_555 1_555
H11B C13B 1_555 1_555
C14B C12B 1_555 1_555
H12B C14B 1_555 1_555
C15B C10B 1_555 1_555
H13B C15B 1_555 1_555
H14B C15B 1_555 1_555
C16B N4B 1_555 1_555
H15B C16B 1_555 1_555
H16B C16B 1_555 1_555
C17B N3B 1_555 1_555
H17B C17B 1_555 1_555
C18B N1B 1_555 1_555
H18B C18B 1_555 1_555
C19B N2B 1_555 1_555
H19B C19B 1_555 1_555
N3 C19 1_555 1_555
N4 C18 1_555 1_555
C4 C8 1_555 1_555
C5 C7 1_555 1_555
C8 C9 1_555 1_555
C10 C16 1_555 1_555
C11 C15 1_555 1_555
C13 C17 1_555 1_555
O1B C2B 1_555 1_555
N3B C19B 1_555 1_555
N4B C18B 1_555 1_555
C4B C8B 1_555 1_555
C5B C7B 1_555 1_555
C8B C9B 1_555 1_555
C10B C16B 1_555 1_555
C11B C15B 1_555 1_555
C13B C17B 1_555 1_555

#END
