
#######################################################################
#
#                 Cambridge Crystallographic Data Centre
#                                CCDC 
#
#######################################################################
#
# If this CIF has been generated from an entry in the Cambridge 
# Structural Database, then it will include bibliographic, chemical, 
# crystal, experimental, refinement or atomic coordinate data resulting 
# from the CCDC's data processing and validation procedures.
#
#######################################################################

data_ISUFOS
_symmetry_cell_setting           triclinic
_symmetry_space_group_name_H-M   'P -1'
_symmetry_Int_Tables_number      2
_space_group_name_Hall           '-P 1'
loop_
_symmetry_equiv_pos_site_id
_symmetry_equiv_pos_as_xyz
1 x,y,z
2 -x,-y,-z
_cell_length_a                   10.998(2)
_cell_length_b                   11.800(2)
_cell_length_c                   12.793(3)
_cell_angle_alpha                70.09(3)
_cell_angle_beta                 66.74(3)
_cell_angle_gamma                73.43(3)
_cell_volume                     1412.13
loop_
_atom_site_label
_atom_site_type_symbol
_atom_site_fract_x
_atom_site_fract_y
_atom_site_fract_z
Cd1 Cd 0.0000 0.5000 0.5000
N1 N 0.2007(5) 0.3531(5) 0.4394(4)
N2 N 0.3676(7) 0.2105(6) 0.1921(5)
H3 H 0.4039 0.1376 0.1843
N3 N 0.1139(5) 0.6638(5) 0.3590(4)
N4 N 0.4654(6) 0.7026(6) 0.2091(5)
H4 H 0.5094 0.7604 0.1621
N5 N -0.0711(5) 0.4797(5) 0.3526(4)
N6 N -0.1733(8) 0.2420(6) 0.2954(7)
H5 H -0.1766 0.2272 0.2353
C1 C 0.2373(6) 0.3313(6) 0.3336(5)
H6 H 0.1948 0.3838 0.2804
C2 C 0.3357(6) 0.2338(6) 0.3000(5)
C3 C 0.3975(7) 0.1577(7) 0.3818(7)
H7 H 0.4644 0.0916 0.3634
C4 C 0.3594(7) 0.1804(7) 0.4897(6)
H8 H 0.4004 0.1298 0.5446
C5 C 0.2605(6) 0.2780(6) 0.5163(5)
H9 H 0.2347 0.2921 0.5900
C6 C 0.3418(9) 0.3043(8) 0.0935(6)
H10 H 0.2469 0.3394 0.1163
H11 H 0.3611 0.2670 0.0305
C7 C 0.4223(7) 0.4063(7) 0.0465(5)
C8 C 0.3628(8) 0.5279(8) 0.0277(6)
H12 H 0.2701 0.5486 0.0450
C9 C 0.5612(8) 0.3804(8) 0.0165(6)
H13 H 0.6044 0.2992 0.0264
C10 C 0.2480(6) 0.6402(6) 0.3217(5)
H14 H 0.2903 0.5614 0.3492
C11 C 0.3288(6) 0.7277(6) 0.2433(5)
C12 C 0.2623(8) 0.8435(7) 0.2009(6)
H15 H 0.3113 0.9043 0.1479
C13 C 0.1262(9) 0.8676(7) 0.2369(7)
H16 H 0.0815 0.9444 0.2072
C14 C 0.0532(7) 0.7770(7) 0.3186(7)
H17 H -0.0402 0.7958 0.3456
C15 C 0.5387(7) 0.5851(8) 0.2476(6)
H18 H 0.6336 0.5862 0.2049
H19 H 0.5136 0.5257 0.2263
C16 C 0.5185(6) 0.5415(7) 0.3793(6)
C17 C 0.5000(7) 0.6213(8) 0.4424(6)
H20 H 0.5000 0.7040 0.4046
C18 C 0.5187(7) 0.4191(8) 0.4375(6)
H21 H 0.5316 0.3631 0.3960
C19 C -0.1126(6) 0.3769(6) 0.3681(6)
H22 H -0.1293 0.3217 0.4420
C20 C -0.1321(7) 0.3485(7) 0.2797(6)
C21 C -0.1086(8) 0.4339(8) 0.1697(6)
H23 H -0.1196 0.4190 0.1074
C22 C -0.0688(7) 0.5401(8) 0.1554(6)
H24 H -0.0546 0.5989 0.0835
C23 C -0.0503(7) 0.5589(7) 0.2478(5)
H25 H -0.0218 0.6306 0.2362
C24 C -0.2107(9) 0.1550(8) 0.4077(9)
H26 H -0.2601 0.1017 0.4029
H27 H -0.2720 0.1993 0.4653
C25 C -0.0996(9) 0.0761(7) 0.4531(8)
C26 C -0.1313(8) -0.0024(8) 0.5640(8)
H28 H -0.2213 -0.0046 0.6088
C27 C 0.0351(9) 0.0770(8) 0.3896(8)
H29 H 0.0604 0.1291 0.3144
Cd1_2 Cd 1.0000 0.5000 -0.5000
Cd1_3 Cd 1.0000 0.5000 0.5000
Cd1_4 Cd 0.0000 -0.5000 0.5000
N1A N 0.7993(5) 0.6469(5) -0.4394(4)
N1A_2 N -0.2007(5) 0.6469(5) 0.5606(4)
N2A N 0.6324(7) 0.7895(6) -0.1921(5)
H3A H 0.5961 0.8624 -0.1843
N3A N 0.8861(5) 0.3362(5) 0.6410(4)
N3A_2 N -0.1139(5) 0.3362(5) 0.6410(4)
N4A N 0.5346(6) 0.2974(6) 0.7909(5)
H4A H 0.4906 0.2396 0.8379
N5A N 0.0711(5) -0.4797(5) 0.6474(4)
N5A_2 N 0.0711(5) 0.5203(5) 0.6474(4)
N6A N 0.1733(8) -0.2420(6) 0.7046(7)
H5A H 0.1766 -0.2272 0.7647
C1A C 0.7627(6) 0.6687(6) -0.3336(5)
H6A H 0.8052 0.6162 -0.2804
C2A C 0.6643(6) 0.7662(6) -0.3000(5)
C3A C 0.6025(7) 0.8423(7) -0.3818(7)
H7A H 0.5356 0.9084 -0.3634
C4A C 0.6406(7) 0.8196(7) -0.4897(6)
H8A H 0.5996 0.8702 -0.5446
C5A C 0.7395(6) 0.7220(6) -0.5163(5)
H9A H 0.7653 0.7079 -0.5900
C6A C 0.6582(9) 0.6957(8) -0.0935(6)
H10A H 0.7531 0.6606 -0.1163
H11A H 0.6389 0.7330 -0.0305
C7A C 0.5777(7) 0.5937(7) -0.0465(5)
C8A C 0.6372(8) 0.4721(8) -0.0277(6)
H12A H 0.7299 0.4514 -0.0450
C9A C 0.4388(8) 0.6196(8) -0.0165(6)
H13A H 0.3956 0.7008 -0.0264
C10A C 0.7520(6) 0.3598(6) 0.6783(5)
H14A H 0.7097 0.4386 0.6508
C11A C 0.6712(6) 0.2723(6) 0.7567(5)
C12A C 0.7377(8) 0.1565(7) 0.7991(6)
H15A H 0.6887 0.0957 0.8521
C13A C 0.8738(9) 0.1324(7) 0.7631(7)
H16A H 0.9185 0.0556 0.7928
C14A C 0.9468(7) 0.2230(7) 0.6814(7)
H17A H 1.0402 0.2042 0.6544
C15A C 0.4613(7) 0.4149(8) 0.7524(6)
H18A H 0.3664 0.4138 0.7951
H19A H 0.4864 0.4743 0.7737
C16A C 0.4815(6) 0.4585(7) 0.6207(6)
C17A C 0.5000(7) 0.3787(8) 0.5576(6)
H20A H 0.5000 0.2960 0.5954
C18A C 0.4813(7) 0.5809(8) 0.5625(6)
H21A H 0.4684 0.6369 0.6040
C19A C 0.1126(6) -0.3769(6) 0.6319(6)
H22A H 0.1293 -0.3217 0.5580
C20A C 0.1321(7) -0.3485(7) 0.7203(6)
C21A C 0.1086(8) -0.4339(8) 0.8303(6)
H23A H 0.1196 -0.4190 0.8926
C22A C 0.0688(7) -0.5401(8) 0.8446(6)
H24A H 0.0546 -0.5989 0.9165
C23A C 0.0503(7) -0.5589(7) 0.7522(5)
H25A H 0.0218 -0.6306 0.7638
C24A C 0.2107(9) -0.1550(8) 0.5923(9)
H26A H 0.2601 -0.1017 0.5971
H27A H 0.2720 -0.1993 0.5347
C25A C 0.0996(9) -0.0761(7) 0.5469(8)
C26A C 0.1313(8) 0.0024(8) 0.4360(8)
H28A H 0.2213 0.0046 0.3912
C27A C -0.0351(9) -0.0770(8) 0.6104(8)
H29A H -0.0604 -0.1291 0.6856
Cl1 Cl 0.3104(3) 0.0651(2) 0.8562(2)
O2 O 0.2076(14) 0.1094(16) 0.8050(15)
O3 O 0.3040(16) 0.1358(12) 0.9289(11)
O4 O 0.4402(11) 0.0800(11) 0.7558(9)
O5 O 0.3227(13) -0.0611(6) 0.9111(10)
O1 O 0.9058(11) 0.1888(8) 0.0539(9)
H1 H 0.8452 0.1515 0.0632
H2 H 0.9821 0.1464 0.0271
O6? O 0.324(3) -0.013(2) 0.7855(19)
O7? O 0.295(2) 0.1895(10) 0.7919(17)
O8? O 0.4188(16) 0.031(2) 0.9003(19)
O9? O 0.1852(14) 0.047(2) 0.9568(14)
loop_
_geom_bond_atom_site_label_1
_geom_bond_atom_site_label_2
_geom_bond_site_symmetry_1
_geom_bond_site_symmetry_2
Cd1 N1 1_555 1_555
Cl1 O2 1_555 1_555
O1 H1 1_555 1_555
H2 O1 1_555 1_555
O3 Cl1 1_555 1_555
O4 Cl1 1_555 1_555
O5 Cl1 1_555 1_555
N1 C1 1_555 1_555
N2 H3 1_555 1_555
N3 Cd1 1_555 1_555
N4 H4 1_555 1_555
N5 Cd1 1_555 1_555
N6 H5 1_555 1_555
C1 H6 1_555 1_555
C2 N2 1_555 1_555
C3 C2 1_555 1_555
H7 C3 1_555 1_555
C4 C3 1_555 1_555
H8 C4 1_555 1_555
C5 N1 1_555 1_555
H9 C5 1_555 1_555
C6 N2 1_555 1_555
H10 C6 1_555 1_555
H11 C6 1_555 1_555
C7 C6 1_555 1_555
C8 C7 1_555 1_555
H12 C8 1_555 1_555
C9 C7 1_555 1_555
H13 C9 1_555 1_555
C10 N3 1_555 1_555
H14 C10 1_555 1_555
C11 N4 1_555 1_555
C12 C11 1_555 1_555
H15 C12 1_555 1_555
C13 C12 1_555 1_555
H16 C13 1_555 1_555
C14 N3 1_555 1_555
H17 C14 1_555 1_555
C15 N4 1_555 1_555
H18 C15 1_555 1_555
H19 C15 1_555 1_555
C16 C15 1_555 1_555
C17 C16 1_555 1_555
H20 C17 1_555 1_555
C18 C16 1_555 1_555
H21 C18 1_555 1_555
C19 N5 1_555 1_555
H22 C19 1_555 1_555
C20 N6 1_555 1_555
C21 C20 1_555 1_555
H23 C21 1_555 1_555
C22 C21 1_555 1_555
H24 C22 1_555 1_555
C23 N5 1_555 1_555
H25 C23 1_555 1_555
C24 N6 1_555 1_555
H26 C24 1_555 1_555
H27 C24 1_555 1_555
C25 C24 1_555 1_555
C26 C25 1_555 1_555
H28 C26 1_555 1_555
C27 C25 1_555 1_555
H29 C27 1_555 1_555
Cd1_2 N1A 1_555 1_555
Cd1_3 N3A 1_555 1_555
Cd1_4 N5A 1_555 1_555
N1A C1A 1_555 1_555
N1A_2 Cd1 1_555 1_555
N2A H3A 1_555 1_555
N3A C10A 1_555 1_555
N3A_2 Cd1 1_555 1_555
N4A H4A 1_555 1_555
N5A C19A 1_555 1_555
N5A_2 Cd1 1_555 1_555
N6A H5A 1_555 1_555
C1A H6A 1_555 1_555
C2A N2A 1_555 1_555
C3A C2A 1_555 1_555
H7A C3A 1_555 1_555
C4A C3A 1_555 1_555
H8A C4A 1_555 1_555
C5A N1A 1_555 1_555
H9A C5A 1_555 1_555
C6A N2A 1_555 1_555
H10A C6A 1_555 1_555
H11A C6A 1_555 1_555
C7A C6A 1_555 1_555
C8A C9 1_555 1_555
H12A C8A 1_555 1_555
C9A C8 1_555 1_555
H13A C9A 1_555 1_555
C10A H14A 1_555 1_555
C11A N4A 1_555 1_555
C12A C11A 1_555 1_555
H15A C12A 1_555 1_555
C13A C12A 1_555 1_555
H16A C13A 1_555 1_555
C14A N3A 1_555 1_555
H17A C14A 1_555 1_555
C15A N4A 1_555 1_555
H18A C15A 1_555 1_555
H19A C15A 1_555 1_555
C16A C15A 1_555 1_555
C17A C18 1_555 1_555
H20A C17A 1_555 1_555
C18A C17 1_555 1_555
H21A C18A 1_555 1_555
C19A H22A 1_555 1_555
C20A N6A 1_555 1_555
C21A C20A 1_555 1_555
H23A C21A 1_555 1_555
C22A C21A 1_555 1_555
H24A C22A 1_555 1_555
C23A N5A 1_555 1_555
H25A C23A 1_555 1_555
C24A N6A 1_555 1_555
H26A C24A 1_555 1_555
H27A C24A 1_555 1_555
C25A C24A 1_555 1_555
C26A C27 1_555 1_555
H28A C26A 1_555 1_555
C27A C26 1_555 1_555
H29A C27A 1_555 1_555
C1 C2 1_555 1_555
C4 C5 1_555 1_555
C10 C11 1_555 1_555
C13 C14 1_555 1_555
C19 C20 1_555 1_555
C22 C23 1_555 1_555
C1A C2A 1_555 1_555
C4A C5A 1_555 1_555
C7A C8A 1_555 1_555
C7A C9A 1_555 1_555
C10A C11A 1_555 1_555
C13A C14A 1_555 1_555
C16A C17A 1_555 1_555
C16A C18A 1_555 1_555
C19A C20A 1_555 1_555
C22A C23A 1_555 1_555
C25A C26A 1_555 1_555
C25A C27A 1_555 1_555

#END
