
#######################################################################
#
#                 Cambridge Crystallographic Data Centre
#                                CCDC 
#
#######################################################################
#
# If this CIF has been generated from an entry in the Cambridge 
# Structural Database, then it will include bibliographic, chemical, 
# crystal, experimental, refinement or atomic coordinate data resulting 
# from the CCDC's data processing and validation procedures.
#
#######################################################################

data_IVETOT
_symmetry_cell_setting           orthorhombic
_symmetry_space_group_name_H-M   'P b a n'
_symmetry_Int_Tables_number      50
_space_group_name_Hall           '-P 2ab 2b'
loop_
_symmetry_equiv_pos_site_id
_symmetry_equiv_pos_as_xyz
1 x,y,z
2 1/2-x,1/2-y,z
3 1/2-x,y,-z
4 x,1/2-y,-z
5 -x,-y,-z
6 1/2+x,1/2+y,-z
7 1/2+x,-y,z
8 -x,1/2+y,z
_cell_length_a                   14.995(3)
_cell_length_b                   30.625(7)
_cell_length_c                   14.689(3)
_cell_angle_alpha                90
_cell_angle_beta                 90
_cell_angle_gamma                90
_cell_volume                     6745.51
loop_
_atom_site_label
_atom_site_type_symbol
_atom_site_fract_x
_atom_site_fract_y
_atom_site_fract_z
Cl2 Cl 0.4565(3) 1.2500 0.0000
Cu1 Cu 0.7500 0.7500 0.5000
Cl1 Cl 0.7500 0.7500 0.6810(3)
N1 N 0.8460(2) 0.79685(10) 0.5034(3)
C1 C 0.9105(3) 0.79657(13) 0.4418(4)
H1 H 0.9122 0.7735 0.3987
C2 C 0.9762(3) 0.82885(13) 0.4378(4)
H2 H 1.0215 0.8280 0.3927
C3 C 0.9731(2) 0.86286(11) 0.5033(3)
C4 C 0.9071(3) 0.86077(13) 0.5669(3)
H3 H 0.9040 0.8821 0.6138
C5 C 0.8462(3) 0.82849(12) 0.5633(3)
H4 H 0.8000 0.8287 0.6075
C6 C 1.0407(2) 0.89818(11) 0.5039(3)
C7 C 1.0905(3) 0.90692(11) 0.4240(3)
H5 H 1.0803 0.8898 0.3710
C8 C 1.1541(2) 0.94006(12) 0.4215(3)
H6 H 1.1872 0.9452 0.3674
C9 C 1.1693(2) 0.96586(10) 0.4986(3)
C10 C 1.1195(2) 0.95703(11) 0.5755(3)
H7 H 1.1284 0.9740 0.6289
C11 C 1.0568(2) 0.92393(12) 0.5760(3)
H8 H 1.0234 0.9192 0.6301
N2 N 1.2523(7) 1.20119(14) 0.0946(4)
C12 C 1.3236(7) 1.1930(2) 0.1477(5)
H9 H 1.3737 1.2120 0.1448
C13 C 1.3256(5) 1.1582(2) 0.2058(5)
H10 H 1.3770 1.1532 0.2421
C14 C 1.2543(5) 1.13032(14) 0.2123(3)
C15 C 1.1797(6) 1.1381(2) 0.1579(5)
H11 H 1.1287 1.1197 0.1591
C16 C 1.1851(8) 1.1750(3) 0.1012(5)
H12 H 1.1347 1.1812 0.0642
C17 C 1.2598(4) 1.09281(12) 0.2806(3)
C18 C 1.3302(3) 1.08657(13) 0.3384(3)
H13 H 1.3823 1.1040 0.3321
C19 C 1.3262(3) 1.05527(12) 0.4055(3)
H14 H 1.3752 1.0520 0.4460
C20 C 1.2526(3) 1.02839(10) 0.4154(3)
C21 C 1.1820(3) 1.03398(11) 0.3567(3)
H15 H 1.1308 1.0159 0.3630
C22 C 1.1837(3) 1.06531(13) 0.2887(3)
H16 H 1.1348 1.0684 0.2480
C23 C 1.2500 0.99697(14) 0.5000
Cu2 Cu 1.2500 1.2500 0.0000
Cu1_2 Cu 1.7500 0.7500 0.5000
Cu1_3 Cu -0.2500 0.7500 0.5000
Cl1B Cl 0.7500 0.7500 0.3190(3)
N1B N 1.6540(2) 0.79685(10) 0.4966(3)
N1A N 0.6540(2) 0.70315(10) 0.5034(3)
N1C N -0.1540(2) 0.70315(10) 0.4966(3)
N1B_2 N 0.6540(2) 0.79685(10) 0.4966(3)
N1C_2 N 0.8460(2) 0.70315(10) 0.4966(3)
C1B C 1.5895(3) 0.79657(13) 0.5582(4)
C1A C 0.5895(3) 0.70343(13) 0.4418(4)
C1C C -0.0895(3) 0.70343(13) 0.5582(4)
H1B H 1.5878 0.7735 0.6013
H1A H 0.5878 0.7265 0.3987
H1C H -0.0878 0.7265 0.6013
C2B C 1.5238(3) 0.82885(13) 0.5622(4)
C2A C 0.5238(3) 0.67115(13) 0.4378(4)
C2C C -0.0238(3) 0.67115(13) 0.5622(4)
H2B H 1.4785 0.8280 0.6073
H2A H 0.4785 0.6720 0.3927
H2C H 0.0215 0.6720 0.6073
C3B C 1.5269(2) 0.86286(11) 0.4967(3)
C3A C 0.5269(2) 0.63714(11) 0.5033(3)
C3C C -0.0269(2) 0.63714(11) 0.4967(3)
C4B C 1.5929(3) 0.86077(13) 0.4331(3)
C4A C 0.5929(3) 0.63923(13) 0.5669(3)
C4C C -0.0929(3) 0.63923(13) 0.4331(3)
H3B H 1.5960 0.8821 0.3862
H3A H 0.5960 0.6179 0.6138
H3C H -0.0960 0.6179 0.3862
C5B C 1.6538(3) 0.82849(12) 0.4367(3)
C5A C 0.6538(3) 0.67151(12) 0.5633(3)
C5C C -0.1538(3) 0.67151(12) 0.4367(3)
H4B H 1.7000 0.8287 0.3925
H4A H 0.7000 0.6713 0.6075
H4C H -0.2000 0.6713 0.3925
C6B C 1.4593(2) 0.89818(11) 0.4961(3)
C6A C 0.4593(2) 0.60182(11) 0.5039(3)
C6C C 0.0407(2) 0.60182(11) 0.4961(3)
C7B C 1.4095(3) 0.90692(11) 0.5760(3)
C7A C 0.4095(3) 0.59308(11) 0.4240(3)
C7C C 0.0905(3) 0.59308(11) 0.5760(3)
H5B H 1.4197 0.8898 0.6290
H5A H 0.4197 0.6102 0.3710
H5C H 0.0803 0.6102 0.6290
C8B C 1.3459(2) 0.94006(12) 0.5785(3)
C8A C 0.3459(2) 0.55994(12) 0.4215(3)
C8C C 0.1541(2) 0.55994(12) 0.5785(3)
H6B H 1.3128 0.9452 0.6326
H6A H 0.3128 0.5548 0.3674
H6C H 0.1872 0.5548 0.6326
C9B C 1.3307(2) 0.96586(10) 0.5014(3)
C9A C 0.3307(2) 0.53414(10) 0.4986(3)
C9C C 0.1693(2) 0.53414(10) 0.5014(3)
C10B C 1.3805(2) 0.95703(11) 0.4245(3)
C10A C 0.3805(2) 0.54297(11) 0.5755(3)
C10C C 0.1195(2) 0.54297(11) 0.4245(3)
H7B H 1.3716 0.9740 0.3711
H7A H 0.3716 0.5260 0.6289
H7C H 0.1284 0.5260 0.3711
C11B C 1.4432(2) 0.92393(12) 0.4240(3)
C11A C 0.4432(2) 0.57607(12) 0.5760(3)
C11C C 0.0568(2) 0.57607(12) 0.4240(3)
H8B H 1.4766 0.9192 0.3699
H8A H 0.4766 0.5808 0.6301
H8C H 0.0234 0.5808 0.3699
N2B N 1.2477(7) 1.20119(14) 0.9054(4)
N2A N 0.2477(7) 0.29881(14) 0.0946(4)
N2C N 0.2523(7) 0.29881(14) 0.9054(4)
N2A_2 N 1.2477(7) 1.29881(14) 0.0946(4)
N2B_2 N 1.2477(7) 1.20119(14) -0.0946(4)
N2C_2 N 1.2523(7) 1.29881(14) -0.0946(4)
C12B C 1.1764(7) 1.1930(2) 0.8523(5)
C12A C 0.1764(7) 0.3070(2) 0.1477(5)
C12C C 0.3236(7) 0.3070(2) 0.8523(5)
H9B H 1.1263 1.2120 0.8552
H9A H 0.1263 0.2880 0.1448
H9C H 0.3737 0.2880 0.8552
C13B C 1.1744(5) 1.1582(2) 0.7942(5)
C13A C 0.1744(5) 0.3418(2) 0.2058(5)
C13C C 0.3256(5) 0.3418(2) 0.7942(5)
H10B H 1.1230 1.1532 0.7579
H10A H 0.1230 0.3468 0.2421
H10C H 0.3770 0.3468 0.7579
C14B C 1.2457(5) 1.13032(14) 0.7877(3)
C14A C 0.2457(5) 0.36968(14) 0.2123(3)
C14C C 0.2543(5) 0.36968(14) 0.7877(3)
C15B C 1.3203(6) 1.1381(2) 0.8421(5)
C15A C 0.3203(6) 0.3619(2) 0.1579(5)
C15C C 0.1797(6) 0.3619(2) 0.8421(5)
H11B H 1.3713 1.1197 0.8409
H11A H 0.3713 0.3803 0.1591
H11C H 0.1287 0.3803 0.8409
C16B C 1.3149(8) 1.1750(3) 0.8988(5)
C16A C 0.3149(8) 0.3250(3) 0.1012(5)
C16C C 0.1851(8) 0.3250(3) 0.8988(5)
H12B H 1.3653 1.1812 0.9358
H12A H 0.3653 0.3188 0.0642
H12C H 0.1347 0.3188 0.9358
C17B C 1.2402(4) 1.09281(12) 0.7194(3)
C17A C 0.2402(4) 0.40719(12) 0.2806(3)
C17C C 0.2598(4) 0.40719(12) 0.7194(3)
C18B C 1.1698(3) 1.08657(13) 0.6616(3)
C18A C 0.1698(3) 0.41343(13) 0.3384(3)
C18C C 0.3302(3) 0.41343(13) 0.6616(3)
H13B H 1.1177 1.1040 0.6679
H13A H 0.1177 0.3960 0.3321
H13C H 0.3823 0.3960 0.6679
C19B C 1.1738(3) 1.05527(12) 0.5945(3)
C19A C 0.1738(3) 0.44473(12) 0.4055(3)
C19C C 0.3262(3) 0.44473(12) 0.5945(3)
H14B H 1.1248 1.0520 0.5540
H14A H 0.1248 0.4480 0.4460
H14C H 0.3752 0.4480 0.5540
C20B C 1.2474(3) 1.02839(10) 0.5846(3)
C20A C 0.2474(3) 0.47161(10) 0.4154(3)
C20C C 0.2526(3) 0.47161(10) 0.5846(3)
C21B C 1.3180(3) 1.03398(11) 0.6433(3)
C21A C 0.3180(3) 0.46602(11) 0.3567(3)
C21C C 0.1820(3) 0.46602(11) 0.6433(3)
H15B H 1.3692 1.0159 0.6370
H15A H 0.3692 0.4841 0.3630
H15C H 0.1308 0.4841 0.6370
C22B C 1.3163(3) 1.06531(13) 0.7113(3)
C22A C 0.3163(3) 0.43469(13) 0.2887(3)
C22C C 0.1837(3) 0.43469(13) 0.7113(3)
H16B H 1.3652 1.0684 0.7520
H16A H 0.3652 0.4316 0.2480
H16C H 0.1348 0.4316 0.7520
C23A C 0.2500 0.50303(14) 0.5000
Cu2_2 Cu 1.2500 1.2500 1.0000
Cu2_3 Cu 0.2500 0.2500 0.0000
Cu2_4 Cu 0.2500 0.2500 1.0000
loop_
_geom_bond_atom_site_label_1
_geom_bond_atom_site_label_2
_geom_bond_site_symmetry_1
_geom_bond_site_symmetry_2
Cu1 Cl1 1_555 1_555
N1 Cu1 1_555 1_555
C1 N1 1_555 1_555
H1 C1 1_555 1_555
C2 C1 1_555 1_555
H2 C2 1_555 1_555
C3 C2 1_555 1_555
C4 C3 1_555 1_555
H3 C4 1_555 1_555
C5 N1 1_555 1_555
H4 C5 1_555 1_555
C6 C3 1_555 1_555
C7 C6 1_555 1_555
H5 C7 1_555 1_555
C8 C7 1_555 1_555
H6 C8 1_555 1_555
C9 C8 1_555 1_555
C10 C9 1_555 1_555
H7 C10 1_555 1_555
C11 C6 1_555 1_555
H8 C11 1_555 1_555
N2 C12 1_555 1_555
C12 H9 1_555 1_555
C13 C12 1_555 1_555
H10 C13 1_555 1_555
C14 C13 1_555 1_555
C15 C14 1_555 1_555
H11 C15 1_555 1_555
C16 N2 1_555 1_555
H12 C16 1_555 1_555
C17 C14 1_555 1_555
C18 C17 1_555 1_555
H13 C18 1_555 1_555
C19 C18 1_555 1_555
H14 C19 1_555 1_555
C20 C19 1_555 1_555
C21 C20 1_555 1_555
H15 C21 1_555 1_555
C22 C17 1_555 1_555
H16 C22 1_555 1_555
C23 C9 1_555 1_555
Cu2 N2 1_555 1_555
Cu1_2 N1B 1_555 1_555
Cu1_3 N1C 1_555 1_555
Cl1B Cu1 1_555 1_555
N1B C1B 1_555 1_555
N1A Cu1 1_555 1_555
N1C C1C 1_555 1_555
N1B_2 Cu1 1_555 1_555
N1C_2 Cu1 1_555 1_555
C1B H1B 1_555 1_555
C1A N1A 1_555 1_555
C1C H1C 1_555 1_555
H1A C1A 1_555 1_555
C2B C1B 1_555 1_555
C2A C1A 1_555 1_555
C2C C1C 1_555 1_555
H2B C2B 1_555 1_555
H2A C2A 1_555 1_555
H2C C2C 1_555 1_555
C3B C2B 1_555 1_555
C3A C2A 1_555 1_555
C3C C2C 1_555 1_555
C4B C3B 1_555 1_555
C4A C3A 1_555 1_555
C4C C3C 1_555 1_555
H3B C4B 1_555 1_555
H3A C4A 1_555 1_555
H3C C4C 1_555 1_555
C5B N1B 1_555 1_555
C5A N1A 1_555 1_555
C5C N1C 1_555 1_555
H4B C5B 1_555 1_555
H4A C5A 1_555 1_555
H4C C5C 1_555 1_555
C6B C3B 1_555 1_555
C6A C3A 1_555 1_555
C6C C3C 1_555 1_555
C7B C6B 1_555 1_555
C7A C6A 1_555 1_555
C7C C6C 1_555 1_555
H5B C7B 1_555 1_555
H5A C7A 1_555 1_555
H5C C7C 1_555 1_555
C8B C7B 1_555 1_555
C8A C7A 1_555 1_555
C8C C7C 1_555 1_555
H6B C8B 1_555 1_555
H6A C8A 1_555 1_555
H6C C8C 1_555 1_555
C9B C23 1_555 1_555
C9A C8A 1_555 1_555
C9C C8C 1_555 1_555
C10B C9B 1_555 1_555
C10A C9A 1_555 1_555
C10C C9C 1_555 1_555
H7B C10B 1_555 1_555
H7A C10A 1_555 1_555
H7C C10C 1_555 1_555
C11B C6B 1_555 1_555
C11A C6A 1_555 1_555
C11C C6C 1_555 1_555
H8B C11B 1_555 1_555
H8A C11A 1_555 1_555
H8C C11C 1_555 1_555
N2B C12B 1_555 1_555
N2A C12A 1_555 1_555
N2C C12C 1_555 1_555
N2A_2 Cu2 1_555 1_555
N2B_2 Cu2 1_555 1_555
N2C_2 Cu2 1_555 1_555
C12B H9B 1_555 1_555
C12A H9A 1_555 1_555
C12C H9C 1_555 1_555
C13B C12B 1_555 1_555
C13A C12A 1_555 1_555
C13C C12C 1_555 1_555
H10B C13B 1_555 1_555
H10A C13A 1_555 1_555
H10C C13C 1_555 1_555
C14B C13B 1_555 1_555
C14A C13A 1_555 1_555
C14C C13C 1_555 1_555
C15B C14B 1_555 1_555
C15A C14A 1_555 1_555
C15C C14C 1_555 1_555
H11B C15B 1_555 1_555
H11A C15A 1_555 1_555
H11C C15C 1_555 1_555
C16B N2B 1_555 1_555
C16A N2A 1_555 1_555
C16C N2C 1_555 1_555
H12B C16B 1_555 1_555
H12A C16A 1_555 1_555
H12C C16C 1_555 1_555
C17B C14B 1_555 1_555
C17A C14A 1_555 1_555
C17C C14C 1_555 1_555
C18B C17B 1_555 1_555
C18A C17A 1_555 1_555
C18C C17C 1_555 1_555
H13B C18B 1_555 1_555
H13A C18A 1_555 1_555
H13C C18C 1_555 1_555
C19B C18B 1_555 1_555
C19A C18A 1_555 1_555
C19C C18C 1_555 1_555
H14B C19B 1_555 1_555
H14A C19A 1_555 1_555
H14C C19C 1_555 1_555
C20B C23 1_555 1_555
C20A C19A 1_555 1_555
C20C C19C 1_555 1_555
C21B C20B 1_555 1_555
C21A C20A 1_555 1_555
C21C C20C 1_555 1_555
H15B C21B 1_555 1_555
H15A C21A 1_555 1_555
H15C C21C 1_555 1_555
C22B C17B 1_555 1_555
C22A C17A 1_555 1_555
C22C C17C 1_555 1_555
H16B C22B 1_555 1_555
H16A C22A 1_555 1_555
H16C C22C 1_555 1_555
C23A C9A 1_555 1_555
Cu2_2 N2B 1_555 1_555
Cu2_3 N2A 1_555 1_555
Cu2_4 N2C 1_555 1_555
C4 C5 1_555 1_555
C10 C11 1_555 1_555
C15 C16 1_555 1_555
C20 C23 1_555 1_555
C21 C22 1_555 1_555
C4B C5B 1_555 1_555
C4A C5A 1_555 1_555
C4C C5C 1_555 1_555
C8B C9B 1_555 1_555
C9C C23A 1_555 1_555
C10B C11B 1_555 1_555
C10A C11A 1_555 1_555
C10C C11C 1_555 1_555
C15B C16B 1_555 1_555
C15A C16A 1_555 1_555
C15C C16C 1_555 1_555
C19B C20B 1_555 1_555
C20A C23A 1_555 1_555
C20C C23A 1_555 1_555
C21B C22B 1_555 1_555
C21A C22A 1_555 1_555
C21C C22C 1_555 1_555

#END
