
#######################################################################
#
#                 Cambridge Crystallographic Data Centre
#                                CCDC 
#
#######################################################################
#
# If this CIF has been generated from an entry in the Cambridge 
# Structural Database, then it will include bibliographic, chemical, 
# crystal, experimental, refinement or atomic coordinate data resulting 
# from the CCDC's data processing and validation procedures.
#
#######################################################################

data_IWELIG01
_symmetry_cell_setting           tetragonal
_symmetry_space_group_name_H-M   'I 41/a'
_symmetry_Int_Tables_number      88
_space_group_name_Hall           '-I 4ad'
loop_
_symmetry_equiv_pos_site_id
_symmetry_equiv_pos_as_xyz
1 x,y,z
2 1/2-x,-y,1/2+z
3 3/4-y,1/4+x,1/4+z
4 3/4+y,3/4-x,3/4+z
5 1/2+x,1/2+y,1/2+z
6 -x,1/2-y,z
7 1/4-y,3/4+x,3/4+z
8 1/4+y,1/4-x,1/4+z
9 -x,-y,-z
10 1/2+x,y,1/2-z
11 1/4+y,3/4-x,3/4-z
12 1/4-y,1/4+x,1/4-z
13 1/2-x,1/2-y,1/2-z
14 x,1/2+y,-z
15 3/4+y,1/4-x,1/4-z
16 3/4-y,3/4+x,3/4-z
_cell_length_a                   20.7387(5)
_cell_length_b                   20.7387(5)
_cell_length_c                   8.4495(4)
_cell_angle_alpha                90
_cell_angle_beta                 90
_cell_angle_gamma                90
_cell_volume                     3634.08
loop_
_atom_site_label
_atom_site_type_symbol
_atom_site_fract_x
_atom_site_fract_y
_atom_site_fract_z
Co1 Co 0.5000 0.5000 1.0000
Co2 Co 0.505259(18) 0.544916(19) 0.64087(5)
O1 O 0.55654(9) 0.54918(9) 0.8499(2)
O2 O 0.54149(11) 0.53204(11) 0.2127(3)
O3 O 0.55541(9) 0.47118(9) 0.5459(2)
N1 N 0.56491(14) 0.61045(13) 0.5224(3)
N2 N 0.64006(13) 0.69014(14) 0.5175(3)
N3 N 0.67255(13) 0.68178(14) 0.2429(3)
N4 N 0.61512(16) 0.60121(16) 0.1071(3)
H1 H 0.6086 0.5836 0.0164
C1 C 0.57908(15) 0.57849(15) 0.2349(4)
C2 C 0.59072(15) 0.61396(16) 0.3737(4)
C3 C 0.59581(17) 0.65652(17) 0.6017(4)
H2 H 0.5876 0.6651 0.7078
C4 C 0.63697(15) 0.66375(15) 0.3727(4)
C5 C 0.65985(19) 0.64916(19) 0.1147(4)
H3 H 0.6827 0.6592 0.0233
Co2H Co 0.494741(18) 0.455084(19) 0.35913(5)
O1H O 0.44346(9) 0.45082(9) 0.1501(2)
O2H O 0.45851(11) 0.46796(11) 0.7873(3)
O3H O 0.44459(9) 0.52882(9) 0.4541(2)
N1H N 0.43509(14) 0.38955(13) 0.4776(3)
N2H N 0.35994(13) 0.30986(14) 0.4825(3)
N3H N 0.32745(13) 0.31822(14) 0.7571(3)
N4H N 0.38488(16) 0.39879(16) 0.8929(3)
H1H H 0.3914 0.4164 0.9836
C1H C 0.42092(15) 0.42151(15) 0.7651(4)
C2H C 0.40928(15) 0.38604(16) 0.6263(4)
C3H C 0.40419(17) 0.34348(17) 0.3983(4)
H2H H 0.4124 0.3349 0.2922
C4H C 0.36303(15) 0.33625(15) 0.6273(4)
C5H C 0.34015(19) 0.35084(19) 0.8853(4)
H3H H 0.3173 0.3408 0.9767
Co1_2 Co 0.5000 0.5000 0.0000
Co1C Co 0.2500 0.2500 0.7500
Co1G Co 0.7500 0.7500 0.2500
Co2C Co 0.294916(19) 0.244741(18) 0.39087(5)
Co2K Co 0.705084(19) 0.755259(18) 0.60913(5)
O1H_2 O 0.44346(9) 0.45082(9) 1.1501(2)
O2_2 O 0.54149(11) 0.53204(11) 1.2127(3)
N2F N 0.55986(14) 0.39006(13) 0.2675(3)
N2N N 0.44014(14) 0.60994(13) 0.7325(3)
N3F N 0.56822(14) 0.42255(13) 0.9929(3)
N3N N 0.43178(14) 0.57745(13) 1.0071(3)
O4 O 0.6890(2) 0.4760(3) 0.5719(7)
H4 H 0.6876 0.4992 0.4890
H5 H 0.7224 0.4868 0.6241
loop_
_geom_bond_atom_site_label_1
_geom_bond_atom_site_label_2
_geom_bond_site_symmetry_1
_geom_bond_site_symmetry_2
Co1 O1 1_555 1_555
Co2 O1 1_555 1_555
O2 C1 1_555 1_555
O3 Co2 1_555 1_555
N1 Co2 1_555 1_555
N2 C3 1_555 1_555
N3 C4 1_555 1_555
N4 H1 1_555 1_555
C1 N4 1_555 1_555
C2 N1 1_555 1_555
C3 N1 1_555 1_555
H2 C3 1_555 1_555
C4 N2 1_555 1_555
C5 N3 1_555 1_555
H3 C5 1_555 1_555
O4 H4 1_555 1_555
H5 O4 1_555 1_555
Co2H O2 1_555 1_555
O1H Co2H 1_555 1_555
O2H Co1 1_555 1_555
O3H Co2 1_555 1_555
N1H Co2H 1_555 1_555
N2H C3H 1_555 1_555
N3H C4H 1_555 1_555
N4H H1H 1_555 1_555
C1H O2H 1_555 1_555
C2H N1H 1_555 1_555
C3H N1H 1_555 1_555
H2H C3H 1_555 1_555
C4H N2H 1_555 1_555
C5H N3H 1_555 1_555
H3H C5H 1_555 1_555
Co1_2 O2 1_555 1_555
Co1C N3H 1_555 1_555
Co1G N3 1_555 1_555
Co2C N2H 1_555 1_555
Co2K N2 1_555 1_555
O1H_2 Co1 1_555 1_555
O2_2 Co1 1_555 1_555
N2F Co2H 1_555 1_555
N2N Co2 1_555 1_555
N3F Co1 1_555 1_555
N3N Co1 1_555 1_555
Co2 O2H 1_555 1_555
O3 Co2H 1_555 1_555
N4 C5 1_555 1_555
C1 C2 1_555 1_555
C2 C4 1_555 1_555
Co2H O3H 1_555 1_555
O1H Co1_2 1_555 1_555
N4H C1H 1_555 1_555
N4H C5H 1_555 1_555
C1H C2H 1_555 1_555
C2H C4H 1_555 1_555

#END
