
#######################################################################
#
#                 Cambridge Crystallographic Data Centre
#                                CCDC 
#
#######################################################################
#
# If this CIF has been generated from an entry in the Cambridge 
# Structural Database, then it will include bibliographic, chemical, 
# crystal, experimental, refinement or atomic coordinate data resulting 
# from the CCDC's data processing and validation procedures.
#
#######################################################################

data_IWELIG
_symmetry_cell_setting           tetragonal
_symmetry_space_group_name_H-M   'I 41/a'
_symmetry_Int_Tables_number      88
_space_group_name_Hall           '-I 4ad'
loop_
_symmetry_equiv_pos_site_id
_symmetry_equiv_pos_as_xyz
1 x,y,z
2 1/2-x,-y,1/2+z
3 3/4-y,1/4+x,1/4+z
4 3/4+y,3/4-x,3/4+z
5 1/2+x,1/2+y,1/2+z
6 -x,1/2-y,z
7 1/4-y,3/4+x,3/4+z
8 1/4+y,1/4-x,1/4+z
9 -x,-y,-z
10 1/2+x,y,1/2-z
11 1/4+y,3/4-x,3/4-z
12 1/4-y,1/4+x,1/4-z
13 1/2-x,1/2-y,1/2-z
14 x,1/2+y,-z
15 3/4+y,1/4-x,1/4-z
16 3/4-y,3/4+x,3/4-z
_cell_length_a                   20.7548(10)
_cell_length_b                   20.7548(10)
_cell_length_c                   8.4682(8)
_cell_angle_alpha                90
_cell_angle_beta                 90
_cell_angle_gamma                90
_cell_volume                     3647.78
loop_
_atom_site_label
_atom_site_type_symbol
_atom_site_fract_x
_atom_site_fract_y
_atom_site_fract_z
Co1 Co 0.0000 1.0000 0.0000
Co2 Co -0.00536(4) 1.04483(4) -0.35924(10)
O1 O -0.0549(2) 0.9713(2) -0.4542(5)
O2 O -0.0568(2) 1.0488(2) -0.1512(5)
O3 O 0.0412(2) 0.9681(2) -0.2139(6)
N1 N 0.1153(3) 0.8981(3) -0.1084(7)
H1 H 0.1088 0.9156 -0.0178
N2 N 0.1727(3) 0.8181(3) -0.2439(7)
N3 N 0.0652(3) 0.8897(3) -0.5246(7)
N4 N 0.1401(3) 0.8099(3) -0.5179(7)
C1 C 0.1589(4) 0.8504(4) -0.1165(9)
H2 H 0.1808 0.8397 -0.0243
C2 C 0.1371(3) 0.8369(3) -0.3724(8)
C3 C 0.0914(3) 0.8867(3) -0.3744(8)
C4 C 0.0797(4) 0.9212(3) -0.2356(8)
C5 C 0.0958(4) 0.8434(4) -0.6022(9)
H3 H 0.0874 0.8345 -0.7078
Co1F Co 0.2500 0.7500 -0.2500
Co1B Co -0.2500 1.2500 0.2500
Co2H Co 0.00536(4) 0.95517(4) 0.35924(10)
Co2H_2 Co 0.00536(4) 0.95517(4) -0.64076(10)
Co2F Co 0.20517(4) 0.74464(4) -0.60924(10)
Co2_2 Co -0.00536(4) 1.04483(4) 0.64076(10)
Co2N Co -0.20517(4) 1.25536(4) 0.60924(10)
O1H O 0.0549(2) 1.0287(2) -0.5458(5)
O1H_2 O 0.0549(2) 1.0287(2) 0.4542(5)
O1_2 O -0.0549(2) 0.9713(2) 0.5458(5)
O2H O 0.0568(2) 0.9512(2) 0.1512(5)
O3H O -0.0412(2) 1.0319(2) 0.2139(6)
N1H N -0.1153(3) 1.1019(3) 0.1084(7)
H1H H -0.1088 1.0844 0.0178
N2H N -0.1727(3) 1.1819(3) 0.2439(7)
N2G N 0.0681(3) 1.0773(3) 0.0061(7)
N2O N -0.0681(3) 0.9227(3) -0.0061(7)
N3H N -0.0652(3) 1.1103(3) 0.5246(7)
N3H_2 N -0.0652(3) 1.1103(3) -0.4754(7)
N3_2 N 0.0652(3) 0.8897(3) 0.4754(7)
N4H N -0.1401(3) 1.1901(3) 0.5179(7)
N4G N 0.0599(3) 1.1099(3) -0.2679(7)
N4O N -0.0599(3) 0.8901(3) 0.2679(7)
C1H C -0.1589(4) 1.1496(4) 0.1165(9)
H2H H -0.1808 1.1603 0.0243
C2H C -0.1371(3) 1.1631(3) 0.3724(8)
C3H C -0.0914(3) 1.1133(3) 0.3744(8)
C4H C -0.0797(4) 1.0788(3) 0.2356(8)
C5H C -0.0958(4) 1.1566(4) 0.6022(9)
H3H H -0.0874 1.1655 0.7078
O4 O -0.1893(7) 0.9771(10) -0.452(3)
loop_
_geom_bond_atom_site_label_1
_geom_bond_atom_site_label_2
_geom_bond_site_symmetry_1
_geom_bond_site_symmetry_2
Co1 O2 1_555 1_555
Co2 O1 1_555 1_555
O1 Co2H_2 1_555 1_555
O2 Co2 1_555 1_555
O3 Co1 1_555 1_555
N1 H1 1_555 1_555
N2 C1 1_555 1_555
N3 C3 1_555 1_555
N4 C2 1_555 1_555
C1 N1 1_555 1_555
H2 C1 1_555 1_555
C2 N2 1_555 1_555
C3 C2 1_555 1_555
C4 O3 1_555 1_555
C5 N3 1_555 1_555
H3 C5 1_555 1_555
Co1F N2 1_555 1_555
Co1B N2H 1_555 1_555
Co2H O1H_2 1_555 1_555
Co2H_2 N3 1_555 1_555
Co2F N4 1_555 1_555
Co2_2 O1H_2 1_555 1_555
Co2N N4H 1_555 1_555
O1H Co2 1_555 1_555
O1_2 Co2H 1_555 1_555
O2H Co1 1_555 1_555
O3H Co1 1_555 1_555
N1H H1H 1_555 1_555
N2H C1H 1_555 1_555
N2G Co1 1_555 1_555
N2O Co1 1_555 1_555
N3H Co2_2 1_555 1_555
N3H_2 Co2 1_555 1_555
N3_2 Co2H 1_555 1_555
N4H C2H 1_555 1_555
N4G Co2 1_555 1_555
N4O Co2H 1_555 1_555
C1H N1H 1_555 1_555
H2H C1H 1_555 1_555
C2H N2H 1_555 1_555
C3H N3H 1_555 1_555
C4H O3H 1_555 1_555
C5H N3H 1_555 1_555
H3H C5H 1_555 1_555
Co2 O3 1_555 1_555
N1 C4 1_555 1_555
N4 C5 1_555 1_555
C3 C4 1_555 1_555
Co2H O2H 1_555 1_555
Co2H O3H 1_555 1_555
Co2H_2 O1H 1_555 1_555
Co2_2 O1_2 1_555 1_555
N1H C4H 1_555 1_555
N4H C5H 1_555 1_555
C2H C3H 1_555 1_555
C3H C4H 1_555 1_555

#END
