
#######################################################################
#
#                 Cambridge Crystallographic Data Centre
#                                CCDC 
#
#######################################################################
#
# If this CIF has been generated from an entry in the Cambridge 
# Structural Database, then it will include bibliographic, chemical, 
# crystal, experimental, refinement or atomic coordinate data resulting 
# from the CCDC's data processing and validation procedures.
#
#######################################################################

data_IWESIN
_symmetry_cell_setting           triclinic
_symmetry_space_group_name_H-M   'P -1'
_symmetry_Int_Tables_number      2
_space_group_name_Hall           '-P 1'
loop_
_symmetry_equiv_pos_site_id
_symmetry_equiv_pos_as_xyz
1 x,y,z
2 -x,-y,-z
_cell_length_a                   10.3512(16)
_cell_length_b                   16.2520(15)
_cell_length_c                   19.239(2)
_cell_angle_alpha                72.012(9)
_cell_angle_beta                 82.716(11)
_cell_angle_gamma                72.597(11)
_cell_volume                     2935.31
loop_
_atom_site_label
_atom_site_type_symbol
_atom_site_fract_x
_atom_site_fract_y
_atom_site_fract_z
C1 C 0.3094(8) 0.7998(5) 0.9218(4)
H1 H 0.4044 0.7830 0.9118
C2 C 0.0829(9) 0.8483(5) 0.8762(5)
H2 H 0.0588 0.8414 0.9282
H3 H 0.0443 0.8100 0.8592
H4 H 0.0467 0.9113 0.8482
C3 C 0.2821(14) 0.8287(12) 0.7911(6)
H5 H 0.3804 0.8193 0.7894
H6 H 0.2394 0.8886 0.7593
H7 H 0.2622 0.7828 0.7743
N1 N 0.2293(7) 0.8218(5) 0.8659(3)
O1 O 0.2715(6) 0.7993(4) 0.9847(3)
C4 C 0.3645(14) 0.4324(8) 0.1951(6)
C5 C 0.4557(19) 0.3525(10) 0.3132(8)
C6 C 0.483(2) 0.5058(10) 0.2451(10)
N2 N 0.4290(11) 0.4313(7) 0.2484(5)
O2 O 0.3401(16) 0.4966(9) 0.1387(6)
C7 C 0.7584(6) -0.1412(4) 0.0459(3)
H8 H 0.8104 -0.1907 0.0853
H9 H 0.7517 -0.1668 0.0064
C8 C 0.7876(6) -0.0080(4) -0.0504(3)
H10 H 0.7811 -0.0392 -0.0861
H11 H 0.8576 0.0244 -0.0697
C9 C 0.3952(6) -0.1237(4) 0.1149(3)
H12 H 0.3886 -0.0919 0.1522
H13 H 0.3403 -0.1671 0.1328
C10 C 0.5414(6) -0.1732(4) 0.1031(3)
H14 H 0.5781 -0.2165 0.1497
H15 H 0.5482 -0.2069 0.0672
C11 C 0.8568(6) -0.0364(4) 0.0728(3)
H16 H 0.7690 -0.0043 0.0917
H17 H 0.9088 0.0080 0.0497
C12 C 0.9346(6) -0.1080(4) 0.1361(4)
C13 C 1.0498(7) -0.1744(4) 0.1237(4)
H18 H 1.0790 -0.1747 0.0749
C14 C 1.1223(8) -0.2399(5) 0.1812(4)
H19 H 1.2000 -0.2852 0.1727
C15 C 1.0778(9) -0.2366(5) 0.2506(4)
C16 C 0.9649(10) -0.1720(5) 0.2661(4)
H20 H 0.9382 -0.1714 0.3151
C17 C 0.8927(8) -0.1087(5) 0.2081(4)
H21 H 0.8134 -0.0650 0.2174
C18 C 0.6626(8) 0.1236(5) 0.4120(4)
H22 H 0.5922 0.1492 0.3749
H23 H 0.7070 0.1708 0.4090
C19 C 0.7132(8) -0.0189(5) 0.3801(3)
H24 H 0.7898 -0.0599 0.3603
H25 H 0.6448 0.0111 0.3420
C20 C 0.4068(9) 0.1393(5) 0.5701(4)
H26 H 0.3331 0.1891 0.5813
H27 H 0.4644 0.1091 0.6131
C21 C 0.4916(9) 0.1763(5) 0.5030(4)
H28 H 0.4329 0.2101 0.4608
H29 H 0.5352 0.2176 0.5132
C22 C 0.8827(8) 0.0128(6) 0.4376(4)
H30 H 0.8646 -0.0308 0.4840
H31 H 0.9021 0.0626 0.4500
C23 C 1.0068(8) -0.0336(6) 0.3989(4)
C24 C 1.0539(9) 0.0137(7) 0.3320(5)
H32 H 1.0074 0.0749 0.3104
C25 C 1.1677(11) -0.0276(8) 0.2970(6)
H33 H 1.1980 0.0039 0.2505
C26 C 1.2324(11) -0.1099(8) 0.3284(6)
C27 C 1.1935(10) -0.1626(7) 0.3949(5)
H34 H 1.2435 -0.2231 0.4160
C28 C 1.0755(8) -0.1204(6) 0.4290(4)
H35 H 1.0430 -0.1534 0.4741
C29 C 0.0280(8) 0.6463(5) 0.0532(4)
H36 H 0.0878 0.6732 0.0701
H37 H -0.0145 0.6903 0.0082
C30 C -0.1925(9) 0.6138(4) 0.0870(4)
H38 H -0.2278 0.6615 0.0420
H39 H -0.2649 0.6172 0.1258
C31 C 0.2765(9) 0.4929(5) -0.0473(5)
H40 H 0.3198 0.4413 -0.0064
H41 H 0.3452 0.5024 -0.0875
C32 C 0.2194(9) 0.5771(5) -0.0221(4)
H42 H 0.2925 0.5901 -0.0025
H43 H 0.1816 0.6291 -0.0641
N3 N -0.0775(8) 0.6313(4) 0.1090(3)
C33 C -0.0532(11) 0.5793(8) 0.1867(4)
H44 H -0.0316 0.5148 0.1893
H45 H 0.0296 0.5889 0.1997
C34 C -0.1544(9) 0.5945(5) 0.2432(4)
C35 C -0.2182(10) 0.6815(5) 0.2468(4)
H46 H -0.1961 0.7312 0.2113
C36 C -0.3143(10) 0.6958(5) 0.3024(5)
H47 H -0.3579 0.7553 0.3048
C37 C -0.3466(9) 0.6230(7) 0.3544(4)
C38 C -0.2828(10) 0.5360(6) 0.3508(4)
H48 H -0.3049 0.4862 0.3863
C39 C -0.1867(10) 0.5217(4) 0.2952(5)
H49 H -0.1431 0.4622 0.2928
F1 F -0.4373(11) 0.6364(7) 0.4094(5)
C40 C 0.4723(6) 0.0681(4) 0.1375(3)
C41 C 0.3754(7) 0.1292(4) 0.1779(3)
C42 C 0.3813(7) 0.1068(4) 0.2533(3)
H50 H 0.4495 0.0555 0.2776
C43 C 0.2906(7) 0.1567(4) 0.2939(3)
C44 C 0.3017(9) 0.1273(5) 0.3767(4)
C45 C 0.1901(8) 0.2312(4) 0.2585(3)
H51 H 0.1252 0.2648 0.2862
C46 C 0.1839(7) 0.2571(4) 0.1822(3)
C47 C 0.0755(8) 0.3390(4) 0.1438(4)
C48 C 0.2773(7) 0.2051(4) 0.1431(3)
H52 H 0.2737 0.2220 0.0913
Ni1 Ni 0.5000 0.0000 0.0000
F2 F 1.1464(7) -0.3016(4) 0.3080(3)
F3 F 1.3512(7) -0.1525(6) 0.2961(4)
N4 N 0.6187(5) -0.1061(3) 0.0755(2)
H53 H 0.6271 -0.0855 0.1143
N5 N 0.8321(5) -0.0749(3) 0.0176(3)
N6 N 0.3436(5) -0.0586(3) 0.0457(2)
H54 H 0.3334 -0.0910 0.0154
N7 N 0.5958(6) 0.0997(4) 0.4860(3)
H55 H 0.6621 0.0786 0.5205
N8 N 0.7618(6) 0.0487(4) 0.3946(3)
N9 N 0.3485(6) 0.0737(4) 0.5542(3)
H56 H 0.2798 0.1067 0.5215
N10 N 0.1122(7) 0.5635(4) 0.0349(3)
H57 H 0.1539 0.5238 0.0773
N11 N -0.1616(7) 0.5250(4) 0.0730(3)
H58 H -0.1379 0.4817 0.1174
Ni2 Ni 0.5000 0.0000 0.5000
Ni3 Ni 0.0000 0.5000 0.0000
O3 O 0.4473(4) 0.0840(3) 0.0708(2)
O4 O 0.5655(5) 0.0066(3) 0.1715(2)
O5 O 0.4041(5) 0.0643(3) 0.4002(2)
O6 O 0.2158(6) 0.1689(4) 0.4145(2)
O7 O 0.1012(5) 0.3753(3) 0.0770(2)
O8 O -0.0293(6) 0.3649(3) 0.1806(3)
C7A C 0.2416(6) 0.1412(4) -0.0459(3)
H8A H 0.1896 0.1907 -0.0853
H9A H 0.2483 0.1668 -0.0064
C8A C 0.2124(6) 0.0080(4) 0.0504(3)
H10A H 0.2189 0.0392 0.0861
H11A H 0.1424 -0.0244 0.0697
C9A C 0.6048(6) 0.1237(4) -0.1149(3)
H12A H 0.6114 0.0919 -0.1522
H13A H 0.6597 0.1671 -0.1328
C10A C 0.4586(6) 0.1732(4) -0.1031(3)
H14A H 0.4219 0.2165 -0.1497
H15A H 0.4518 0.2069 -0.0672
C11A C 0.1432(6) 0.0364(4) -0.0728(3)
H16A H 0.2310 0.0043 -0.0917
H17A H 0.0912 -0.0080 -0.0497
C12A C 0.0654(6) 0.1080(4) -0.1361(4)
C13A C -0.0498(7) 0.1744(4) -0.1237(4)
H18A H -0.0790 0.1747 -0.0749
C14A C -0.1223(8) 0.2399(5) -0.1812(4)
H19A H -0.2000 0.2852 -0.1727
C15A C -0.0778(9) 0.2366(5) -0.2506(4)
C16A C 0.0351(10) 0.1720(5) -0.2661(4)
H20A H 0.0618 0.1714 -0.3151
C17A C 0.1073(8) 0.1087(5) -0.2081(4)
H21A H 0.1866 0.0650 -0.2174
C18A C 0.3374(8) -0.1236(5) 0.5880(4)
H22A H 0.4078 -0.1492 0.6251
H23A H 0.2930 -0.1708 0.5910
C19A C 0.2868(8) 0.0189(5) 0.6199(3)
H24A H 0.2102 0.0599 0.6397
H25A H 0.3552 -0.0111 0.6580
C20A C 0.5932(9) -0.1393(5) 0.4299(4)
H26A H 0.6669 -0.1891 0.4187
H27A H 0.5356 -0.1091 0.3869
C21A C 0.5084(9) -0.1763(5) 0.4970(4)
H28A H 0.5671 -0.2101 0.5392
H29A H 0.4648 -0.2176 0.4868
C22A C 0.1173(8) -0.0128(6) 0.5624(4)
H30A H 0.1354 0.0308 0.5160
H31A H 0.0979 -0.0626 0.5500
C23A C -0.0068(8) 0.0336(6) 0.6011(4)
C24A C -0.0539(9) -0.0137(7) 0.6680(5)
H32A H -0.0074 -0.0749 0.6896
C25A C -0.1677(11) 0.0276(8) 0.7030(6)
H33A H -0.1980 -0.0039 0.7495
C26A C -0.2324(11) 0.1099(8) 0.6716(6)
C27A C -0.1935(10) 0.1626(7) 0.6051(5)
H34A H -0.2435 0.2231 0.5840
C28A C -0.0755(8) 0.1204(6) 0.5710(4)
H35A H -0.0430 0.1534 0.5259
C29A C -0.0280(8) 0.3537(5) -0.0532(4)
H36A H -0.0878 0.3268 -0.0701
H37A H 0.0145 0.3097 -0.0082
C30A C 0.1925(9) 0.3862(4) -0.0870(4)
H38A H 0.2278 0.3385 -0.0420
H39A H 0.2649 0.3828 -0.1258
C31A C -0.2765(9) 0.5071(5) 0.0473(5)
H40A H -0.3198 0.5587 0.0064
H41A H -0.3452 0.4976 0.0875
C32A C -0.2194(9) 0.4229(5) 0.0221(4)
H42A H -0.2925 0.4099 0.0025
H43A H -0.1816 0.3709 0.0641
N3A N 0.0775(8) 0.3687(4) -0.1090(3)
C33A C 0.0532(11) 0.4207(8) -0.1867(4)
H44A H 0.0316 0.4852 -0.1893
H45A H -0.0296 0.4111 -0.1997
C34A C 0.1544(9) 0.4055(5) -0.2432(4)
C35A C 0.2182(10) 0.3185(5) -0.2468(4)
H46A H 0.1961 0.2688 -0.2113
C36A C 0.3143(10) 0.3042(5) -0.3024(5)
H47A H 0.3579 0.2447 -0.3048
C37A C 0.3466(9) 0.3770(7) -0.3544(4)
C38A C 0.2828(10) 0.4640(6) -0.3508(4)
H48A H 0.3049 0.5138 -0.3863
C39A C 0.1867(10) 0.4783(4) -0.2952(5)
H49A H 0.1431 0.5378 -0.2928
F1A F 0.4373(11) 0.3636(7) -0.4094(5)
C40A C 0.5277(6) -0.0681(4) -0.1375(3)
C41A C 0.6246(7) -0.1292(4) -0.1779(3)
C42A C 0.6187(7) -0.1068(4) -0.2533(3)
H50A H 0.5505 -0.0555 -0.2776
C43A C 0.7094(7) -0.1567(4) -0.2939(3)
C44A C 0.6983(9) -0.1273(5) -0.3767(4)
C45A C 0.8099(8) -0.2312(4) -0.2585(3)
H51A H 0.8748 -0.2648 -0.2862
C46A C 0.8161(7) -0.2571(4) -0.1822(3)
C47A C 0.9245(8) -0.3390(4) -0.1438(4)
C48A C 0.7227(7) -0.2051(4) -0.1431(3)
H52A H 0.7263 -0.2220 -0.0913
F2A F -0.1464(7) 0.3016(4) -0.3080(3)
F3A F -0.3512(7) 0.1525(6) 0.7039(4)
N4A N 0.3813(5) 0.1061(3) -0.0755(2)
H53A H 0.3729 0.0855 -0.1143
N5A N 0.1679(5) 0.0749(3) -0.0176(3)
N6A N 0.6564(5) 0.0586(3) -0.0457(2)
H54A H 0.6666 0.0910 -0.0154
N7A N 0.4042(6) -0.0997(4) 0.5140(3)
H55A H 0.3379 -0.0786 0.4795
N8A N 0.2382(6) -0.0487(4) 0.6054(3)
N9A N 0.6515(6) -0.0737(4) 0.4458(3)
H56A H 0.7202 -0.1067 0.4785
N10A N -0.1122(7) 0.4365(4) -0.0349(3)
H57A H -0.1539 0.4762 -0.0773
N11A N 0.1616(7) 0.4750(4) -0.0730(3)
H58A H 0.1379 0.5183 -0.1174
Ni2_2 Ni 0.5000 0.0000 -0.5000
Ni3_2 Ni 1.0000 -0.5000 0.0000
O3A O 0.5527(4) -0.0840(3) -0.0708(2)
O4A O 0.4345(5) -0.0066(3) -0.1715(2)
O5A O 0.5959(5) -0.0643(3) -0.4002(2)
O5A_2 O 0.5959(5) -0.0643(3) 0.5998(2)
O6A O 0.7842(6) -0.1689(4) -0.4145(2)
O7A O 0.8988(5) -0.3753(3) -0.0770(2)
O7A_2 O -0.1012(5) 0.6247(3) -0.0770(2)
O8A O 1.0293(6) -0.3649(3) -0.1806(3)
O9 O 0.8166(7) 0.2954(5) 0.3013(5)
H59 H 0.7393 0.3471 0.3042
H60 H 0.8683 0.3185 0.2669
O10 O 0.9720(8) 0.2935(7) 0.4138(4)
H61 H 0.9607 0.2626 0.3874
H62 H 1.0474 0.2672 0.4347
O11 O 0.711(2) 0.3263(12) 0.4729(11)
H63 H 0.7892 0.2945 0.4633
H64 H 0.6815 0.3682 0.4343
O12 O 0.4302(9) 0.6586(6) 0.0958(5)
H65 H 0.3957 0.6151 0.1026
H66 H 0.3821 0.7057 0.0664
C49 C 0.023(3) 0.517(2) 0.4402(15)
C50 C 0.244(3) 0.527(3) 0.453(3)
C51 C 0.035(5) 0.648(2) 0.467(3)
N12 N 0.098(3) 0.5609(19) 0.4520(14)
O14 O -0.072(3) 0.6428(16) 0.4751(15)
O13? O 0.073(3) 0.442(2) 0.4279(18)
C52? C -0.006(2) 0.6155(14) 0.4232(13)
C53? C 0.075(4) 0.4675(17) 0.5035(14)
C54? C 0.141(3) 0.504(2) 0.3703(15)
N13? N 0.0658(19) 0.5343(14) 0.4314(12)
C55? C 0.5640(15) 0.5068(10) 0.2973(8)
C56? C 0.436(2) 0.6585(9) 0.2888(12)
C57? C 0.426(2) 0.5336(14) 0.4028(8)
N14? N 0.4797(14) 0.5624(8) 0.3277(7)
O15? O 0.6075(15) 0.4246(9) 0.3284(8)
C58? C -0.0037(14) 0.5765(10) 0.1777(5)
C59? C -0.0879(13) 0.5858(7) 0.2415(5)
C60? C -0.1603(14) 0.6712(6) 0.2460(6)
C61? C -0.2370(14) 0.6815(7) 0.3091(7)
C62? C -0.2412(13) 0.6063(8) 0.3677(5)
C63? C -0.1687(14) 0.5209(7) 0.3631(5)
C64? C -0.0921(13) 0.5107(6) 0.3000(6)
C65? C 0.2792(16) 0.4832(9) 0.2328(8)
C66? C 0.448(2) 0.3548(13) 0.2115(11)
C67? C 0.343(3) 0.3535(13) 0.3359(7)
F4? F -0.3154(14) 0.6175(9) 0.4294(7)
H67? H 0.0264 0.5124 0.1786
H68? H 0.0779 0.5961 0.1782
H69? H -0.1574 0.7226 0.2060
H70? H -0.2865 0.7398 0.3122
H71? H -0.1716 0.4696 0.4031
H72? H -0.0426 0.4523 0.2969
N15? N 0.3513(16) 0.4021(8) 0.2584(7)
N16? N -0.0775(8) 0.6313(4) 0.1090(3)
O16? O 0.283(2) 0.5275(11) 0.1674(9)
loop_
_geom_bond_atom_site_label_1
_geom_bond_atom_site_label_2
_geom_bond_site_symmetry_1
_geom_bond_site_symmetry_2
C1 H1 1_555 1_555
C2 H2 1_555 1_555
H3 C2 1_555 1_555
H4 C2 1_555 1_555
C3 H5 1_555 1_555
H6 C3 1_555 1_555
H7 C3 1_555 1_555
N1 C1 1_555 1_555
O1 C1 1_555 1_555
C4 N2 1_555 1_555
C5 N2 1_555 1_555
C6 N2 1_555 1_555
O2 C4 1_555 1_555
C7 H8 1_555 1_555
H9 C7 1_555 1_555
C8 H10 1_555 1_555
H11 C8 1_555 1_555
C9 H12 1_555 1_555
H13 C9 1_555 1_555
C10 C9 1_555 1_555
H14 C10 1_555 1_555
H15 C10 1_555 1_555
C11 H16 1_555 1_555
H17 C11 1_555 1_555
C12 C11 1_555 1_555
C13 C12 1_555 1_555
H18 C13 1_555 1_555
C14 C13 1_555 1_555
H19 C14 1_555 1_555
C15 C14 1_555 1_555
C16 C15 1_555 1_555
H20 C16 1_555 1_555
C17 C12 1_555 1_555
H21 C17 1_555 1_555
C18 H22 1_555 1_555
H23 C18 1_555 1_555
C19 H24 1_555 1_555
H25 C19 1_555 1_555
C20 H26 1_555 1_555
H27 C20 1_555 1_555
C21 C20 1_555 1_555
H28 C21 1_555 1_555
H29 C21 1_555 1_555
C22 H30 1_555 1_555
H31 C22 1_555 1_555
C23 C22 1_555 1_555
C24 C23 1_555 1_555
H32 C24 1_555 1_555
C25 C24 1_555 1_555
H33 C25 1_555 1_555
C26 C25 1_555 1_555
C27 C26 1_555 1_555
H34 C27 1_555 1_555
C28 C23 1_555 1_555
H35 C28 1_555 1_555
C29 H36 1_555 1_555
H37 C29 1_555 1_555
C30 H38 1_555 1_555
H39 C30 1_555 1_555
C31 H40 1_555 1_555
H41 C31 1_555 1_555
C32 C31 1_555 1_555
H42 C32 1_555 1_555
H43 C32 1_555 1_555
N3 C29 1_555 1_555
C33 N3 1_555 1_555
H44 C33 1_555 1_555
H45 C33 1_555 1_555
C34 C33 1_555 1_555
C35 C34 1_555 1_555
H46 C35 1_555 1_555
C36 C35 1_555 1_555
H47 C36 1_555 1_555
C37 C36 1_555 1_555
C38 C37 1_555 1_555
H48 C38 1_555 1_555
C39 C34 1_555 1_555
H49 C39 1_555 1_555
F1 C37 1_555 1_555
C40 C41 1_555 1_555
C41 C42 1_555 1_555
C42 H50 1_555 1_555
C43 C42 1_555 1_555
C44 C43 1_555 1_555
C45 C43 1_555 1_555
H51 C45 1_555 1_555
C46 C45 1_555 1_555
C47 C46 1_555 1_555
C48 C41 1_555 1_555
H52 C48 1_555 1_555
Ni1 N4 1_555 1_555
F2 C15 1_555 1_555
F3 C26 1_555 1_555
N4 C7 1_555 1_555
H53 N4 1_555 1_555
N5 C7 1_555 1_555
N6 C9 1_555 1_555
H54 N6 1_555 1_555
N7 C18 1_555 1_555
H55 N7 1_555 1_555
N8 C18 1_555 1_555
N9 C20 1_555 1_555
H56 N9 1_555 1_555
N10 C29 1_555 1_555
H57 N10 1_555 1_555
N11 C30 1_555 1_555
H58 N11 1_555 1_555
Ni2 N7 1_555 1_555
Ni3 N10 1_555 1_555
O3 C40 1_555 1_555
O4 C40 1_555 1_555
O5 C44 1_555 1_555
O6 C44 1_555 1_555
O7 C47 1_555 1_555
O8 C47 1_555 1_555
O9 H59 1_555 1_555
H60 O9 1_555 1_555
O10 H61 1_555 1_555
H62 O10 1_555 1_555
O11 H63 1_555 1_555
H64 O11 1_555 1_555
O12 H65 1_555 1_555
H66 O12 1_555 1_555
C49 N12 1_555 1_555
C50 N12 1_555 1_555
C51 N12 1_555 1_555
O14 C51 1_555 1_555
C7A H8A 1_555 1_555
H9A C7A 1_555 1_555
C8A N6 1_555 1_555
H10A C8A 1_555 1_555
H11A C8A 1_555 1_555
C9A H12A 1_555 1_555
H13A C9A 1_555 1_555
C10A C9A 1_555 1_555
H14A C10A 1_555 1_555
H15A C10A 1_555 1_555
C11A H16A 1_555 1_555
H17A C11A 1_555 1_555
C12A C11A 1_555 1_555
C13A C12A 1_555 1_555
H18A C13A 1_555 1_555
C14A C13A 1_555 1_555
H19A C14A 1_555 1_555
C15A C14A 1_555 1_555
C16A C15A 1_555 1_555
H20A C16A 1_555 1_555
C17A C12A 1_555 1_555
H21A C17A 1_555 1_555
C18A H22A 1_555 1_555
H23A C18A 1_555 1_555
C19A N9 1_555 1_555
H24A C19A 1_555 1_555
H25A C19A 1_555 1_555
C20A H26A 1_555 1_555
H27A C20A 1_555 1_555
C21A C20A 1_555 1_555
H28A C21A 1_555 1_555
H29A C21A 1_555 1_555
C22A H30A 1_555 1_555
H31A C22A 1_555 1_555
C23A C22A 1_555 1_555
C24A C23A 1_555 1_555
H32A C24A 1_555 1_555
C25A C24A 1_555 1_555
H33A C25A 1_555 1_555
C26A C25A 1_555 1_555
C27A C26A 1_555 1_555
H34A C27A 1_555 1_555
C28A C23A 1_555 1_555
H35A C28A 1_555 1_555
C29A H36A 1_555 1_555
H37A C29A 1_555 1_555
C30A H38A 1_555 1_555
H39A C30A 1_555 1_555
C31A N11 1_555 1_555
H40A C31A 1_555 1_555
H41A C31A 1_555 1_555
C32A C31A 1_555 1_555
H42A C32A 1_555 1_555
H43A C32A 1_555 1_555
N3A C29A 1_555 1_555
C33A N3A 1_555 1_555
H44A C33A 1_555 1_555
H45A C33A 1_555 1_555
C34A C33A 1_555 1_555
C35A C34A 1_555 1_555
H46A C35A 1_555 1_555
C36A C35A 1_555 1_555
H47A C36A 1_555 1_555
C37A C36A 1_555 1_555
C38A C37A 1_555 1_555
H48A C38A 1_555 1_555
C39A C34A 1_555 1_555
H49A C39A 1_555 1_555
F1A C37A 1_555 1_555
C40A C41A 1_555 1_555
C41A C42A 1_555 1_555
C42A H50A 1_555 1_555
C43A C42A 1_555 1_555
C44A C43A 1_555 1_555
C45A C43A 1_555 1_555
H51A C45A 1_555 1_555
C46A C45A 1_555 1_555
C47A C46A 1_555 1_555
C48A C41A 1_555 1_555
H52A C48A 1_555 1_555
F2A C15A 1_555 1_555
F3A C26A 1_555 1_555
N4A Ni1 1_555 1_555
H53A N4A 1_555 1_555
N5A C7A 1_555 1_555
N6A C8 1_555 1_555
H54A N6A 1_555 1_555
N7A Ni2 1_555 1_555
H55A N7A 1_555 1_555
N8A C18A 1_555 1_555
N9A C19 1_555 1_555
H56A N9A 1_555 1_555
N10A Ni3 1_555 1_555
H57A N10A 1_555 1_555
N11A C31 1_555 1_555
H58A N11A 1_555 1_555
Ni2_2 O5A 1_555 1_555
Ni3_2 O7A 1_555 1_555
O3A Ni1 1_555 1_555
O4A C40A 1_555 1_555
O5A C44A 1_555 1_555
O5A_2 Ni2 1_555 1_555
O6A C44A 1_555 1_555
O7A C47A 1_555 1_555
O7A_2 Ni3 1_555 1_555
O8A C47A 1_555 1_555
C2 N1 1_555 1_555
C3 N1 1_555 1_555
C8 N5 1_555 1_555
C10 N4 1_555 1_555
C11 N5 1_555 1_555
C16 C17 1_555 1_555
C19 N8 1_555 1_555
C21 N7 1_555 1_555
C22 N8 1_555 1_555
C27 C28 1_555 1_555
C30 N3 1_555 1_555
C32 N10 1_555 1_555
C38 C39 1_555 1_555
C46 C48 1_555 1_555
Ni1 N6 1_555 1_555
Ni1 O3 1_555 1_555
Ni1 N6A 1_555 1_555
N9 Ni2 1_555 1_555
N11 Ni3 1_555 1_555
Ni2 O5 1_555 1_555
Ni2 N9A 1_555 1_555
Ni3 O7 1_555 1_555
Ni3 N11A 1_555 1_555
C7A N4A 1_555 1_555
C8A N5A 1_555 1_555
C9A N6A 1_555 1_555
C10A N4A 1_555 1_555
C11A N5A 1_555 1_555
C16A C17A 1_555 1_555
C18A N7A 1_555 1_555
C19A N8A 1_555 1_555
C20A N9A 1_555 1_555
C21A N7A 1_555 1_555
C22A N8A 1_555 1_555
C27A C28A 1_555 1_555
C29A N10A 1_555 1_555
C30A N3A 1_555 1_555
C30A N11A 1_555 1_555
C32A N10A 1_555 1_555
C38A C39A 1_555 1_555
C40A O3A 1_555 1_555
C46A C48A 1_555 1_555

#END
