
#######################################################################
#
#                 Cambridge Crystallographic Data Centre
#                                CCDC 
#
#######################################################################
#
# If this CIF has been generated from an entry in the Cambridge 
# Structural Database, then it will include bibliographic, chemical, 
# crystal, experimental, refinement or atomic coordinate data resulting 
# from the CCDC's data processing and validation procedures.
#
#######################################################################

data_IWOSAP
_symmetry_cell_setting           triclinic
_symmetry_space_group_name_H-M   'P -1'
_symmetry_Int_Tables_number      2
_space_group_name_Hall           '-P 1'
loop_
_symmetry_equiv_pos_site_id
_symmetry_equiv_pos_as_xyz
1 x,y,z
2 -x,-y,-z
_cell_length_a                   7.6112(18)
_cell_length_b                   11.927(3)
_cell_length_c                   12.130(3)
_cell_angle_alpha                67.602(4)
_cell_angle_beta                 89.920(4)
_cell_angle_gamma                80.498(4)
_cell_volume                     1001.82
loop_
_atom_site_label
_atom_site_type_symbol
_atom_site_fract_x
_atom_site_fract_y
_atom_site_fract_z
Ho1 Ho -0.00753(11) 0.85483(9) 0.35481(8)
Ho2 Ho 0.49254(11) 0.85507(9) 0.25380(8)
O1 O 0.461(2) 0.6453(14) 0.2621(13)
O2 O 0.2735(18) 0.7250(12) 0.3591(11)
O3 O 0.2827(18) 0.8886(12) 0.1001(11)
O4 O 0.2188(18) 1.1065(12) 0.5160(11)
O5 O 0.4856(19) 1.1483(13) 0.5398(12)
O6 O 0.2364(17) 0.9769(12) 0.2880(11)
O7 O -0.0108(18) 1.0659(13) 0.3288(11)
O8 O 0.0375(18) 0.3497(12) 0.4945(12)
O9 O 0.2311(17) 0.2730(12) 0.6509(11)
O10 O 0.1722(19) 0.8253(13) 0.5288(12)
O11 O 0.6720(18) 0.8231(12) 0.1052(12)
O12 O 0.2602(19) 1.0235(13) -0.2268(12)
O13 O 0.5153(18) 0.9298(13) -0.1160(12)
C1 C 0.360(2) 0.9273(17) -0.1464(16)
C2 C 0.274(2) 0.8118(16) -0.0869(15)
H1 H 0.3626 0.7476 -0.0305
H2 H 0.2445 0.7830 -0.1481
C3 C 0.107(3) 0.828(2) -0.0214(17)
H3 H 0.0189 0.8935 -0.0767
H4 H 0.0574 0.7524 0.0031
C4 C 0.365(3) 1.1393(18) 0.4796(17)
C5 C 0.224(3) 1.1904(18) 0.2707(17)
H5 H 0.1345 1.2529 0.2807
H6 H 0.2534 1.2204 0.1877
C6 C 0.395(3) 1.170(2) 0.3516(17)
H7 H 0.4820 1.1044 0.3444
H8 H 0.4466 1.2447 0.3219
C7 C 0.148(3) 1.074(2) 0.2994(19)
O14 O 0.020(2) 0.8452(14) 0.1608(13)
C8 C 0.331(3) 0.636(2) 0.3231(19)
C9 C 0.137(3) 0.8572(19) 0.0905(18)
C10 C 0.178(2) 0.3562(18) 0.5488(17)
C11 C 0.294(3) 0.455(2) 0.4917(19)
H9 H 0.2863 0.5092 0.5349
H10 H 0.4179 0.4155 0.4981
C12 C 0.234(3) 0.5319(18) 0.3591(17)
H11 H 0.2648 0.4831 0.3113
H12 H 0.1064 0.5610 0.3493
Ho1A Ho 0.00753(11) 1.14517(9) 0.64519(8)
Ho1A_2 Ho 0.00753(11) 0.14517(9) 0.64519(8)
Ho1A_3 Ho 0.00753(11) 1.14517(9) -0.35481(8)
Ho2A Ho 0.50746(11) 1.14493(9) 0.74620(8)
Ho2A_2 Ho 0.50746(11) 0.14493(9) 0.74620(8)
Ho2A_3 Ho 0.50746(11) 1.14493(9) -0.25380(8)
O4A O -0.2188(18) 0.8935(12) 0.4840(11)
O5A O 0.5144(19) 0.8517(13) 0.4602(12)
O8A O -0.0375(18) 0.6503(12) 0.5055(12)
O9A O -0.2311(17) 0.7270(12) 0.3491(11)
O9A_2 O 0.7689(17) 0.7270(12) 0.3491(11)
O12A O -0.2602(19) 0.9765(13) 0.2268(12)
O12A_2 O 0.7398(19) 0.9765(13) 0.2268(12)
O13A O 0.4847(18) 1.0702(13) 0.1160(12)
loop_
_geom_bond_atom_site_label_1
_geom_bond_atom_site_label_2
_geom_bond_site_symmetry_1
_geom_bond_site_symmetry_2
Ho1 O2 1_555 1_555
Ho2 O1 1_555 1_555
O1 C8 1_555 1_555
O2 Ho2 1_555 1_555
O3 Ho2 1_555 1_555
O4 C4 1_555 1_555
O5 C4 1_555 1_555
O6 Ho1 1_555 1_555
O7 Ho1 1_555 1_555
O8 C10 1_555 1_555
O9 C10 1_555 1_555
O10 Ho1 1_555 1_555
O11 Ho2 1_555 1_555
O12 C1 1_555 1_555
O13 C1 1_555 1_555
C1 C2 1_555 1_555
C2 H1 1_555 1_555
H2 C2 1_555 1_555
C3 C2 1_555 1_555
H3 C3 1_555 1_555
H4 C3 1_555 1_555
C4 C6 1_555 1_555
C5 H5 1_555 1_555
H6 C5 1_555 1_555
C6 C5 1_555 1_555
H7 C6 1_555 1_555
H8 C6 1_555 1_555
C7 O6 1_555 1_555
O14 Ho1 1_555 1_555
C8 O2 1_555 1_555
C9 O3 1_555 1_555
C10 C11 1_555 1_555
C11 H9 1_555 1_555
H10 C11 1_555 1_555
C12 C8 1_555 1_555
H11 C12 1_555 1_555
H12 C12 1_555 1_555
Ho1A O4 1_555 1_555
Ho1A_2 O8 1_555 1_555
Ho1A_3 O12 1_555 1_555
Ho2A O5 1_555 1_555
Ho2A_2 O9 1_555 1_555
Ho2A_3 O12 1_555 1_555
O4A Ho1 1_555 1_555
O5A Ho2 1_555 1_555
O8A Ho1 1_555 1_555
O9A Ho1 1_555 1_555
O9A_2 Ho2 1_555 1_555
O12A Ho1 1_555 1_555
O12A_2 Ho2 1_555 1_555
O13A Ho2 1_555 1_555
Ho2 O6 1_555 1_555
O7 C7 1_555 1_555
O9 Ho1A_2 1_555 1_555
O13 Ho2A_3 1_555 1_555
C3 C9 1_555 1_555
C5 C7 1_555 1_555
O14 C9 1_555 1_555
C11 C12 1_555 1_555

#END
