
#######################################################################
#
#                 Cambridge Crystallographic Data Centre
#                                CCDC 
#
#######################################################################
#
# If this CIF has been generated from an entry in the Cambridge 
# Structural Database, then it will include bibliographic, chemical, 
# crystal, experimental, refinement or atomic coordinate data resulting 
# from the CCDC's data processing and validation procedures.
#
#######################################################################

data_IXOFOR
_symmetry_cell_setting           orthorhombic
_symmetry_space_group_name_H-M   'P 21 21 21'
_symmetry_Int_Tables_number      19
_space_group_name_Hall           'P 2ac 2ab'
loop_
_symmetry_equiv_pos_site_id
_symmetry_equiv_pos_as_xyz
1 x,y,z
2 1/2-x,-y,1/2+z
3 -x,1/2+y,1/2-z
4 1/2+x,1/2-y,-z
_cell_length_a                   6.8127(3)
_cell_length_b                   13.7142(7)
_cell_length_c                   16.0701(8)
_cell_angle_alpha                90
_cell_angle_beta                 90
_cell_angle_gamma                90
_cell_volume                     1501.44
loop_
_atom_site_label
_atom_site_type_symbol
_atom_site_fract_x
_atom_site_fract_y
_atom_site_fract_z
C1 C 0.7242(3) 0.61136(13) 0.40415(10)
C2 C 0.7391(3) 0.53437(13) 0.33855(11)
C3 C 0.9200(3) 0.51335(17) 0.30337(13)
H1 H 1.0330 0.5429 0.3239
C4 C 0.9321(3) 0.44832(17) 0.23767(13)
H2 H 1.0536 0.4340 0.2143
C5 C 0.7642(3) 0.40450(13) 0.20660(11)
C6 C 0.5845(3) 0.42296(17) 0.24393(13)
H3 H 0.4721 0.3919 0.2245
C7 C 0.5720(3) 0.48734(16) 0.30995(13)
H4 H 0.4514 0.4991 0.3352
C8 C 0.7770(2) 0.34217(12) 0.13062(10)
O1 O 0.78392(16) 0.19047(8) -0.00983(7)
O2 O 0.55588(19) 0.63403(9) 0.42920(8)
O3 O 0.61682(17) 0.31100(10) 0.10119(8)
O4 O 0.94394(19) 0.32704(10) 0.10067(8)
O5 O 0.88335(18) 0.64912(10) 0.42832(9)
V1 V 0.56583(3) 0.235380(16) -0.001410(17)
O1C O 0.28392(16) 0.30953(8) 0.00983(7)
O2B O 0.44412(19) 0.13403(9) 0.07080(8)
O4C O 0.44394(19) 0.17296(10) -0.10067(8)
O5A O 0.61665(18) 0.35088(10) -0.07168(9)
V1C V 1.06583(3) 0.264620(16) 0.001410(17)
V1B V 0.43417(3) 0.735380(16) 0.501410(17)
V1A V 0.93417(3) 0.764620(16) 0.498590(17)
C9 C 0.3042(10) 0.5949(6) -0.0026(4)
H5 H 0.2939 0.5412 -0.0417
H6 H 0.3206 0.6543 -0.0346
C10 C 0.1209(10) 0.6015(6) 0.0448(4)
H7 H 0.0902 0.5380 0.0680
H8 H 0.0150 0.6197 0.0075
C11 C 0.1338(11) 0.6739(6) 0.1131(5)
H9 H 0.0155 0.6706 0.1466
H10 H 0.1424 0.7389 0.0896
C12 C 0.3096(9) 0.6557(4) 0.1676(4)
H11 H 0.3220 0.7082 0.2078
H12 H 0.2915 0.5953 0.1980
C13 C 0.4936(9) 0.6495(5) 0.1164(4)
H13 H 0.5237 0.7135 0.0941
H14 H 0.6018 0.6300 0.1519
C14 C 0.4756(10) 0.5805(5) 0.0481(4)
H15 H 0.5913 0.5856 0.0132
H16 H 0.4723 0.5150 0.0708
loop_
_geom_bond_atom_site_label_1
_geom_bond_atom_site_label_2
_geom_bond_site_symmetry_1
_geom_bond_site_symmetry_2
C1 C2 1_555 1_555
C2 C3 1_555 1_555
C3 H1 1_555 1_555
C4 C3 1_555 1_555
H2 C4 1_555 1_555
C5 C4 1_555 1_555
C6 C5 1_555 1_555
H3 C6 1_555 1_555
C7 C2 1_555 1_555
H4 C7 1_555 1_555
C8 C5 1_555 1_555
C9 H5 1_555 1_555
H6 C9 1_555 1_555
C10 C9 1_555 1_555
H7 C10 1_555 1_555
H8 C10 1_555 1_555
C11 C10 1_555 1_555
H9 C11 1_555 1_555
H10 C11 1_555 1_555
C12 C11 1_555 1_555
H11 C12 1_555 1_555
H12 C12 1_555 1_555
C13 C12 1_555 1_555
H13 C13 1_555 1_555
H14 C13 1_555 1_555
C14 C9 1_555 1_555
H15 C14 1_555 1_555
H16 C14 1_555 1_555
O1 V1 1_555 1_555
O2 C1 1_555 1_555
O3 C8 1_555 1_555
O4 C8 1_555 1_555
O5 C1 1_555 1_555
V1 O3 1_555 1_555
O1C V1 1_555 1_555
O2B V1 1_555 1_555
O4C V1 1_555 1_555
O5A V1 1_555 1_555
V1C O1 1_555 1_555
V1B O2 1_555 1_555
V1A O5 1_555 1_555
C6 C7 1_555 1_555
C13 C14 1_555 1_555
O4 V1C 1_555 1_555

#END
