
#######################################################################
#
#                 Cambridge Crystallographic Data Centre
#                                CCDC 
#
#######################################################################
#
# If this CIF has been generated from an entry in the Cambridge 
# Structural Database, then it will include bibliographic, chemical, 
# crystal, experimental, refinement or atomic coordinate data resulting 
# from the CCDC's data processing and validation procedures.
#
#######################################################################

data_IXURAV
_symmetry_cell_setting           orthorhombic
_symmetry_space_group_name_H-M   'P n n a'
_symmetry_Int_Tables_number      52
_space_group_name_Hall           '-P 2a 2bc'
loop_
_symmetry_equiv_pos_site_id
_symmetry_equiv_pos_as_xyz
1 x,y,z
2 1/2-x,-y,z
3 1/2-x,1/2+y,1/2-z
4 x,1/2-y,1/2-z
5 -x,-y,-z
6 1/2+x,y,-z
7 1/2+x,1/2-y,1/2+z
8 -x,1/2+y,1/2+z
_cell_length_a                   29.50(2)
_cell_length_b                   14.724(13)
_cell_length_c                   10.274(9)
_cell_angle_alpha                90
_cell_angle_beta                 90
_cell_angle_gamma                90
_cell_volume                     4462.59
loop_
_atom_site_label
_atom_site_type_symbol
_atom_site_fract_x
_atom_site_fract_y
_atom_site_fract_z
Zn1 Zn 0.47203(3) 1.2500 0.7500
Zn2 Zn 0.75755(3) 0.7500 0.7500
C1 C 0.4368(2) 1.1164(5) 0.9059(6)
C2 C 0.40202(18) 1.0532(4) 0.9658(6)
C3 C 0.35731(18) 1.0542(5) 0.9246(6)
H1 H 0.3485 1.0933 0.8582
C4 C 0.3260(2) 0.9979(6) 0.9814(8)
H2 H 0.2961 0.9995 0.9529
C5 C 0.3379(2) 0.9390(5) 1.0798(8)
C6 C 0.3821(2) 0.9389(5) 1.1212(7)
H3 H 0.3908 0.9000 1.1880
C7 C 0.41401(19) 0.9956(5) 1.0656(6)
H4 H 0.4437 0.9949 1.0957
C8 C 0.3041(4) 0.8753(7) 1.1383(12)
C9 C 0.5461(2) 1.2229(4) 0.5600(7)
H5 H 0.5451 1.2860 0.5565
C10 C 0.5785(2) 1.1790(5) 0.4879(8)
H6 H 0.5993 1.2122 0.4394
C11 C 0.5801(2) 1.0844(6) 0.4876(7)
C12 C 0.5499(2) 1.0388(5) 0.5703(7)
H7 H 0.5511 0.9759 0.5780
C13 C 0.51858(19) 1.0871(5) 0.6395(6)
H8 H 0.4983 1.0552 0.6916
C14 C 0.64817(19) 0.9067(5) 0.4884(7)
C15 C 0.6722(2) 0.9532(5) 0.5829(7)
H9 H 0.6675 1.0146 0.5994
C16 C 0.70327(18) 0.9030(5) 0.6506(6)
H10 H 0.7194 0.9331 0.7153
C17 C 0.68899(18) 0.7744(4) 0.5431(6)
H11 H 0.6948 0.7132 0.5284
C18 C 0.65654(18) 0.8151(5) 0.4702(6)
H12 H 0.6402 0.7821 0.4089
N1 N 0.51546(14) 1.1791(4) 0.6365(5)
N2 N 0.61103(17) 1.0412(5) 0.4115(6)
H13 H 0.6283 1.0722 0.3608
N3 N 0.61482(17) 0.9473(5) 0.4151(6)
H14 H 0.5962 0.9144 0.3712
N4 N 0.71279(14) 0.8164(3) 0.6338(5)
O1 O 0.42526(12) 1.1593(3) 0.8068(4)
O2 O 0.47516(14) 1.1203(4) 0.9540(5)
O3 O 0.3102(2) 0.8508(4) 1.2495(8)
O4 O 0.2717(2) 0.8527(6) 1.0803(9)
Zn2E Zn 0.25755(3) 0.7500 1.2500
Zn2_2 Zn 0.75755(3) 1.7500 0.7500
Zn2E_2 Zn 0.25755(3) 1.7500 0.2500
C1C C 0.4368(2) 1.3836(5) 0.5941(6)
C2C C 0.40202(18) 1.4468(4) 0.5342(6)
C3C C 0.35731(18) 1.4458(5) 0.5754(6)
H1C H 0.3485 1.4067 0.6418
C4C C 0.3260(2) 1.5021(6) 0.5186(8)
H2C H 0.2961 1.5005 0.5471
C5C C 0.3379(2) 1.5610(5) 0.4202(8)
C6C C 0.3821(2) 1.5611(5) 0.3788(7)
H3C H 0.3908 1.6000 0.3120
C7C C 0.41401(19) 1.5044(5) 0.4344(6)
H4C H 0.4437 1.5051 0.4043
C8C C 0.3041(4) 1.6247(7) 0.3617(12)
C9C C 0.5461(2) 1.2771(4) 0.9400(7)
H5C H 0.5451 1.2140 0.9435
C10C C 0.5785(2) 1.3210(5) 1.0121(8)
H6C H 0.5993 1.2878 1.0606
C11C C 0.5801(2) 1.4156(6) 1.0124(7)
C12C C 0.5499(2) 1.4612(5) 0.9297(7)
H7C H 0.5511 1.5241 0.9220
C13C C 0.51858(19) 1.4129(5) 0.8605(6)
H8C H 0.4983 1.4448 0.8084
C14C C 0.64817(19) 1.5933(5) 1.0116(7)
C15C C 0.6722(2) 1.5468(5) 0.9171(7)
H9C H 0.6675 1.4854 0.9006
C16C C 0.70327(18) 1.5970(5) 0.8494(6)
H10C H 0.7194 1.5669 0.7847
C17C C 0.68899(18) 1.7256(4) 0.9569(6)
H11C H 0.6948 1.7868 0.9716
C18C C 0.65654(18) 1.6849(5) 1.0298(6)
H12C H 0.6402 1.7179 1.0911
N1C N 0.51546(14) 1.3209(4) 0.8635(5)
N2C N 0.61103(17) 1.4588(5) 1.0885(6)
H13C H 0.6283 1.4278 1.1392
N3C N 0.61482(17) 1.5527(5) 1.0849(6)
H14C H 0.5962 1.5856 1.1288
N4C N 0.71279(14) 1.6836(3) 0.8662(5)
N4C_2 N 0.71279(14) 0.6836(3) 0.8662(5)
O1C O 0.42526(12) 1.3407(3) 0.6932(4)
O2C O 0.47516(14) 1.3797(4) 0.5460(5)
O3C O 0.3102(2) 1.6492(4) 0.2505(8)
O3E O 0.8102(2) 0.8508(4) 0.7505(8)
O3F O 0.8102(2) 0.6492(4) 0.7495(8)
O4C O 0.2717(2) 1.6473(6) 0.4197(9)
loop_
_geom_bond_atom_site_label_1
_geom_bond_atom_site_label_2
_geom_bond_site_symmetry_1
_geom_bond_site_symmetry_2
Zn1 N1 1_555 1_555
Zn2 N4 1_555 1_555
C1 C2 1_555 1_555
C2 C3 1_555 1_555
C3 H1 1_555 1_555
C4 C3 1_555 1_555
H2 C4 1_555 1_555
C5 C4 1_555 1_555
C6 C5 1_555 1_555
H3 C6 1_555 1_555
C7 C2 1_555 1_555
H4 C7 1_555 1_555
C8 C5 1_555 1_555
C9 H5 1_555 1_555
C10 C9 1_555 1_555
H6 C10 1_555 1_555
C11 C10 1_555 1_555
C12 C11 1_555 1_555
H7 C12 1_555 1_555
C13 C12 1_555 1_555
H8 C13 1_555 1_555
C14 C15 1_555 1_555
C15 H9 1_555 1_555
C16 C15 1_555 1_555
H10 C16 1_555 1_555
C17 H11 1_555 1_555
C18 C14 1_555 1_555
H12 C18 1_555 1_555
N1 C9 1_555 1_555
N2 C11 1_555 1_555
H13 N2 1_555 1_555
N3 C14 1_555 1_555
H14 N3 1_555 1_555
N4 C16 1_555 1_555
O1 Zn1 1_555 1_555
O2 C1 1_555 1_555
O3 C8 1_555 1_555
O4 C8 1_555 1_555
Zn2E O3 1_555 1_555
Zn2_2 N4C 1_555 1_555
Zn2E_2 O3C 1_555 1_555
C1C C2C 1_555 1_555
C2C C3C 1_555 1_555
C3C H1C 1_555 1_555
C4C C3C 1_555 1_555
H2C C4C 1_555 1_555
C5C C4C 1_555 1_555
C6C C5C 1_555 1_555
H3C C6C 1_555 1_555
C7C C2C 1_555 1_555
H4C C7C 1_555 1_555
C8C C5C 1_555 1_555
C9C H5C 1_555 1_555
C10C C9C 1_555 1_555
H6C C10C 1_555 1_555
C11C C10C 1_555 1_555
C12C C11C 1_555 1_555
H7C C12C 1_555 1_555
C13C C12C 1_555 1_555
H8C C13C 1_555 1_555
C14C C15C 1_555 1_555
C15C H9C 1_555 1_555
C16C C15C 1_555 1_555
H10C C16C 1_555 1_555
C17C H11C 1_555 1_555
C18C C14C 1_555 1_555
H12C C18C 1_555 1_555
N1C Zn1 1_555 1_555
N2C C11C 1_555 1_555
H13C N2C 1_555 1_555
N3C C14C 1_555 1_555
H14C N3C 1_555 1_555
N4C C16C 1_555 1_555
N4C_2 Zn2 1_555 1_555
O1C Zn1 1_555 1_555
O2C C1C 1_555 1_555
O3C C8C 1_555 1_555
O3E Zn2 1_555 1_555
O3F Zn2 1_555 1_555
O4C C8C 1_555 1_555
C1 O1 1_555 1_555
C6 C7 1_555 1_555
C13 N1 1_555 1_555
C17 C18 1_555 1_555
C17 N4 1_555 1_555
N2 N3 1_555 1_555
C1C O1C 1_555 1_555
C6C C7C 1_555 1_555
C9C N1C 1_555 1_555
C13C N1C 1_555 1_555
C17C C18C 1_555 1_555
C17C N4C 1_555 1_555
N2C N3C 1_555 1_555

#END
