
#######################################################################
#
#                 Cambridge Crystallographic Data Centre
#                                CCDC 
#
#######################################################################
#
# If this CIF has been generated from an entry in the Cambridge 
# Structural Database, then it will include bibliographic, chemical, 
# crystal, experimental, refinement or atomic coordinate data resulting 
# from the CCDC's data processing and validation procedures.
#
#######################################################################

data_IYOBAA
_symmetry_cell_setting           monoclinic
_symmetry_space_group_name_H-M   'C 2/c'
_symmetry_Int_Tables_number      15
_space_group_name_Hall           '-C 2yn'
loop_
_symmetry_equiv_pos_site_id
_symmetry_equiv_pos_as_xyz
1 x,y,z
2 -x,y,1/2-z
3 1/2+x,1/2+y,z
4 1/2-x,1/2+y,1/2-z
5 -x,-y,-z
6 x,-y,1/2+z
7 1/2-x,1/2-y,-z
8 1/2+x,1/2-y,1/2+z
_cell_length_a                   37.3848(11)
_cell_length_b                   9.3228(13)
_cell_length_c                   30.230(2)
_cell_angle_alpha                90
_cell_angle_beta                 128.195(3)
_cell_angle_gamma                90
_cell_volume                     8280.43
loop_
_atom_site_label
_atom_site_type_symbol
_atom_site_fract_x
_atom_site_fract_y
_atom_site_fract_z
C1 C 0.3168(2) 0.6904(7) 0.7163(3)
C2 C 0.3747(2) 0.5159(8) 0.7763(3)
H1 H 0.3847 0.4358 0.7995
C3 C 0.3326(2) 0.5748(8) 0.7525(3)
H2 H 0.3146 0.5363 0.7610
C4 C 0.34546(19) 0.7547(7) 0.7071(3)
H3 H 0.3367 0.8387 0.6861
C5 C 0.4016(2) 0.5782(7) 0.7649(3)
C6 C 0.3864(2) 0.6931(7) 0.7291(3)
H4 H 0.4041 0.7293 0.7199
C7 C 0.4553(2) 0.3766(7) 0.7940(3)
H5 H 0.4352 0.3036 0.7863
C8 C 0.5141(2) 0.4869(8) 0.8151(3)
H6 H 0.5424 0.5049 0.8242
C9 C 0.1641(2) 1.1402(7) 0.4672(3)
H7 H 0.1719 1.2108 0.4935
C10 C 0.1368(2) 1.0355(7) 0.3891(3)
H8 H 0.1221 1.0202 0.3510
C11 C 0.1555(3) 0.9319(7) 0.4286(3)
H9 H 0.1561 0.8343 0.4228
C12 C 0.1974(2) 0.9317(6) 0.5330(3)
C13 C 0.2233(3) 0.8135(8) 0.5448(3)
H10 H 0.2264 0.7791 0.5184
C14 C 0.1961(2) 0.9920(6) 0.5745(3)
H11 H 0.1781 1.0718 0.5667
C15 C 0.2226(2) 0.9293(6) 0.6281(3)
H12 H 0.2232 0.9715 0.6564
C16 C 0.2446(2) 0.7457(6) 0.5951(3)
H13 H 0.2576 0.6561 0.5999
C17 C 0.2479(2) 0.8060(7) 0.6401(3)
C18 C 0.2589(2) 0.7520(7) 0.7270(3)
C19 C 0.2225(3) 0.7859(8) 0.9053(4)
H14 H 0.2315 0.8154 0.9402
C20 C 0.18556(19) 0.6829(6) 0.8240(3)
H15 H 0.1644 0.6282 0.7924
C21 C 0.2437(3) 0.8201(9) 0.8826(3)
H16 H 0.2694 0.8774 0.8992
C22 C 0.2320(2) 0.7551(6) 0.7947(3)
C23 C 0.2026(2) 0.7098(8) 0.7397(3)
H17 H 0.1738 0.6775 0.7255
C24 C 0.2753(3) 0.7987(8) 0.8161(3)
H18 H 0.2959 0.8267 0.8535
C25 C 0.2879(3) 0.8006(8) 0.7819(4)
H19 H 0.3165 0.8353 0.7960
C26 C 0.2151(2) 0.7112(7) 0.7042(3)
H20 H 0.1945 0.6853 0.6665
C27 C 0.4835(2) 0.5865(8) 0.8018(3)
H21 H 0.4870 0.6854 0.8021
N1 N 0.1423(2) 1.1668(6) 0.4132(2)
N2 N 0.17404(19) 0.9987(5) 0.4804(2)
N3 N 0.27305(17) 0.7448(6) 0.6924(2)
N4 N 0.18450(19) 0.6976(6) 0.8663(2)
N5 N 0.22012(17) 0.7542(6) 0.8305(2)
N6 N 0.49825(18) 0.3569(6) 0.8134(3)
N7 N 0.44573(19) 0.5139(6) 0.7877(2)
O1 O 0.06705(16) 1.7260(5) 0.3300(2)
Cu1 Cu 0.10688(3) 1.48494(9) 0.45871(4)
Cu2 Cu 0.13791(3) 1.35884(9) 0.37414(4)
Cu3 Cu 0.02557(3) 1.32812(9) 0.32316(4)
S1 S 0.15182(6) 1.53778(19) 0.43488(9)
S2 S 0.06565(6) 1.39502(19) 0.29339(9)
S3 S 0.03387(6) 1.50208(19) 0.38162(9)
W1 W 0.078280(10) 1.55725(3) 0.357180(15)
Br1 Br 0.12970(2) 1.42437(7) 0.54511(3)
N4E N 0.18450(19) 1.3024(6) 0.3663(2)
N6G N -0.00175(18) 1.1431(6) 0.3134(3)
Cu2E Cu 0.13791(3) 0.64116(9) 0.87414(4)
Cu3G Cu 0.52557(3) 0.17188(9) 0.82316(4)
C28 C 0.0880(2) 0.5082(8) 0.6755(3)
H22 H 0.0961 0.4264 0.6974
C29 C 0.0535(3) 0.3334(8) 0.5974(4)
H23 H 0.0792 0.2732 0.6234
H24 H 0.0476 0.3322 0.5616
H25 H 0.0273 0.2983 0.5929
C30 C 0.0589(2) 0.6019(7) 0.5813(3)
H26 H 0.0341 0.6639 0.5705
H27 H 0.0530 0.5607 0.5483
H28 H 0.0866 0.6563 0.6014
N8 N 0.0635(2) 0.4819(7) 0.6192(3)
O2 O 0.10108(16) 0.6200(5) 0.7019(2)
O3 O 0.0692(4) 0.9533(14) 0.5061(5)
H29 H 0.0630 1.0195 0.4829
H30 H 0.0620 0.8725 0.4895
O4 O 0.1071(7) 0.951(2) 0.6057(8)
H31 H 0.1351 0.9326 0.6231
H32 H 0.1044 1.0308 0.6168
O5 O 0.0821(5) 0.2361(16) 0.9634(6)
H33 H 0.0876 0.1974 0.9925
H34 H 0.0909 0.1807 0.9495
loop_
_geom_bond_atom_site_label_1
_geom_bond_atom_site_label_2
_geom_bond_site_symmetry_1
_geom_bond_site_symmetry_2
C1 C3 1_555 1_555
C2 H1 1_555 1_555
C3 C2 1_555 1_555
H2 C3 1_555 1_555
C4 C1 1_555 1_555
H3 C4 1_555 1_555
C5 C2 1_555 1_555
C6 C4 1_555 1_555
H4 C6 1_555 1_555
C7 H5 1_555 1_555
C8 H6 1_555 1_555
C9 H7 1_555 1_555
C10 H8 1_555 1_555
C11 C10 1_555 1_555
H9 C11 1_555 1_555
C12 C13 1_555 1_555
C13 H10 1_555 1_555
C14 C12 1_555 1_555
H11 C14 1_555 1_555
C15 C14 1_555 1_555
H12 C15 1_555 1_555
C16 C13 1_555 1_555
H13 C16 1_555 1_555
C17 C15 1_555 1_555
C18 C25 1_555 1_555
C19 H14 1_555 1_555
C20 H15 1_555 1_555
C21 C19 1_555 1_555
H16 C21 1_555 1_555
C22 C23 1_555 1_555
C23 H17 1_555 1_555
C24 C22 1_555 1_555
H18 C24 1_555 1_555
C25 C24 1_555 1_555
H19 C25 1_555 1_555
C26 C18 1_555 1_555
H20 C26 1_555 1_555
C27 C8 1_555 1_555
H21 C27 1_555 1_555
C28 H22 1_555 1_555
C29 H23 1_555 1_555
H24 C29 1_555 1_555
H25 C29 1_555 1_555
C30 H26 1_555 1_555
H27 C30 1_555 1_555
H28 C30 1_555 1_555
N1 C9 1_555 1_555
N2 C9 1_555 1_555
N3 C1 1_555 1_555
N4 C19 1_555 1_555
N5 C20 1_555 1_555
N6 C7 1_555 1_555
N7 C5 1_555 1_555
N8 C28 1_555 1_555
O1 W1 1_555 1_555
O2 C28 1_555 1_555
O3 H29 1_555 1_555
H30 O3 1_555 1_555
O4 H31 1_555 1_555
H32 O4 1_555 1_555
O5 H33 1_555 1_555
H34 O5 1_555 1_555
Cu1 S1 1_555 1_555
Cu2 N1 1_555 1_555
Cu3 S2 1_555 1_555
S1 Cu2 1_555 1_555
S2 Cu2 1_555 1_555
S3 Cu1 1_555 1_555
W1 S1 1_555 1_555
Br1 Cu1 1_555 1_555
N4E Cu2 1_555 1_555
N6G Cu3 1_555 1_555
Cu2E N4 1_555 1_555
Cu3G N6 1_555 1_555
C5 C6 1_555 1_555
C7 N7 1_555 1_555
C8 N6 1_555 1_555
C10 N1 1_555 1_555
C11 N2 1_555 1_555
C12 N2 1_555 1_555
C16 C17 1_555 1_555
C17 N3 1_555 1_555
C18 N3 1_555 1_555
C20 N4 1_555 1_555
C21 N5 1_555 1_555
C22 N5 1_555 1_555
C23 C26 1_555 1_555
C27 N7 1_555 1_555
C29 N8 1_555 1_555
C30 N8 1_555 1_555
Cu3 S3 1_555 1_555
S2 W1 1_555 1_555
S3 W1 1_555 1_555

#END
