
#######################################################################
#
#                 Cambridge Crystallographic Data Centre
#                                CCDC 
#
#######################################################################
#
# If this CIF has been generated from an entry in the Cambridge 
# Structural Database, then it will include bibliographic, chemical, 
# crystal, experimental, refinement or atomic coordinate data resulting 
# from the CCDC's data processing and validation procedures.
#
#######################################################################

data_JEDKEJ
_symmetry_cell_setting           monoclinic
_symmetry_space_group_name_H-M   'P 21/c'
_symmetry_Int_Tables_number      14
_space_group_name_Hall           '-P 2ybc'
loop_
_symmetry_equiv_pos_site_id
_symmetry_equiv_pos_as_xyz
1 x,y,z
2 -x,1/2+y,1/2-z
3 -x,-y,-z
4 x,1/2-y,1/2+z
_cell_length_a                   18.005(4)
_cell_length_b                   23.732(5)
_cell_length_c                   23.235(5)
_cell_angle_alpha                90
_cell_angle_beta                 90.46(3)
_cell_angle_gamma                90
_cell_volume                     9927.87
loop_
_atom_site_label
_atom_site_type_symbol
_atom_site_fract_x
_atom_site_fract_y
_atom_site_fract_z
Cr1 Cr 0.5000 0.5000 0.5000
Cr2 Cr 0.0000 0.5000 0.5000
Cr3 Cr 0.00741(8) 0.65201(5) 0.85275(6)
Cu1 Cu 0.25687(6) 0.55641(5) 0.40108(5)
Cu2 Cu 0.12266(6) 0.51431(4) 0.70649(4)
Cu3 Cu 0.08781(7) 0.28731(4) 0.49072(4)
C1 C 0.2977(8) 0.4525(6) 0.3341(6)
H1 H 0.3401 0.4525 0.3573
C2 C 0.2913(14) 0.4098(15) 0.2937(12)
H2 H 0.3287 0.3838 0.2862
C3 C 0.2351(17) 0.4101(12) 0.2705(15)
H3 H 0.2257 0.3779 0.2489
C4 C 0.1791(11) 0.4488(9) 0.2686(6)
H4 H 0.1399 0.4457 0.2424
C5 C 0.1839(10) 0.4972(8) 0.3117(5)
C6 C 0.1350(7) 0.5513(8) 0.3270(6)
H5 H 0.1110 0.5657 0.2924
H6 H 0.0966 0.5410 0.3541
C7 C 0.1375(6) 0.6306(7) 0.3816(6)
H7 H 0.1006 0.6110 0.4043
H8 H 0.1123 0.6565 0.3558
C8 C 0.1886(9) 0.6600(7) 0.4181(7)
C9 C 0.1760(11) 0.7157(11) 0.4378(8)
H9 H 0.1344 0.7357 0.4256
C10 C 0.2221(14) 0.7376(8) 0.4720(9)
H10 H 0.2121 0.7741 0.4843
C11 C 0.2858(12) 0.7130(7) 0.4931(6)
H11 H 0.3176 0.7300 0.5195
C12 C 0.2975(9) 0.6560(5) 0.4686(6)
H12 H 0.3409 0.6367 0.4780
C13 C 0.2143(6) 0.6212(5) 0.6958(5)
H13 H 0.1864 0.6346 0.7264
C14 C 0.2669(9) 0.6563(6) 0.6741(8)
H14 H 0.2726 0.6930 0.6875
C15 C 0.3110(9) 0.6349(7) 0.6316(9)
H15 H 0.3487 0.6571 0.6166
C16 C 0.3005(7) 0.5809(8) 0.6106(6)
H16 H 0.3305 0.5671 0.5813
C17 C 0.2426(6) 0.5463(5) 0.6345(5)
C18 C 0.2238(6) 0.4890(5) 0.6158(4)
H17 H 0.1895 0.4904 0.5834
H18 H 0.2682 0.4693 0.6039
C19 C 0.1456(6) 0.4118(4) 0.6495(5)
H19 H 0.1777 0.3796 0.6429
H20 H 0.1179 0.4193 0.6144
C20 C 0.0923(7) 0.3986(4) 0.6978(5)
C21 C 0.0650(9) 0.3459(7) 0.7023(7)
H21 H 0.0788 0.3165 0.6783
C22 C 0.0152(11) 0.3402(5) 0.7456(9)
H22 H -0.0062 0.3048 0.7495
C23 C -0.0089(7) 0.3827(6) 0.7866(6)
H23 H -0.0412 0.3761 0.8169
C24 C 0.0242(6) 0.4356(4) 0.7736(5)
H24 H 0.0112 0.4667 0.7957
C25 C 0.2190(7) 0.2847(5) 0.5691(6)
H25 H 0.1897 0.2588 0.5886
C26 C 0.2865(15) 0.2957(9) 0.5922(14)
H26 H 0.3066 0.2784 0.6247
C27 C 0.3176(14) 0.3331(12) 0.5629(13)
H27 H 0.3624 0.3453 0.5787
C28 C 0.2987(10) 0.3607(6) 0.5103(11)
H28 H 0.3297 0.3864 0.4920
C29 C 0.2263(8) 0.3447(5) 0.4883(7)
C30 C 0.1842(8) 0.3636(5) 0.4357(7)
H29 H 0.1585 0.3986 0.4438
H30 H 0.2186 0.3704 0.4045
C31 C 0.0711(9) 0.3422(5) 0.3831(5)
H31 H 0.0872 0.3459 0.3436
H32 H 0.0549 0.3790 0.3964
C32 C 0.0074(8) 0.3005(5) 0.3866(5)
C33 C -0.0452(11) 0.2939(8) 0.3438(6)
H33 H -0.0423 0.3138 0.3094
C34 C -0.1037(10) 0.2558(9) 0.3541(8)
H34 H -0.1424 0.2528 0.3276
C35 C -0.1043(9) 0.2232(6) 0.4027(7)
H35 H -0.1406 0.1959 0.4084
C36 C -0.0492(7) 0.2323(5) 0.4427(5)
H36 H -0.0497 0.2113 0.4765
C37 C 0.3996(5) 0.5172(4) 0.4624(4)
C38 C 0.4471(6) 0.4709(5) 0.5745(5)
C39 C 0.5006(6) 0.5821(5) 0.5341(5)
C40 C 0.1104(5) 0.5115(3) 0.4759(3)
C41 C 0.0271(4) 0.5175(3) 0.5846(4)
C42 C 0.0216(4) 0.4161(3) 0.5136(3)
C43 C 0.0487(5) 0.5950(3) 0.7947(4)
C44 C -0.0646(7) 0.5923(5) 0.8774(4)
C45 C -0.0685(6) 0.6831(4) 0.7945(4)
C46 C 0.0828(6) 0.7093(4) 0.8197(4)
C47 C 0.0819(7) 0.6285(4) 0.9150(5)
C48 C 0.0331(5) 0.2075(3) 0.5897(4)
N1 N 0.2497(6) 0.4924(4) 0.3426(3)
N2 N 0.1802(5) 0.5925(5) 0.3508(4)
H37 H 0.2276 0.5942 0.3470
N3 N 0.2515(5) 0.6329(4) 0.4358(4)
N4 N 0.1988(4) 0.5685(3) 0.6769(3)
N5 N 0.1897(4) 0.4598(3) 0.6641(3)
H38 H 0.1957 0.4707 0.6991
N6 N 0.0740(4) 0.4429(3) 0.7304(3)
N7 N 0.1900(5) 0.3069(3) 0.5214(4)
N8 N 0.1326(6) 0.3221(3) 0.4192(4)
H39 H 0.1369 0.2874 0.4295
N9 N 0.0039(5) 0.2691(3) 0.4355(3)
N10 N 0.3461(4) 0.5297(3) 0.4415(4)
N11 N 0.4185(6) 0.4538(5) 0.6146(5)
N12 N 0.4992(7) 0.6252(5) 0.5513(6)
N13 N 0.1693(4) 0.5193(3) 0.4609(3)
N14 N 0.0453(4) 0.5255(3) 0.6315(3)
N15 N 0.0355(4) 0.3700(3) 0.5205(3)
N16 N 0.0753(4) 0.5638(3) 0.7614(3)
N17 N -0.1023(8) 0.5553(5) 0.8881(5)
N18 N -0.1092(6) 0.7021(4) 0.7647(4)
N19 N 0.1251(5) 0.7386(4) 0.7995(4)
N20 N 0.1233(7) 0.6177(5) 0.9511(5)
N21 N 0.0543(4) 0.2374(3) 0.5535(3)
Cr2_2 Cr 1.0000 0.5000 0.5000
Cr3B Cr -0.00741(8) 0.34799(5) 0.14725(6)
Cr3A Cr -0.00741(8) 0.15201(5) 0.64725(6)
Cr3C Cr 0.00741(8) 0.84799(5) 0.35275(6)
Cu1B Cu 0.74313(6) 0.44359(5) 0.59892(5)
Cu2B Cu -0.12266(6) 0.48569(4) 0.29351(4)
Cu3B Cu -0.08781(7) 0.71269(4) 0.50928(4)
C1B C 0.7023(8) 0.5475(6) 0.6659(6)
H1B H 0.6599 0.5475 0.6427
C2B C 0.7087(14) 0.5902(15) 0.7063(12)
H2B H 0.6713 0.6162 0.7138
C3B C 0.7649(17) 0.5899(12) 0.7295(15)
H3B H 0.7743 0.6221 0.7511
C4B C 0.8209(11) 0.5512(9) 0.7314(6)
H4B H 0.8601 0.5543 0.7576
C5B C 0.8161(10) 0.5028(8) 0.6883(5)
C6B C 0.8650(7) 0.4487(8) 0.6730(6)
H5B H 0.8890 0.4343 0.7076
H6B H 0.9034 0.4590 0.6459
C7B C 0.8625(6) 0.3694(7) 0.6184(6)
H7B H 0.8994 0.3890 0.5957
H8B H 0.8877 0.3435 0.6442
C8B C 0.8114(9) 0.3400(7) 0.5819(7)
C9B C 0.8240(11) 0.2843(11) 0.5622(8)
H9B H 0.8656 0.2643 0.5744
C10B C 0.7779(14) 0.2624(8) 0.5280(9)
H10B H 0.7879 0.2259 0.5157
C11B C 0.7142(12) 0.2870(7) 0.5069(6)
H11B H 0.6824 0.2700 0.4805
C12B C 0.7025(9) 0.3440(5) 0.5314(6)
H12B H 0.6591 0.3633 0.5220
C13B C -0.2143(6) 0.3788(5) 0.3042(5)
H13B H -0.1864 0.3654 0.2736
C14B C -0.2669(9) 0.3437(6) 0.3259(8)
H14B H -0.2726 0.3070 0.3125
C15B C -0.3110(9) 0.3651(7) 0.3684(9)
H15B H -0.3487 0.3429 0.3834
C16B C -0.3005(7) 0.4191(8) 0.3894(6)
H16B H -0.3305 0.4329 0.4187
C17B C -0.2426(6) 0.4537(5) 0.3655(5)
C18B C -0.2238(6) 0.5110(5) 0.3842(4)
H17B H -0.1895 0.5096 0.4166
H18B H -0.2682 0.5307 0.3961
C19B C -0.1456(6) 0.5882(4) 0.3505(5)
H19B H -0.1777 0.6204 0.3571
H20B H -0.1179 0.5807 0.3856
C20B C -0.0923(7) 0.6014(4) 0.3022(5)
C21B C -0.0650(9) 0.6541(7) 0.2977(7)
H21B H -0.0788 0.6835 0.3217
C22B C -0.0152(11) 0.6598(5) 0.2544(9)
H22B H 0.0062 0.6952 0.2505
C23B C 0.0089(7) 0.6173(6) 0.2134(6)
H23B H 0.0412 0.6239 0.1831
C24B C -0.0242(6) 0.5644(4) 0.2264(5)
H24B H -0.0112 0.5333 0.2043
C25B C -0.2190(7) 0.7153(5) 0.4309(6)
H25B H -0.1897 0.7412 0.4114
C26B C -0.2865(15) 0.7043(9) 0.4078(14)
H26B H -0.3066 0.7216 0.3753
C27B C -0.3176(14) 0.6669(12) 0.4371(13)
H27B H -0.3624 0.6547 0.4213
C28B C -0.2987(10) 0.6393(6) 0.4897(11)
H28B H -0.3297 0.6136 0.5080
C29B C -0.2263(8) 0.6553(5) 0.5117(7)
C30B C -0.1842(8) 0.6364(5) 0.5643(7)
H29B H -0.1585 0.6014 0.5562
H30B H -0.2186 0.6296 0.5955
C31B C -0.0711(9) 0.6578(5) 0.6169(5)
H31B H -0.0872 0.6541 0.6564
H32B H -0.0549 0.6210 0.6036
C32B C -0.0074(8) 0.6995(5) 0.6134(5)
C33B C 0.0452(11) 0.7061(8) 0.6562(6)
H33B H 0.0423 0.6862 0.6906
C34B C 0.1037(10) 0.7442(9) 0.6459(8)
H34B H 0.1424 0.7472 0.6724
C35B C 0.1043(9) 0.7768(6) 0.5973(7)
H35B H 0.1406 0.8041 0.5916
C36B C 0.0492(7) 0.7677(5) 0.5573(5)
H36B H 0.0497 0.7887 0.5235
C37B C 0.6004(5) 0.4828(4) 0.5376(4)
C38B C 0.5529(6) 0.5291(5) 0.4255(5)
C39B C 0.4994(6) 0.4179(5) 0.4659(5)
C40B C 0.8896(5) 0.4885(3) 0.5241(3)
C40B_2 C -0.1104(5) 0.4885(3) 0.5241(3)
C41B C -0.0271(4) 0.4825(3) 0.4154(4)
C42B C -0.0216(4) 0.5839(3) 0.4864(3)
C43B C -0.0487(5) 0.4050(3) 0.2053(4)
C44B C 0.0646(7) 0.4077(5) 0.1226(4)
C45B C 0.0685(6) 0.3169(4) 0.2055(4)
C46B C -0.0828(6) 0.2907(4) 0.1803(4)
C47B C -0.0819(7) 0.3715(4) 0.0850(5)
C48B C -0.0331(5) 0.7925(3) 0.4103(4)
C48A C -0.0331(5) 0.7075(3) 0.9103(4)
C48C C 0.0331(5) 0.2925(3) 0.0897(4)
N1B N 0.7503(6) 0.5076(4) 0.6574(3)
N2B N 0.8198(5) 0.4075(5) 0.6492(4)
H37B H 0.7724 0.4058 0.6530
N3B N 0.7485(5) 0.3671(4) 0.5642(4)
N4B N -0.1988(4) 0.4315(3) 0.3231(3)
N5B N -0.1897(4) 0.5402(3) 0.3359(3)
H38B H -0.1957 0.5293 0.3009
N6B N -0.0740(4) 0.5571(3) 0.2696(3)
N7B N -0.1900(5) 0.6931(3) 0.4786(4)
N8B N -0.1326(6) 0.6779(3) 0.5808(4)
H39B H -0.1369 0.7126 0.5705
N9B N -0.0039(5) 0.7309(3) 0.5645(3)
N10B N 0.6539(4) 0.4703(3) 0.5585(4)
N11B N 0.5815(6) 0.5462(5) 0.3854(5)
N12B N 0.5008(7) 0.3748(5) 0.4487(6)
N13B N 0.8307(4) 0.4807(3) 0.5391(3)
N14B N -0.0453(4) 0.4745(3) 0.3685(3)
N15B N -0.0355(4) 0.6300(3) 0.4795(3)
N16B N -0.0753(4) 0.4362(3) 0.2386(3)
N17B N 0.1023(8) 0.4447(5) 0.1119(5)
N18B N 0.1092(6) 0.2979(4) 0.2353(4)
N19B N -0.1251(5) 0.2614(4) 0.2005(4)
N20B N -0.1233(7) 0.3823(5) 0.0489(5)
N21B N -0.0543(4) 0.7626(3) 0.4465(3)
O1 O -0.1812(11) 0.7418(6) 1.1652(6)
O2 O 0.2322(9) 0.8201(7) 0.7656(6)
O3 O 0.1015(15) 0.4316(13) 0.9252(10)
O4 O 0.3297(10) 0.4326(12) 0.7146(9)
O5 O 0.2284(16) 0.6038(12) 1.0420(11)
loop_
_geom_bond_atom_site_label_1
_geom_bond_atom_site_label_2
_geom_bond_site_symmetry_1
_geom_bond_site_symmetry_2
Cr1 C37 1_555 1_555
Cr2 C40 1_555 1_555
Cr3 C43 1_555 1_555
Cu1 N1 1_555 1_555
Cu2 N4 1_555 1_555
Cu3 N7 1_555 1_555
C1 H1 1_555 1_555
C2 C1 1_555 1_555
H2 C2 1_555 1_555
C3 C2 1_555 1_555
H3 C3 1_555 1_555
C4 C3 1_555 1_555
H4 C4 1_555 1_555
C5 C4 1_555 1_555
C6 C5 1_555 1_555
H5 C6 1_555 1_555
H6 C6 1_555 1_555
C7 H7 1_555 1_555
H8 C7 1_555 1_555
C8 C7 1_555 1_555
C9 C8 1_555 1_555
H9 C9 1_555 1_555
C10 C9 1_555 1_555
H10 C10 1_555 1_555
C11 C10 1_555 1_555
H11 C11 1_555 1_555
C12 C11 1_555 1_555
H12 C12 1_555 1_555
C13 H13 1_555 1_555
C14 C13 1_555 1_555
H14 C14 1_555 1_555
C15 C14 1_555 1_555
H15 C15 1_555 1_555
C16 C15 1_555 1_555
H16 C16 1_555 1_555
C17 C16 1_555 1_555
C18 C17 1_555 1_555
H17 C18 1_555 1_555
H18 C18 1_555 1_555
C19 H19 1_555 1_555
H20 C19 1_555 1_555
C20 C19 1_555 1_555
C21 C20 1_555 1_555
H21 C21 1_555 1_555
C22 C21 1_555 1_555
H22 C22 1_555 1_555
C23 C22 1_555 1_555
H23 C23 1_555 1_555
C24 C23 1_555 1_555
H24 C24 1_555 1_555
C25 H25 1_555 1_555
C26 C25 1_555 1_555
H26 C26 1_555 1_555
C27 C26 1_555 1_555
H27 C27 1_555 1_555
C28 C27 1_555 1_555
H28 C28 1_555 1_555
C29 C28 1_555 1_555
C30 C29 1_555 1_555
H29 C30 1_555 1_555
H30 C30 1_555 1_555
C31 H31 1_555 1_555
H32 C31 1_555 1_555
C32 C31 1_555 1_555
C33 C32 1_555 1_555
H33 C33 1_555 1_555
C34 C33 1_555 1_555
H34 C34 1_555 1_555
C35 C34 1_555 1_555
H35 C35 1_555 1_555
C36 C35 1_555 1_555
H36 C36 1_555 1_555
C37 N10 1_555 1_555
C38 Cr1 1_555 1_555
C39 Cr1 1_555 1_555
C40 N13 1_555 1_555
C41 Cr2 1_555 1_555
C42 Cr2 1_555 1_555
C43 N16 1_555 1_555
C44 Cr3 1_555 1_555
C45 Cr3 1_555 1_555
C46 Cr3 1_555 1_555
C47 Cr3 1_555 1_555
C48 N21 1_555 1_555
N1 C1 1_555 1_555
N2 Cu1 1_555 1_555
H37 N2 1_555 1_555
N3 Cu1 1_555 1_555
N4 C13 1_555 1_555
N5 Cu2 1_555 1_555
H38 N5 1_555 1_555
N6 Cu2 1_555 1_555
N7 C25 1_555 1_555
N8 Cu3 1_555 1_555
H39 N8 1_555 1_555
N9 Cu3 1_555 1_555
N10 Cu1 1_555 1_555
N11 C38 1_555 1_555
N12 C39 1_555 1_555
N13 Cu1 1_555 1_555
N14 Cu2 1_555 1_555
N15 Cu3 1_555 1_555
N16 Cu2 1_555 1_555
N17 C44 1_555 1_555
N18 C45 1_555 1_555
N19 C46 1_555 1_555
N20 C47 1_555 1_555
N21 Cu3 1_555 1_555
Cr2_2 C40B 1_555 1_555
Cr3B C43B 1_555 1_555
Cr3A C48 1_555 1_555
Cr3C C48B 1_555 1_555
Cu1B N1B 1_555 1_555
Cu2B N4B 1_555 1_555
Cu3B N7B 1_555 1_555
C1B H1B 1_555 1_555
C2B C1B 1_555 1_555
H2B C2B 1_555 1_555
C3B C2B 1_555 1_555
H3B C3B 1_555 1_555
C4B C3B 1_555 1_555
H4B C4B 1_555 1_555
C5B C4B 1_555 1_555
C6B C5B 1_555 1_555
H5B C6B 1_555 1_555
H6B C6B 1_555 1_555
C7B H7B 1_555 1_555
H8B C7B 1_555 1_555
C8B C7B 1_555 1_555
C9B C8B 1_555 1_555
H9B C9B 1_555 1_555
C10B C9B 1_555 1_555
H10B C10B 1_555 1_555
C11B C10B 1_555 1_555
H11B C11B 1_555 1_555
C12B C11B 1_555 1_555
H12B C12B 1_555 1_555
C13B H13B 1_555 1_555
C14B C13B 1_555 1_555
H14B C14B 1_555 1_555
C15B C14B 1_555 1_555
H15B C15B 1_555 1_555
C16B C15B 1_555 1_555
H16B C16B 1_555 1_555
C17B C16B 1_555 1_555
C18B C17B 1_555 1_555
H17B C18B 1_555 1_555
H18B C18B 1_555 1_555
C19B H19B 1_555 1_555
H20B C19B 1_555 1_555
C20B C19B 1_555 1_555
C21B C20B 1_555 1_555
H21B C21B 1_555 1_555
C22B C21B 1_555 1_555
H22B C22B 1_555 1_555
C23B C22B 1_555 1_555
H23B C23B 1_555 1_555
C24B C23B 1_555 1_555
H24B C24B 1_555 1_555
C25B H25B 1_555 1_555
C26B C25B 1_555 1_555
H26B C26B 1_555 1_555
C27B C26B 1_555 1_555
H27B C27B 1_555 1_555
C28B C27B 1_555 1_555
H28B C28B 1_555 1_555
C29B C28B 1_555 1_555
C30B C29B 1_555 1_555
H29B C30B 1_555 1_555
H30B C30B 1_555 1_555
C31B H31B 1_555 1_555
H32B C31B 1_555 1_555
C32B C31B 1_555 1_555
C33B C32B 1_555 1_555
H33B C33B 1_555 1_555
C34B C33B 1_555 1_555
H34B C34B 1_555 1_555
C35B C34B 1_555 1_555
H35B C35B 1_555 1_555
C36B C35B 1_555 1_555
H36B C36B 1_555 1_555
C37B Cr1 1_555 1_555
C38B Cr1 1_555 1_555
C39B Cr1 1_555 1_555
C40B N13B 1_555 1_555
C40B_2 Cr2 1_555 1_555
C41B Cr2 1_555 1_555
C42B Cr2 1_555 1_555
C43B N16B 1_555 1_555
C44B Cr3B 1_555 1_555
C45B Cr3B 1_555 1_555
C46B Cr3B 1_555 1_555
C47B Cr3B 1_555 1_555
C48B N21B 1_555 1_555
C48A Cr3 1_555 1_555
C48C Cr3B 1_555 1_555
N1B C1B 1_555 1_555
N2B Cu1B 1_555 1_555
H37B N2B 1_555 1_555
N3B Cu1B 1_555 1_555
N4B C13B 1_555 1_555
N5B Cu2B 1_555 1_555
H38B N5B 1_555 1_555
N6B Cu2B 1_555 1_555
N7B C25B 1_555 1_555
N8B Cu3B 1_555 1_555
H39B N8B 1_555 1_555
N9B Cu3B 1_555 1_555
N10B Cu1B 1_555 1_555
N11B C38B 1_555 1_555
N12B C39B 1_555 1_555
N13B Cu1B 1_555 1_555
N14B Cu2B 1_555 1_555
N15B Cu3B 1_555 1_555
N16B Cu2B 1_555 1_555
N17B C44B 1_555 1_555
N18B C45B 1_555 1_555
N19B C46B 1_555 1_555
N20B C47B 1_555 1_555
N21B Cu3B 1_555 1_555
C5 N1 1_555 1_555
C6 N2 1_555 1_555
C7 N2 1_555 1_555
C8 N3 1_555 1_555
C12 N3 1_555 1_555
C17 N4 1_555 1_555
C18 N5 1_555 1_555
C19 N5 1_555 1_555
C20 N6 1_555 1_555
C24 N6 1_555 1_555
C29 N7 1_555 1_555
C30 N8 1_555 1_555
C31 N8 1_555 1_555
C32 N9 1_555 1_555
C36 N9 1_555 1_555
C41 N14 1_555 1_555
C42 N15 1_555 1_555
C5B N1B 1_555 1_555
C6B N2B 1_555 1_555
C7B N2B 1_555 1_555
C8B N3B 1_555 1_555
C12B N3B 1_555 1_555
C17B N4B 1_555 1_555
C18B N5B 1_555 1_555
C19B N5B 1_555 1_555
C20B N6B 1_555 1_555
C24B N6B 1_555 1_555
C29B N7B 1_555 1_555
C30B N8B 1_555 1_555
C31B N8B 1_555 1_555
C32B N9B 1_555 1_555
C36B N9B 1_555 1_555
C37B N10B 1_555 1_555
C41B N14B 1_555 1_555
C42B N15B 1_555 1_555

#END
