
#######################################################################
#
#                 Cambridge Crystallographic Data Centre
#                                CCDC 
#
#######################################################################
#
# If this CIF has been generated from an entry in the Cambridge 
# Structural Database, then it will include bibliographic, chemical, 
# crystal, experimental, refinement or atomic coordinate data resulting 
# from the CCDC's data processing and validation procedures.
#
#######################################################################

data_JEJKEP
_symmetry_cell_setting           orthorhombic
_symmetry_space_group_name_H-M   'P b c n'
_symmetry_Int_Tables_number      60
_space_group_name_Hall           '-P 2n 2ab'
loop_
_symmetry_equiv_pos_site_id
_symmetry_equiv_pos_as_xyz
1 x,y,z
2 1/2-x,1/2-y,1/2+z
3 -x,y,1/2-z
4 1/2+x,1/2-y,-z
5 -x,-y,-z
6 1/2+x,1/2+y,1/2-z
7 x,-y,1/2+z
8 1/2-x,1/2+y,z
_cell_length_a                   9.3582(19)
_cell_length_b                   10.953(2)
_cell_length_c                   24.370(5)
_cell_angle_alpha                90
_cell_angle_beta                 90
_cell_angle_gamma                90
_cell_volume                     2497.93
loop_
_atom_site_label
_atom_site_type_symbol
_atom_site_fract_x
_atom_site_fract_y
_atom_site_fract_z
Co1 Co 0.24265(4) 0.72987(4) 0.038379(15)
O1 O 0.3350(2) 0.8984(2) 0.05252(9)
O2 O 0.3539(2) 1.07694(19) 0.00924(10)
O3 O 0.3250(2) 0.77388(19) -0.04214(8)
O4 O 0.0616(2) 0.82765(19) 0.00837(8)
O5 O -0.0769(2) 0.8708(2) -0.06333(9)
N1 N 0.1519(3) 0.7291(2) 0.11714(11)
C1 C 0.3355(3) 0.9641(3) 0.01039(13)
C2 C 0.3123(3) 0.9039(3) -0.04584(12)
H1 H 0.3845 0.9346 -0.0715
C3 C 0.1643(3) 0.9323(3) -0.06857(13)
H2 H 0.1502 1.0200 -0.0673
H3 H 0.1619 0.9079 -0.1068
C4 C 0.0414(3) 0.8723(3) -0.03953(12)
C5 C 0.0965(4) 0.8307(3) 0.13871(14)
H4 H 0.0995 0.9017 0.1178
C6 C 0.0355(4) 0.8368(3) 0.18982(15)
H5 H -0.0030 0.9096 0.2027
C7 C 0.0323(4) 0.7313(3) 0.22213(14)
C8 C 0.0885(5) 0.6258(4) 0.19965(15)
H6 H 0.0873 0.5532 0.2194
C9 C 0.1463(5) 0.6290(3) 0.14787(14)
H7 H 0.1836 0.5571 0.1335
Co1G Co 0.25735(4) 0.22987(4) 0.038379(15)
Co1G_2 Co 0.25735(4) 1.22987(4) 0.038379(15)
Co1C Co -0.25735(4) 0.77013(4) -0.038379(15)
Co1B Co -0.24265(4) 0.72987(4) 0.461621(15)
Co1D Co 0.75735(4) 0.27013(4) -0.038379(15)
O1G O 0.1650(2) 0.3984(2) 0.05252(9)
O2G O 0.1461(2) 0.57694(19) 0.00924(10)
O2_2 O 0.3539(2) 0.07694(19) 0.00924(10)
O3G O 0.1750(2) 0.27388(19) -0.04214(8)
O4G O 0.4384(2) 0.32765(19) 0.00837(8)
O5G O 0.5769(2) 0.3708(2) -0.06333(9)
O5C O 0.4231(2) 0.6292(2) 0.06333(9)
O5D O 0.0769(2) 0.1292(2) 0.06333(9)
N1B N -0.1519(3) 0.7291(2) 0.38286(11)
N1G N 0.3481(3) 0.2291(2) 0.11714(11)
C1G C 0.1645(3) 0.4641(3) 0.01039(13)
C2G C 0.1877(3) 0.4039(3) -0.04584(12)
H1G H 0.1155 0.4346 -0.0715
C3G C 0.3357(3) 0.4323(3) -0.06857(13)
H2G H 0.3498 0.5200 -0.0673
H3G H 0.3381 0.4079 -0.1068
C4G C 0.4586(3) 0.3723(3) -0.03953(12)
C5B C -0.0965(4) 0.8307(3) 0.36129(14)
H4B H -0.0995 0.9017 0.3822
C6B C -0.0355(4) 0.8368(3) 0.31018(15)
H5B H 0.0030 0.9096 0.2973
C7B C -0.0323(4) 0.7313(3) 0.27787(14)
C8B C -0.0885(5) 0.6258(4) 0.30035(15)
H6B H -0.0873 0.5532 0.2806
C9B C -0.1463(5) 0.6290(3) 0.35213(14)
H7B H -0.1836 0.5571 0.3665
O6 O 0.1006(12) 1.3479(6) 0.3682(6)
loop_
_geom_bond_atom_site_label_1
_geom_bond_atom_site_label_2
_geom_bond_site_symmetry_1
_geom_bond_site_symmetry_2
Co1 O1 1_555 1_555
O1 C1 1_555 1_555
O2 C1 1_555 1_555
O3 Co1 1_555 1_555
O4 Co1 1_555 1_555
O5 C4 1_555 1_555
N1 Co1 1_555 1_555
C1 C2 1_555 1_555
C2 O3 1_555 1_555
H1 C2 1_555 1_555
C3 C2 1_555 1_555
H2 C3 1_555 1_555
H3 C3 1_555 1_555
C4 O4 1_555 1_555
C5 N1 1_555 1_555
H4 C5 1_555 1_555
C6 C5 1_555 1_555
H5 C6 1_555 1_555
C7 C6 1_555 1_555
C8 C7 1_555 1_555
H6 C8 1_555 1_555
C9 N1 1_555 1_555
H7 C9 1_555 1_555
Co1G O1G 1_555 1_555
Co1G_2 O2 1_555 1_555
Co1C O5 1_555 1_555
Co1B N1B 1_555 1_555
Co1D O5G 1_555 1_555
O1G C1G 1_555 1_555
O2G Co1 1_555 1_555
O2_2 Co1G 1_555 1_555
O3G Co1G 1_555 1_555
O4G Co1G 1_555 1_555
O5G C4G 1_555 1_555
O5C Co1 1_555 1_555
O5D Co1G 1_555 1_555
N1B C5B 1_555 1_555
N1G Co1G 1_555 1_555
C1G O2G 1_555 1_555
C2G O3G 1_555 1_555
H1G C2G 1_555 1_555
C3G C2G 1_555 1_555
H2G C3G 1_555 1_555
H3G C3G 1_555 1_555
C4G O4G 1_555 1_555
C5B H4B 1_555 1_555
C6B C5B 1_555 1_555
H5B C6B 1_555 1_555
C7B C7 1_555 1_555
C8B C7B 1_555 1_555
H6B C8B 1_555 1_555
C9B N1B 1_555 1_555
H7B C9B 1_555 1_555
C3 C4 1_555 1_555
C8 C9 1_555 1_555
C1G C2G 1_555 1_555
C3G C4G 1_555 1_555
C6B C7B 1_555 1_555
C8B C9B 1_555 1_555

#END
