
#######################################################################
#
#                 Cambridge Crystallographic Data Centre
#                                CCDC 
#
#######################################################################
#
# If this CIF has been generated from an entry in the Cambridge 
# Structural Database, then it will include bibliographic, chemical, 
# crystal, experimental, refinement or atomic coordinate data resulting 
# from the CCDC's data processing and validation procedures.
#
#######################################################################

data_JEMNAR
_symmetry_cell_setting           monoclinic
_symmetry_space_group_name_H-M   'P 21/c'
_symmetry_Int_Tables_number      14
_space_group_name_Hall           '-P 2ybc'
loop_
_symmetry_equiv_pos_site_id
_symmetry_equiv_pos_as_xyz
1 x,y,z
2 -x,1/2+y,1/2-z
3 -x,-y,-z
4 x,1/2-y,1/2+z
_cell_length_a                   13.104(3)
_cell_length_b                   9.3549(19)
_cell_length_c                   10.883(2)
_cell_angle_alpha                90
_cell_angle_beta                 113.08(3)
_cell_angle_gamma                90
_cell_volume                     1227.33
loop_
_atom_site_label
_atom_site_type_symbol
_atom_site_fract_x
_atom_site_fract_y
_atom_site_fract_z
Ni1 Ni 0.42563(5) 0.23839(6) 0.19334(6)
O1 O 0.3962(3) 0.3310(4) 0.3462(4)
O2 O 0.4862(4) 0.3545(4) 0.5674(4)
O3 O 0.5854(3) 0.3191(4) 0.3067(4)
O4 O 0.4841(3) 0.0576(4) 0.3144(4)
O5 O 0.6255(3) -0.0844(4) 0.4288(4)
N1 N 0.2709(4) 0.1494(5) 0.1194(5)
C1 C 0.4820(5) 0.3320(5) 0.4522(5)
C2 C 0.5944(4) 0.3075(5) 0.4427(5)
H1 H 0.6470 0.3797 0.4970
C3 C 0.6402(5) 0.1594(6) 0.4940(5)
H2 H 0.7173 0.1559 0.5050
H3 H 0.6383 0.1462 0.5814
C4 C 0.5793(4) 0.0364(5) 0.4055(5)
C5 C 0.2267(5) 0.1004(7) 0.2018(6)
H4 H 0.2689 0.1063 0.2931
C6 C 0.1226(5) 0.0413(8) 0.1609(7)
H5 H 0.0960 0.0082 0.2234
C7 C 0.0573(5) 0.0316(8) 0.0247(7)
C8 C 0.1038(6) 0.0790(11) -0.0603(7)
H6 H 0.0636 0.0735 -0.1520
C9 C 0.2100(5) 0.1353(10) -0.0114(7)
H7 H 0.2402 0.1643 -0.0718
Ni1C Ni 0.42563(5) 0.26161(6) -0.30666(6)
Ni1C_2 Ni 0.42563(5) 0.26161(6) 0.69334(6)
Ni1A Ni 0.57437(5) -0.26161(6) 0.30666(6)
Ni1B Ni -0.42563(5) -0.23839(6) -0.19334(6)
Ni1B_2 Ni 0.57437(5) 0.76161(6) -0.19334(6)
O1C O 0.3962(3) 0.1690(4) -0.1538(4)
O2C O 0.4862(4) 0.1455(4) 0.0674(4)
O2_2 O 0.4862(4) 0.3545(4) -0.4326(4)
O3C O 0.5854(3) 0.1809(4) -0.1933(4)
O4C O 0.4841(3) 0.4424(4) -0.1856(4)
O5C O 0.6255(3) 0.5844(4) -0.0712(4)
O5A O 0.3745(3) 0.4156(4) 0.0712(4)
O5B O 0.3745(3) 0.0844(4) -0.4288(4)
N1B N -0.2709(4) -0.1494(5) -0.1194(5)
N1C N 0.2709(4) 0.3506(5) -0.3806(5)
C1C C 0.4820(5) 0.1680(5) -0.0478(5)
C2C C 0.5944(4) 0.1925(5) -0.0573(5)
H1C H 0.6470 0.1203 -0.0030
C3C C 0.6402(5) 0.3406(6) -0.0060(5)
H2C H 0.7173 0.3441 0.0050
H3C H 0.6383 0.3538 0.0814
C4C C 0.5793(4) 0.4636(5) -0.0945(5)
C5B C -0.2267(5) -0.1004(7) -0.2018(6)
H4B H -0.2689 -0.1063 -0.2931
C6B C -0.1226(5) -0.0413(8) -0.1609(7)
H5B H -0.0960 -0.0082 -0.2234
C7B C -0.0573(5) -0.0316(8) -0.0247(7)
C8B C -0.1038(6) -0.0790(11) 0.0603(7)
H6B H -0.0636 -0.0735 0.1520
C9B C -0.2100(5) -0.1353(10) 0.0114(7)
H7B H -0.2402 -0.1643 0.0718
O6 O 0.7465(10) 0.0884(15) 0.2596(12)
loop_
_geom_bond_atom_site_label_1
_geom_bond_atom_site_label_2
_geom_bond_site_symmetry_1
_geom_bond_site_symmetry_2
Ni1 O1 1_555 1_555
O1 C1 1_555 1_555
O2 C1 1_555 1_555
O3 Ni1 1_555 1_555
O4 Ni1 1_555 1_555
O5 C4 1_555 1_555
N1 Ni1 1_555 1_555
C1 C2 1_555 1_555
C2 O3 1_555 1_555
H1 C2 1_555 1_555
C3 C2 1_555 1_555
H2 C3 1_555 1_555
H3 C3 1_555 1_555
C4 O4 1_555 1_555
C5 N1 1_555 1_555
H4 C5 1_555 1_555
C6 C5 1_555 1_555
H5 C6 1_555 1_555
C7 C6 1_555 1_555
C8 C7 1_555 1_555
H6 C8 1_555 1_555
C9 N1 1_555 1_555
H7 C9 1_555 1_555
Ni1C O1C 1_555 1_555
Ni1C_2 O2 1_555 1_555
Ni1A O5 1_555 1_555
Ni1B N1B 1_555 1_555
Ni1B_2 O5C 1_555 1_555
O1C C1C 1_555 1_555
O2C Ni1 1_555 1_555
O2_2 Ni1C 1_555 1_555
O3C Ni1C 1_555 1_555
O4C Ni1C 1_555 1_555
O5C C4C 1_555 1_555
O5A Ni1 1_555 1_555
O5B Ni1C 1_555 1_555
N1B C5B 1_555 1_555
N1C Ni1C 1_555 1_555
C1C O2C 1_555 1_555
C2C O3C 1_555 1_555
H1C C2C 1_555 1_555
C3C C2C 1_555 1_555
H2C C3C 1_555 1_555
H3C C3C 1_555 1_555
C4C O4C 1_555 1_555
C5B H4B 1_555 1_555
C6B C5B 1_555 1_555
H5B C6B 1_555 1_555
C7B C7 1_555 1_555
C8B C7B 1_555 1_555
H6B C8B 1_555 1_555
C9B N1B 1_555 1_555
H7B C9B 1_555 1_555
C3 C4 1_555 1_555
C8 C9 1_555 1_555
C1C C2C 1_555 1_555
C3C C4C 1_555 1_555
C6B C7B 1_555 1_555
C8B C9B 1_555 1_555

#END
