
#######################################################################
#
#                 Cambridge Crystallographic Data Centre
#                                CCDC 
#
#######################################################################
#
# If this CIF has been generated from an entry in the Cambridge 
# Structural Database, then it will include bibliographic, chemical, 
# crystal, experimental, refinement or atomic coordinate data resulting 
# from the CCDC's data processing and validation procedures.
#
#######################################################################

data_JIVSEN
_symmetry_cell_setting           monoclinic
_symmetry_space_group_name_H-M   'C 2'
_symmetry_Int_Tables_number      5
_space_group_name_Hall           'C 2y'
loop_
_symmetry_equiv_pos_site_id
_symmetry_equiv_pos_as_xyz
1 x,y,z
2 -x,y,-z
3 1/2+x,1/2+y,z
4 1/2-x,1/2+y,-z
_cell_length_a                   36.936(4)
_cell_length_b                   7.0081(6)
_cell_length_c                   6.2127(7)
_cell_angle_alpha                90
_cell_angle_beta                 97.246(6)
_cell_angle_gamma                90
_cell_volume                     1595.32
loop_
_atom_site_label
_atom_site_type_symbol
_atom_site_fract_x
_atom_site_fract_y
_atom_site_fract_z
Cl1 Cl -0.0157(2) 1.2260(19) 0.7483(14)
O8 O 0.007(2) 1.265(11) 0.606(10)
O9 O -0.0258(6) 1.387(3) 0.658(4)
O10 O -0.0342(6) 1.039(4) 0.735(3)
O11 O 0.0000 1.224(3) 1.0000
Cl1A Cl 0.0157(2) 1.2260(19) 1.2517(14)
Cl1A_2 Cl 0.0157(2) 1.2260(19) 0.2517(14)
O8A O -0.007(2) 1.265(11) 0.394(10)
O8A_2 O -0.007(2) 1.265(11) 1.394(10)
O9A O 0.0258(6) 1.387(3) 1.342(4)
O10A O 0.0342(6) 1.039(4) 1.265(3)
Sm1 Sm 0.219898(6) 0.68939(14) 0.52263(3)
Cu1 Cu 0.0000 0.6916(12) 1.0000
O1 O 0.15337(13) 0.7453(7) 0.4899(7)
O2 O 0.18038(11) 0.6689(17) 0.8097(6)
O3 O 0.27283(17) 0.5303(10) 0.3484(9)
O4 O 0.2791(2) 0.8383(10) 0.4101(11)
O5 O 0.26661(10) 0.6658(11) -0.1622(6)
O6 O 0.2961(3) 0.3910(12) -0.2251(15)
N1 N 0.04657(15) 0.685(4) 0.9040(10)
C1 C 0.15174(15) 0.700(3) 0.6834(9)
C2 C 0.11495(15) 0.695(3) 0.7665(8)
C3 C 0.11081(19) 0.6419(11) 0.9733(12)
H1 H 0.1311 0.6088 1.0704
C4 C 0.0765(2) 0.6380(14) 1.0377(14)
H2 H 0.0741 0.6013 1.1790
C5 C 0.0508(2) 0.7569(15) 0.7070(15)
H3 H 0.0305 0.8034 0.6191
C6 C 0.0849(2) 0.7632(12) 0.6310(14)
H4 H 0.0874 0.8117 0.4944
C7 C 0.3599(2) 0.5947(10) -0.0526(11)
H5 H 0.3613 0.5438 -0.1896
C8 C 0.39151(18) 0.657(2) 0.0712(12)
H6 H 0.4138 0.6504 0.0170
C9 C 0.38947(19) 0.7288(11) 0.2750(13)
H7 H 0.4107 0.7679 0.3606
C10 C 0.35636(19) 0.7436(9) 0.3539(11)
H8 H 0.3554 0.7939 0.4917
C11 C 0.32464(12) 0.685(2) 0.2315(7)
C12 C 0.32635(16) 0.6062(9) 0.0227(9)
C13 C 0.28983(13) 0.676(2) 0.3326(8)
C14 C 0.29324(17) 0.5469(9) -0.1297(9)
O7 O 0.1971(3) 0.5081(12) 0.2030(14)
Sm1A Sm -0.219898(6) 0.68939(14) 1.47737(3)
Sm1C Sm 0.280102(6) 0.18939(14) 0.47737(3)
Sm1C_2 Sm 0.280102(6) 1.18939(14) 0.47737(3)
Sm1_2 Sm 0.219898(6) 0.68939(14) -0.47737(3)
Sm1C_3 Sm 0.280102(6) 0.18939(14) -0.52263(3)
Sm1_3 Sm 0.219898(6) 1.68939(14) 0.52263(3)
Sm1C_4 Sm 0.280102(6) 1.18939(14) 1.47737(3)
Sm1_4 Sm 0.219898(6) 0.68939(14) 1.52263(3)
O1A O -0.15337(13) 0.7453(7) 1.5101(7)
O2A O -0.18038(11) 0.6689(17) 1.1903(6)
O3C O 0.22717(17) 1.0303(10) 0.6516(9)
O3A O -0.27283(17) 0.5303(10) 1.6516(9)
O3B O -0.22717(17) 1.0303(10) 1.3484(9)
O4C O 0.2209(2) 1.3383(10) 0.5899(11)
O4C_2 O 0.2209(2) 0.3383(10) 0.5899(11)
O4A O -0.2791(2) 0.8383(10) 1.5899(11)
O4B O -0.2209(2) 0.3383(10) 1.4101(11)
O5C O 0.23339(10) 1.1658(11) 1.1622(6)
O5_2 O 0.26661(10) 0.6658(11) 0.8378(6)
O5A O -0.26661(10) 0.6658(11) 1.1622(6)
O6C O 0.2039(3) 0.8910(12) 1.2251(15)
O6C_2 O 0.2039(3) 0.8910(12) 0.2251(15)
O6B O -0.2039(3) 0.8910(12) 1.7749(15)
N1A N -0.04657(15) 0.685(4) 1.0960(10)
C1A C -0.15174(15) 0.700(3) 1.3166(9)
C2A C -0.11495(15) 0.695(3) 1.2335(8)
C3A C -0.11081(19) 0.6419(11) 1.0267(12)
H1A H -0.1311 0.6088 0.9296
C4A C -0.0765(2) 0.6380(14) 0.9623(14)
H2A H -0.0741 0.6013 0.8210
C5A C -0.0508(2) 0.7569(15) 1.2930(15)
H3A H -0.0305 0.8034 1.3809
C6A C -0.0849(2) 0.7632(12) 1.3690(14)
H4A H -0.0874 0.8117 1.5056
C7C C 0.1401(2) 1.0947(10) 1.0526(11)
H5C H 0.1387 1.0438 1.1896
C8C C 0.10849(18) 1.157(2) 0.9288(12)
H6C H 0.0862 1.1504 0.9830
C9C C 0.11053(19) 1.2288(11) 0.7250(13)
H7C H 0.0893 1.2679 0.6394
C10C C 0.14364(19) 1.2436(9) 0.6461(11)
H8C H 0.1446 1.2939 0.5083
C11C C 0.17536(12) 1.185(2) 0.7685(7)
C12C C 0.17365(16) 1.1062(9) 0.9773(9)
C13C C 0.21017(13) 1.176(2) 0.6674(8)
C14C C 0.20676(17) 1.0469(9) 1.1297(9)
O7A O -0.1971(3) 0.5081(12) 1.7970(14)
loop_
_geom_bond_atom_site_label_1
_geom_bond_atom_site_label_2
_geom_bond_site_symmetry_1
_geom_bond_site_symmetry_2
Sm1 O1 1_555 1_555
Cu1 N1 1_555 1_555
O1 C1 1_555 1_555
O2 Sm1 1_555 1_555
O3 Sm1 1_555 1_555
O4 Sm1 1_555 1_555
O5 C14 1_555 1_555
O6 C14 1_555 1_555
N1 C4 1_555 1_555
C1 O2 1_555 1_555
C2 C1 1_555 1_555
C3 C2 1_555 1_555
H1 C3 1_555 1_555
C4 C3 1_555 1_555
H2 C4 1_555 1_555
C5 N1 1_555 1_555
H3 C5 1_555 1_555
C6 C2 1_555 1_555
H4 C6 1_555 1_555
C7 H5 1_555 1_555
C8 C7 1_555 1_555
H6 C8 1_555 1_555
C9 C8 1_555 1_555
H7 C9 1_555 1_555
C10 C9 1_555 1_555
H8 C10 1_555 1_555
C11 C10 1_555 1_555
C12 C7 1_555 1_555
C13 O3 1_555 1_555
C14 C12 1_555 1_555
O7 Sm1 1_555 1_555
Cl1 O8 1_555 1_555
O8 O8A 1_555 1_555
O9 Cl1 1_555 1_555
O10 Cl1 1_555 1_555
O11 Cl1 1_555 1_555
Sm1A O1A 1_555 1_555
Sm1C O3 1_555 1_555
Sm1C_2 O4 1_555 1_555
Sm1_2 O5 1_555 1_555
Sm1C_3 O6 1_555 1_555
Sm1_3 O4C 1_555 1_555
Sm1C_4 O5C 1_555 1_555
Sm1_4 O6C 1_555 1_555
O1A C1A 1_555 1_555
O2A Sm1A 1_555 1_555
O3C Sm1 1_555 1_555
O3A Sm1A 1_555 1_555
O3B Sm1A 1_555 1_555
O4C Sm1C_2 1_555 1_555
O4C_2 Sm1 1_555 1_555
O4A Sm1A 1_555 1_555
O4B Sm1A 1_555 1_555
O5C C14C 1_555 1_555
O5_2 Sm1 1_555 1_555
O5A Sm1A 1_555 1_555
O6C C14C 1_555 1_555
O6C_2 Sm1 1_555 1_555
O6B Sm1A 1_555 1_555
N1A Cu1 1_555 1_555
C1A O2A 1_555 1_555
C2A C1A 1_555 1_555
C3A C2A 1_555 1_555
H1A C3A 1_555 1_555
C4A N1A 1_555 1_555
H2A C4A 1_555 1_555
C5A N1A 1_555 1_555
H3A C5A 1_555 1_555
C6A C2A 1_555 1_555
H4A C6A 1_555 1_555
C7C H5C 1_555 1_555
C8C C7C 1_555 1_555
H6C C8C 1_555 1_555
C9C C8C 1_555 1_555
H7C C9C 1_555 1_555
C10C C9C 1_555 1_555
H8C C10C 1_555 1_555
C11C C10C 1_555 1_555
C12C C7C 1_555 1_555
C13C O3C 1_555 1_555
C14C C12C 1_555 1_555
O7A Sm1A 1_555 1_555
Cl1A O11 1_555 1_555
Cl1A_2 O8A 1_555 1_555
O8A_2 Cl1A 1_555 1_555
O9A Cl1A 1_555 1_555
O10A Cl1A 1_555 1_555
O4 C13 1_555 1_555
C5 C6 1_555 1_555
C11 C12 1_555 1_555
C11 C13 1_555 1_555
Sm1C O4C_2 1_555 1_555
Sm1C_2 O3C 1_555 1_555
O4C C13C 1_555 1_555
C3A C4A 1_555 1_555
C5A C6A 1_555 1_555
C11C C12C 1_555 1_555
C11C C13C 1_555 1_555

#END
