
#######################################################################
#
#                 Cambridge Crystallographic Data Centre
#                                CCDC 
#
#######################################################################
#
# If this CIF has been generated from an entry in the Cambridge 
# Structural Database, then it will include bibliographic, chemical, 
# crystal, experimental, refinement or atomic coordinate data resulting 
# from the CCDC's data processing and validation procedures.
#
#######################################################################

data_JOCWIJ
_symmetry_cell_setting           cubic
_symmetry_space_group_name_H-M   'I -4 3 m'
_symmetry_Int_Tables_number      217
_space_group_name_Hall           'I -4 2 3'
loop_
_symmetry_equiv_pos_site_id
_symmetry_equiv_pos_as_xyz
1 x,y,z
2 -x,-y,z
3 -x,y,-z
4 x,-y,-z
5 z,x,y
6 z,-x,-y
7 -z,-x,y
8 -z,x,-y
9 y,z,x
10 -y,z,-x
11 y,-z,-x
12 -y,-z,x
13 y,x,z
14 -y,-x,z
15 y,-x,-z
16 -y,x,-z
17 x,z,y
18 -x,z,-y
19 -x,-z,y
20 x,-z,-y
21 z,y,x
22 z,-y,-x
23 -z,y,-x
24 -z,-y,x
25 1/2+x,1/2+y,1/2+z
26 1/2-x,1/2-y,1/2+z
27 1/2-x,1/2+y,1/2-z
28 1/2+x,1/2-y,1/2-z
29 1/2+z,1/2+x,1/2+y
30 1/2+z,1/2-x,1/2-y
31 1/2-z,1/2-x,1/2+y
32 1/2-z,1/2+x,1/2-y
33 1/2+y,1/2+z,1/2+x
34 1/2-y,1/2+z,1/2-x
35 1/2+y,1/2-z,1/2-x
36 1/2-y,1/2-z,1/2+x
37 1/2+y,1/2+x,1/2+z
38 1/2-y,1/2-x,1/2+z
39 1/2+y,1/2-x,1/2-z
40 1/2-y,1/2+x,1/2-z
41 1/2+x,1/2+z,1/2+y
42 1/2-x,1/2+z,1/2-y
43 1/2-x,1/2-z,1/2+y
44 1/2+x,1/2-z,1/2-y
45 1/2+z,1/2+y,1/2+x
46 1/2+z,1/2-y,1/2-x
47 1/2-z,1/2+y,1/2-x
48 1/2-z,1/2-y,1/2+x
_cell_length_a                   21.1373(3)
_cell_length_b                   21.1373(3)
_cell_length_c                   21.1373(3)
_cell_angle_alpha                90
_cell_angle_beta                 90
_cell_angle_gamma                90
_cell_volume                     9443.84
loop_
_atom_site_label
_atom_site_type_symbol
_atom_site_fract_x
_atom_site_fract_y
_atom_site_fract_z
Cu1 Cu 0.19330(3) 0.30688(4) 0.19330(3)
N1 N 0.13138(19) 0.3089(2) 0.26276(18)
N2 N 0.0530(2) 0.32554(18) 0.32554(18)
O1 O 0.2432(3) 0.2432(3) 0.2432(3)
O2 O -0.0596(3) 0.28035(18) 0.28035(18)
O3 O -0.1158(2) 0.34333(16) 0.34333(16)
C1 C 0.0822(2) 0.3454(2) 0.2735(2)
H1 H 0.0698 0.3795 0.2486
C2 C -0.0068(3) 0.3515(2) 0.3515(2)
H2 H -0.0079 0.3963 0.3438
C3 C -0.0644(3) 0.3217(3) 0.3217(3)
H3 H 0.2670 0.2670 0.2670
O4 O 0.1352(3) 0.2398(3) 0.1352(3)
H4 H 0.1424 0.2475 0.0963
N1P N 0.13138(19) 0.26276(18) 0.3089(2)
C1P C 0.0822(2) 0.2735(2) 0.3454(2)
H1P H 0.0698 0.2486 0.3795
H2P H -0.0079 0.3438 0.3963
H4T H 0.0963 0.2475 0.1424
Cu1D Cu 0.19330(3) 0.19330(3) 0.30688(4)
N1D N 0.26276(18) 0.13138(19) 0.3089(2)
N2D N 0.32554(18) 0.0530(2) 0.32554(18)
O2D O 0.28035(18) -0.0596(3) 0.28035(18)
O3D O 0.34333(16) -0.1158(2) 0.34333(16)
C1D C 0.2735(2) 0.0822(2) 0.3454(2)
H1D H 0.2486 0.0698 0.3795
C2D C 0.3515(2) -0.0068(3) 0.3515(2)
H2D H 0.3438 -0.0079 0.3963
C3D C 0.3217(3) -0.0644(3) 0.3217(3)
O4D O 0.1352(3) 0.1352(3) 0.2398(3)
H4D H 0.0963 0.1424 0.2475
N1L N 0.3089(2) 0.13138(19) 0.26276(18)
C1L C 0.3454(2) 0.0822(2) 0.2735(2)
H1L H 0.3795 0.0698 0.2486
H2L H 0.3963 -0.0079 0.3438
H4P H 0.1424 0.0963 0.2475
Cu1H Cu 0.30688(4) 0.19330(3) 0.19330(3)
N1H N 0.3089(2) 0.26276(18) 0.13138(19)
N2H N 0.32554(18) 0.32554(18) 0.0530(2)
O2H O 0.28035(18) 0.28035(18) -0.0596(3)
O3H O 0.34333(16) 0.34333(16) -0.1158(2)
C1H C 0.3454(2) 0.2735(2) 0.0822(2)
H1H H 0.3795 0.2486 0.0698
C2H C 0.3515(2) 0.3515(2) -0.0068(3)
H2H H 0.3963 0.3438 -0.0079
C3H C 0.3217(3) 0.3217(3) -0.0644(3)
O4H O 0.2398(3) 0.1352(3) 0.1352(3)
H4H H 0.2475 0.0963 0.1424
N1T N 0.26276(18) 0.3089(2) 0.13138(19)
C1T C 0.2735(2) 0.3454(2) 0.0822(2)
H1T H 0.2486 0.3795 0.0698
H2T H 0.3438 0.3963 -0.0079
H4L H 0.2475 0.1424 0.0963
Cu1Z Cu 0.30670(3) -0.19312(4) 0.30670(3)
Cu1DA Cu 0.30670(3) 0.30670(3) -0.19312(4)
Cu1HA Cu -0.19312(4) 0.30670(3) 0.30670(3)
O3AA O 0.3842(2) 0.15667(16) 0.15667(16)
O3EA O 0.15667(16) 0.3842(2) 0.15667(16)
O3IA O 0.15667(16) 0.15667(16) 0.3842(2)
O5 O 0.00870(19) 0.55704(17) 0.2107(2)
S1 S 0.0000 0.5000 0.2500
O5A O -0.00870(19) 0.44296(17) 0.2107(2)
O5LA O 0.05704(17) 0.49130(19) 0.2893(2)
O5MA O -0.05704(17) 0.50870(19) 0.2893(2)
O6 O 0.0043(6) 0.2671(7) 0.1430(8)
H5 H -0.0188 0.2405 0.1238
H6 H -0.0092 0.2647 0.1839
O7 O 0.3127(7) 0.3127(7) 0.3127(7)
O8 O 0.0001(4) 0.6039(5) 0.0932(4)
O9 O 0.0000 0.0000 0.0000
loop_
_geom_bond_atom_site_label_1
_geom_bond_atom_site_label_2
_geom_bond_site_symmetry_1
_geom_bond_site_symmetry_2
Cu1 N1 1_555 1_555
N1 C1 1_555 1_555
N2 C1 1_555 1_555
O1 Cu1 1_555 1_555
O2 C3 1_555 1_555
O3 C3 1_555 1_555
C1 H1 1_555 1_555
C2 N2 1_555 1_555
H2 C2 1_555 1_555
C3 C2 1_555 1_555
H3 O1 1_555 1_555
O4 Cu1 1_555 1_555
H4 O4 1_555 1_555
O5 S1 1_555 1_555
S1 O5A 1_555 1_555
O6 H5 1_555 1_555
H6 O6 1_555 1_555
N1P N1 1_555 1_555
C1P N2 1_555 1_555
H1P C1P 1_555 1_555
H2P C2 1_555 1_555
H4T O4 1_555 1_555
Cu1D O1 1_555 1_555
N1D Cu1D 1_555 1_555
N2D C1D 1_555 1_555
O2D C3D 1_555 1_555
O3D C3D 1_555 1_555
C1D N1D 1_555 1_555
H1D C1D 1_555 1_555
C2D N2D 1_555 1_555
H2D C2D 1_555 1_555
C3D C2D 1_555 1_555
O4D Cu1D 1_555 1_555
H4D O4D 1_555 1_555
N1L N1D 1_555 1_555
C1L N2D 1_555 1_555
H1L C1L 1_555 1_555
H2L C2D 1_555 1_555
H4P O4D 1_555 1_555
Cu1H O1 1_555 1_555
N1H Cu1H 1_555 1_555
N2H C1H 1_555 1_555
O2H C3H 1_555 1_555
O3H C3H 1_555 1_555
C1H N1H 1_555 1_555
H1H C1H 1_555 1_555
C2H N2H 1_555 1_555
H2H C2H 1_555 1_555
C3H C2H 1_555 1_555
O4H Cu1H 1_555 1_555
H4H O4H 1_555 1_555
N1T Cu1 1_555 1_555
C1T N2H 1_555 1_555
H1T C1T 1_555 1_555
H2T C2H 1_555 1_555
H4L O4H 1_555 1_555
Cu1Z O3D 1_555 1_555
Cu1DA O3H 1_555 1_555
Cu1HA O3 1_555 1_555
O3AA Cu1H 1_555 1_555
O3EA Cu1 1_555 1_555
O3IA Cu1D 1_555 1_555
O5LA S1 1_555 1_555
O5MA S1 1_555 1_555
N1P C1P 1_555 1_555
N1P Cu1D 1_555 1_555
N1L C1L 1_555 1_555
N1L Cu1H 1_555 1_555
N1H N1T 1_555 1_555
N1T C1T 1_555 1_555

#END
