
#######################################################################
#
#                 Cambridge Crystallographic Data Centre
#                                CCDC 
#
#######################################################################
#
# If this CIF has been generated from an entry in the Cambridge 
# Structural Database, then it will include bibliographic, chemical, 
# crystal, experimental, refinement or atomic coordinate data resulting 
# from the CCDC's data processing and validation procedures.
#
#######################################################################

data_JODGEQ
_symmetry_cell_setting           tetragonal
_symmetry_space_group_name_H-M   'P 4 21 2'
_symmetry_Int_Tables_number      90
_space_group_name_Hall           'P 4ab 2ab'
loop_
_symmetry_equiv_pos_site_id
_symmetry_equiv_pos_as_xyz
1 x,y,z
2 1/2-y,1/2+x,z
3 -x,-y,z
4 1/2+y,1/2-x,z
5 1/2+x,1/2-y,-z
6 y,x,-z
7 1/2-x,1/2+y,-z
8 -y,-x,-z
_cell_length_a                   17.4848(8)
_cell_length_b                   17.4848(8)
_cell_length_c                   20.2126(9)
_cell_angle_alpha                90
_cell_angle_beta                 90
_cell_angle_gamma                90
_cell_volume                     6179.36
loop_
_atom_site_label
_atom_site_type_symbol
_atom_site_fract_x
_atom_site_fract_y
_atom_site_fract_z
C1 C 0.3726(5) 0.2503(8) 0.6126(4)
C2 C 0.4451(6) 0.2456(8) 0.5742(4)
H1 H 0.4929 0.2407 0.5962
C3 C 0.4419(6) 0.2485(9) 0.5090(4)
H2 H 0.3935 0.2494 0.4877
C4 C 0.5118(5) 0.2502(9) 0.4687(5)
C5 C 0.5135(6) 0.2676(8) 0.4014(4)
H3 H 0.4663 0.2808 0.3811
C6 C 0.5773(5) 0.2675(8) 0.3620(5)
H4 H 0.5732 0.2795 0.3163
C7 C 0.6487(6) 0.2262(8) 0.4495(4)
H5 H 0.6961 0.2084 0.4665
C8 C 0.5822(6) 0.2273(8) 0.4893(5)
H6 H 0.5871 0.2107 0.5339
C9 C 0.7419(8) 0.3829(5) 0.2812(4)
C10 C 0.7422(8) 0.4561(6) 0.2439(5)
H7 H 0.7453 0.5023 0.2685
C11 C 0.7386(9) 0.4609(6) 0.1802(5)
H8 H 0.7327 0.4138 0.1574
C12 C 0.7423(8) 0.5300(5) 0.1379(4)
C13 C 0.7209(7) 0.5235(6) 0.0713(4)
H9 H 0.7087 0.4756 0.0517
C14 C 0.7188(7) 0.5915(5) 0.0360(5)
H10 H 0.7042 0.5882 -0.0092
C15 C 0.7554(7) 0.6638(6) 0.1234(4)
H11 H 0.7745 0.7106 0.1407
C16 C 0.7502(9) 0.6023(5) 0.1656(5)
H12 H 0.7519 0.6091 0.2122
C17 C 0.8534(7) 0.7609(6) -0.0876(6)
C18 C 0.9163(7) 0.7710(9) -0.1351(6)
H13 H 0.9213 0.8202 -0.1546
C19 C 0.9655(7) 0.7197(8) -0.1531(6)
H14 H 0.9573 0.6700 -0.1353
C20 C 1.0320(7) 0.7270(7) -0.1968(6)
C21 C 1.0604(8) 0.6656(8) -0.2289(6)
H15 H 1.0362 0.6176 -0.2219
C22 C 1.1210(8) 0.6679(8) -0.2703(6)
H16 H 1.1420 0.6228 -0.2892
C23 C 1.1231(7) 0.7972(7) -0.2530(6)
H17 H 1.1511 0.8434 -0.2580
C24 C 1.0576(8) 0.7985(8) -0.2153(6)
H18 H 1.0323 0.8445 -0.2030
N1 N 0.6429(5) 0.2507(6) 0.3875(4)
N2 N 0.7353(6) 0.6620(4) 0.0593(3)
N3 N 1.1491(7) 0.7353(6) -0.2827(5)
O1 O 0.8331(6) 0.6968(6) -0.0667(5)
O2 O 0.3099(5) 0.2610(7) 0.5826(4)
O3 O 0.3752(4) 0.2400(5) 0.6734(3)
O4 O 0.7495(5) 0.3829(4) 0.3418(3)
O5 O 0.7245(6) 0.3242(5) 0.2513(4)
O6 O 0.8264(6) 0.8222(6) -0.0644(4)
Co1 Co 0.75611(9) 0.75611(9) 0.0000
Co2 Co 0.74479(9) 0.25788(9) 0.33416(7)
C1E C 0.2503(8) 0.3726(5) -0.6126(4)
C2E C 0.2456(8) 0.4451(6) -0.5742(4)
H1E H 0.2407 0.4929 -0.5962
C3E C 0.2485(9) 0.4419(6) -0.5090(4)
H2E H 0.2494 0.3935 -0.4877
C4E C 0.2502(9) 0.5118(5) -0.4687(5)
C5E C 0.2676(8) 0.5135(6) -0.4014(4)
H3E H 0.2808 0.4663 -0.3811
C6E C 0.2675(8) 0.5773(5) -0.3620(5)
H4E H 0.2795 0.5732 -0.3163
C7E C 0.2262(8) 0.6487(6) -0.4495(4)
H5E H 0.2084 0.6961 -0.4665
C8E C 0.2273(8) 0.5822(6) -0.4893(5)
H6E H 0.2107 0.5871 -0.5339
C9E C 0.3829(5) 0.7419(8) -0.2812(4)
C10E C 0.4561(6) 0.7422(8) -0.2439(5)
H7E H 0.5023 0.7453 -0.2685
C11E C 0.4609(6) 0.7386(9) -0.1802(5)
H8E H 0.4138 0.7327 -0.1574
C12E C 0.5300(5) 0.7423(8) -0.1379(4)
C13E C 0.5235(6) 0.7209(7) -0.0713(4)
H9E H 0.4756 0.7087 -0.0517
C14E C 0.5915(5) 0.7188(7) -0.0360(5)
H10E H 0.5882 0.7042 0.0092
C15E C 0.6638(6) 0.7554(7) -0.1234(4)
H11E H 0.7106 0.7745 -0.1407
C16E C 0.6023(5) 0.7502(9) -0.1656(5)
H12E H 0.6091 0.7519 -0.2122
C17E C 0.7609(6) 0.8534(7) 0.0876(6)
C18E C 0.7710(9) 0.9163(7) 0.1351(6)
H13E H 0.8202 0.9213 0.1546
C19E C 0.7197(8) 0.9655(7) 0.1531(6)
H14E H 0.6700 0.9573 0.1353
C20E C 0.7270(7) 1.0320(7) 0.1968(6)
C21E C 0.6656(8) 1.0604(8) 0.2289(6)
H15E H 0.6176 1.0362 0.2219
C22E C 0.6679(8) 1.1210(8) 0.2703(6)
H16E H 0.6228 1.1420 0.2892
C23E C 0.7972(7) 1.1231(7) 0.2530(6)
H17E H 0.8434 1.1511 0.2580
C24E C 0.7985(8) 1.0576(8) 0.2153(6)
H18E H 0.8445 1.0323 0.2030
N1E N 0.2507(6) 0.6429(5) -0.3875(4)
N2E N 0.6620(4) 0.7353(6) -0.0593(3)
N3E N 0.7353(6) 1.1491(7) 0.2827(5)
O1E O 0.6968(6) 0.8331(6) 0.0667(5)
O2E O 0.2610(7) 0.3099(5) -0.5826(4)
O3E O 0.2400(5) 0.3752(4) -0.6734(3)
O4E O 0.3829(4) 0.7495(5) -0.3418(3)
O5E O 0.3242(5) 0.7245(6) -0.2513(4)
O6E O 0.8222(6) 0.8264(6) 0.0644(4)
Co2E Co 0.25788(9) 0.74479(9) -0.33416(7)
N3_2 N 0.1491(7) 0.7353(6) -0.2827(5)
N3E_2 N 0.7353(6) 0.1491(7) 0.2827(5)
O2A O 0.2390(7) 0.8099(5) -0.4174(4)
O2D O 0.8099(5) 0.2390(7) 0.4174(4)
O3A O 0.2600(5) 0.8752(4) -0.3266(3)
O3D O 0.8752(4) 0.2600(5) 0.3266(3)
Co2_2 Co 0.74479(9) 1.25788(9) 0.33416(7)
Co2A Co 0.24212(9) 0.24479(9) -0.66584(7)
Co2D Co 0.24479(9) 0.24212(9) 0.66584(7)
Co2E_2 Co 1.25788(9) 0.74479(9) -0.33416(7)
loop_
_geom_bond_atom_site_label_1
_geom_bond_atom_site_label_2
_geom_bond_site_symmetry_1
_geom_bond_site_symmetry_2
C1 C2 1_555 1_555
C2 H1 1_555 1_555
C3 C2 1_555 1_555
H2 C3 1_555 1_555
C4 C3 1_555 1_555
C5 C4 1_555 1_555
H3 C5 1_555 1_555
C6 C5 1_555 1_555
H4 C6 1_555 1_555
C7 H5 1_555 1_555
C8 C4 1_555 1_555
H6 C8 1_555 1_555
C9 C10 1_555 1_555
C10 H7 1_555 1_555
C11 C10 1_555 1_555
H8 C11 1_555 1_555
C12 C11 1_555 1_555
C13 C12 1_555 1_555
H9 C13 1_555 1_555
C14 C13 1_555 1_555
H10 C14 1_555 1_555
C15 H11 1_555 1_555
C16 C12 1_555 1_555
H12 C16 1_555 1_555
C17 C18 1_555 1_555
C18 H13 1_555 1_555
C19 C18 1_555 1_555
H14 C19 1_555 1_555
C20 C19 1_555 1_555
C21 C20 1_555 1_555
H15 C21 1_555 1_555
C22 C21 1_555 1_555
H16 C22 1_555 1_555
C23 H17 1_555 1_555
C24 C20 1_555 1_555
H18 C24 1_555 1_555
N1 C6 1_555 1_555
N2 C14 1_555 1_555
N3 C22 1_555 1_555
O1 C17 1_555 1_555
O2 C1 1_555 1_555
O3 C1 1_555 1_555
O4 C9 1_555 1_555
O5 C9 1_555 1_555
O6 C17 1_555 1_555
Co1 N2 1_555 1_555
Co2 N1 1_555 1_555
C1E C2E 1_555 1_555
C2E H1E 1_555 1_555
C3E C2E 1_555 1_555
H2E C3E 1_555 1_555
C4E C3E 1_555 1_555
C5E C4E 1_555 1_555
H3E C5E 1_555 1_555
C6E C5E 1_555 1_555
H4E C6E 1_555 1_555
C7E H5E 1_555 1_555
C8E C4E 1_555 1_555
H6E C8E 1_555 1_555
C9E C10E 1_555 1_555
C10E H7E 1_555 1_555
C11E C10E 1_555 1_555
H8E C11E 1_555 1_555
C12E C11E 1_555 1_555
C13E C12E 1_555 1_555
H9E C13E 1_555 1_555
C14E C13E 1_555 1_555
H10E C14E 1_555 1_555
C15E H11E 1_555 1_555
C16E C12E 1_555 1_555
H12E C16E 1_555 1_555
C17E C18E 1_555 1_555
C18E H13E 1_555 1_555
C19E C18E 1_555 1_555
H14E C19E 1_555 1_555
C20E C19E 1_555 1_555
C21E C20E 1_555 1_555
H15E C21E 1_555 1_555
C22E C21E 1_555 1_555
H16E C22E 1_555 1_555
C23E H17E 1_555 1_555
C24E C20E 1_555 1_555
H18E C24E 1_555 1_555
N1E C6E 1_555 1_555
N2E Co1 1_555 1_555
N3E C22E 1_555 1_555
O1E Co1 1_555 1_555
O2E C1E 1_555 1_555
O3E C1E 1_555 1_555
O4E C9E 1_555 1_555
O5E C9E 1_555 1_555
O6E Co1 1_555 1_555
Co2E N1E 1_555 1_555
N3_2 Co2E 1_555 1_555
N3E_2 Co2 1_555 1_555
O2A Co2E 1_555 1_555
O2D Co2 1_555 1_555
O3A Co2E 1_555 1_555
O3D Co2 1_555 1_555
Co2_2 N3E 1_555 1_555
Co2A O2E 1_555 1_555
Co2D O2 1_555 1_555
Co2E_2 N3 1_555 1_555
C7 C8 1_555 1_555
C7 N1 1_555 1_555
C15 C16 1_555 1_555
C15 N2 1_555 1_555
C23 C24 1_555 1_555
C23 N3 1_555 1_555
O1 Co1 1_555 1_555
O3 Co2D 1_555 1_555
O4 Co2 1_555 1_555
O5 Co2 1_555 1_555
O6 Co1 1_555 1_555
C7E C8E 1_555 1_555
C7E N1E 1_555 1_555
C14E N2E 1_555 1_555
C15E C16E 1_555 1_555
C15E N2E 1_555 1_555
C17E O1E 1_555 1_555
C17E O6E 1_555 1_555
C23E C24E 1_555 1_555
C23E N3E 1_555 1_555
O3E Co2A 1_555 1_555
O4E Co2E 1_555 1_555
O5E Co2E 1_555 1_555

#END
