
#######################################################################
#
#                 Cambridge Crystallographic Data Centre
#                                CCDC 
#
#######################################################################
#
# If this CIF has been generated from an entry in the Cambridge 
# Structural Database, then it will include bibliographic, chemical, 
# crystal, experimental, refinement or atomic coordinate data resulting 
# from the CCDC's data processing and validation procedures.
#
#######################################################################

data_JODGAM
_symmetry_cell_setting           orthorhombic
_symmetry_space_group_name_H-M   'P n n a'
_symmetry_Int_Tables_number      52
_space_group_name_Hall           '-P 2a 2bc'
loop_
_symmetry_equiv_pos_site_id
_symmetry_equiv_pos_as_xyz
1 x,y,z
2 1/2-x,-y,z
3 1/2-x,1/2+y,1/2-z
4 x,1/2-y,1/2-z
5 -x,-y,-z
6 1/2+x,y,-z
7 1/2+x,1/2-y,1/2+z
8 -x,1/2+y,1/2+z
_cell_length_a                   12.4892(15)
_cell_length_b                   13.6324(15)
_cell_length_c                   12.1687(15)
_cell_angle_alpha                90
_cell_angle_beta                 90
_cell_angle_gamma                90
_cell_volume                     2071.82
loop_
_atom_site_label
_atom_site_type_symbol
_atom_site_fract_x
_atom_site_fract_y
_atom_site_fract_z
C1 C 0.3985(6) 0.5620(4) 0.3344(5)
C2 C 0.4733(6) 0.6209(5) 0.4041(6)
H1 H 0.5159 0.5880 0.4559
C3 C 0.4819(6) 0.7158(4) 0.3962(6)
H2 H 0.4412 0.7463 0.3409
C4 C 0.5486(6) 0.7801(4) 0.4644(6)
C5 C 0.5593(5) 0.8777(4) 0.4378(6)
H3 H 0.5251 0.9028 0.3750
C6 C 0.6198(5) 0.9384(4) 0.5027(6)
H4 H 0.6242 1.0049 0.4831
C7 C 0.6662(8) 0.8138(5) 0.6152(7)
H5 H 0.7048 0.7894 0.6756
C8 C 0.6047(8) 0.7486(5) 0.5541(8)
H6 H 0.6017 0.6822 0.5747
N1 N 0.6729(4) 0.9087(3) 0.5922(4)
O1 O 0.3438(3) 0.6049(3) 0.2623(3)
O2 O 0.3894(5) 0.4739(3) 0.3493(5)
Co1 Co 0.2500 0.5000 0.20186(9)
C1A C 0.1015(6) 0.4380(4) 0.3344(5)
C2A C 0.0267(6) 0.3791(5) 0.4041(6)
H1A H -0.0159 0.4120 0.4559
C3A C 0.0181(6) 0.2842(4) 0.3962(6)
H2A H 0.0588 0.2537 0.3409
C4A C -0.0486(6) 0.2199(4) 0.4644(6)
C5A C -0.0593(5) 0.1223(4) 0.4378(6)
H3A H -0.0251 0.0972 0.3750
C6A C -0.1198(5) 0.0616(4) 0.5027(6)
H4A H -0.1242 -0.0049 0.4831
C7A C -0.1662(8) 0.1862(5) 0.6152(7)
H5A H -0.2048 0.2106 0.6756
C8A C -0.1047(8) 0.2514(5) 0.5541(8)
H6A H -0.1017 0.3178 0.5747
N1A N -0.1729(4) 0.0913(3) 0.5922(4)
O1A O 0.1562(3) 0.3951(3) 0.2623(3)
O2A O 0.1106(5) 0.5261(3) 0.3493(5)
N1F N 0.1729(4) 0.5913(3) 0.0922(4)
N1G N 0.3271(4) 0.4087(3) 0.0922(4)
Co1F Co -0.2500 0.0000 0.70186(9)
Co1F_2 Co 0.7500 1.0000 0.70186(9)
loop_
_geom_bond_atom_site_label_1
_geom_bond_atom_site_label_2
_geom_bond_site_symmetry_1
_geom_bond_site_symmetry_2
C1 C2 1_555 1_555
C2 H1 1_555 1_555
C3 C2 1_555 1_555
H2 C3 1_555 1_555
C4 C3 1_555 1_555
C5 C4 1_555 1_555
H3 C5 1_555 1_555
C6 C5 1_555 1_555
H4 C6 1_555 1_555
C7 H5 1_555 1_555
C8 C4 1_555 1_555
H6 C8 1_555 1_555
N1 C6 1_555 1_555
O1 C1 1_555 1_555
O2 C1 1_555 1_555
Co1 O1 1_555 1_555
C1A C2A 1_555 1_555
C2A H1A 1_555 1_555
C3A C2A 1_555 1_555
H2A C3A 1_555 1_555
C4A C3A 1_555 1_555
C5A C4A 1_555 1_555
H3A C5A 1_555 1_555
C6A C5A 1_555 1_555
H4A C6A 1_555 1_555
C7A H5A 1_555 1_555
C8A C4A 1_555 1_555
H6A C8A 1_555 1_555
N1A C6A 1_555 1_555
O1A Co1 1_555 1_555
O2A C1A 1_555 1_555
N1F Co1 1_555 1_555
N1G Co1 1_555 1_555
Co1F N1A 1_555 1_555
Co1F_2 N1 1_555 1_555
C7 C8 1_555 1_555
C7 N1 1_555 1_555
C1A O1A 1_555 1_555
C7A C8A 1_555 1_555
C7A N1A 1_555 1_555

#END
