
#######################################################################
#
#                 Cambridge Crystallographic Data Centre
#                                CCDC 
#
#######################################################################
#
# If this CIF has been generated from an entry in the Cambridge 
# Structural Database, then it will include bibliographic, chemical, 
# crystal, experimental, refinement or atomic coordinate data resulting 
# from the CCDC's data processing and validation procedures.
#
#######################################################################

data_JOGRUT
_symmetry_cell_setting           monoclinic
_symmetry_space_group_name_H-M   'P 21/m'
_symmetry_Int_Tables_number      11
_space_group_name_Hall           '-P 2yb'
loop_
_symmetry_equiv_pos_site_id
_symmetry_equiv_pos_as_xyz
1 x,y,z
2 -x,1/2+y,-z
3 -x,-y,-z
4 x,1/2-y,z
_cell_length_a                   15.1832(7)
_cell_length_b                   24.7499(11)
_cell_length_c                   15.3308(7)
_cell_angle_alpha                90
_cell_angle_beta                 111.3380(10)
_cell_angle_gamma                90
_cell_volume                     5366.13
loop_
_atom_site_label
_atom_site_type_symbol
_atom_site_fract_x
_atom_site_fract_y
_atom_site_fract_z
Co1 Co 0.60237(9) 0.52056(6) 0.39029(10)
C1 C 0.6784(10) 0.6356(5) 0.4130(13)
H1 H 0.7358 0.6174 0.4295
C2 C 0.6812(9) 0.6920(6) 0.4165(14)
H2 H 0.7384 0.7100 0.4436
C3 C 0.5986(7) 0.7201(4) 0.3794(8)
C4 C 0.5190(9) 0.6898(5) 0.3474(14)
H3 H 0.4605 0.7065 0.3202
C5 C 0.5243(9) 0.6338(5) 0.3549(13)
H4 H 0.4680 0.6144 0.3344
C6 C 0.5877(9) 0.5551(5) 0.1905(9)
H5 H 0.6258 0.5842 0.2196
C7 C 0.5654(10) 0.5484(5) 0.0977(9)
H6 H 0.5886 0.5729 0.0654
C8 C 0.5089(7) 0.5060(4) 0.0487(8)
C9 C 0.4762(9) 0.4730(5) 0.1034(9)
H7 H 0.4366 0.4443 0.0749
C10 C 0.4997(9) 0.4809(6) 0.1977(9)
H8 H 0.4752 0.4577 0.2309
C11 C 0.8096(8) 0.5273(5) 0.5139(9)
H9 H 0.7833 0.5400 0.5561
C12 C 0.9067(7) 0.5228(5) 0.5440(9)
H10 H 0.9441 0.5337 0.6042
C13 C 0.9478(7) 0.5024(4) 0.4850(9)
C14 C 0.8890(8) 0.4869(5) 0.3964(10)
H11 H 0.9135 0.4717 0.3546
C15 C 0.7908(8) 0.4947(6) 0.3710(9)
H12 H 0.7514 0.4855 0.3106
C26 C 0.5467(7) 0.5018(4) 0.5445(7)
N1 N 0.6034(6) 0.6069(3) 0.3890(7)
N2 N 0.5573(6) 0.5215(4) 0.2437(6)
N3 N 0.7520(6) 0.5144(4) 0.4285(7)
O38 O 0.5387(5) 0.4887(3) 0.6205(5)
O39 O 0.6199(5) 0.5162(3) 0.5327(5)
O40 O 0.6066(6) 0.4343(3) 0.3908(7)
H21 H 0.5659 0.4093 0.3815
H22 H 0.6524 0.4257 0.3743
Co1B Co 0.39763(9) 0.47944(6) 0.60971(10)
Co1C Co 0.60237(9) 0.97944(6) 0.39029(10)
Co1B_2 Co 0.39763(9) 0.47944(6) -0.39029(10)
Co1B_3 Co 1.39763(9) 0.47944(6) 0.60971(10)
C1C C 0.6784(10) 0.8644(5) 0.4130(13)
H1C H 0.7358 0.8826 0.4295
C2C C 0.6812(9) 0.8080(6) 0.4165(14)
H2C H 0.7384 0.7900 0.4436
C3C C 0.5986(7) 0.7799(4) 0.3794(8)
C4C C 0.5190(9) 0.8102(5) 0.3474(14)
H3C H 0.4605 0.7935 0.3202
C5C C 0.5243(9) 0.8662(5) 0.3549(13)
H4C H 0.4680 0.8856 0.3344
C6B C 0.4123(9) 0.4449(5) -0.1905(9)
H5B H 0.3742 0.4158 -0.2196
C7B C 0.4346(10) 0.4516(5) -0.0977(9)
H6B H 0.4114 0.4271 -0.0654
C8B C 0.4911(7) 0.4940(4) -0.0487(8)
C9B C 0.5238(9) 0.5270(5) -0.1034(9)
H7B H 0.5634 0.5557 -0.0749
C10B C 0.5003(9) 0.5191(6) -0.1977(9)
H8B H 0.5248 0.5423 -0.2309
C11B C 1.1904(8) 0.4727(5) 0.4861(9)
H9B H 1.2167 0.4600 0.4439
C12B C 1.0933(7) 0.4772(5) 0.4560(9)
H10B H 1.0559 0.4663 0.3958
C13B C 1.0522(7) 0.4976(4) 0.5150(9)
C14B C 1.1110(8) 0.5131(5) 0.6036(10)
H11B H 1.0865 0.5283 0.6454
C15B C 1.2092(8) 0.5053(6) 0.6290(9)
H12B H 1.2486 0.5145 0.6894
C26B C 0.4533(7) 0.4982(4) 0.4555(7)
N1C N 0.6034(6) 0.8931(3) 0.3890(7)
N1B N 0.3966(6) 0.3931(3) 0.6110(7)
N2B N 0.4427(6) 0.4785(4) -0.2437(6)
N2B_2 N 0.4427(6) 0.4785(4) 0.7563(6)
N3B N 1.2480(6) 0.4856(4) 0.5715(7)
N3B_2 N 0.2480(6) 0.4856(4) 0.5715(7)
O38B O 0.4613(5) 0.5113(3) 0.3795(5)
O39B O 0.3801(5) 0.4838(3) 0.4673(5)
O40B O 0.3934(6) 0.5657(3) 0.6092(7)
H21B H 0.4341 0.5907 0.6185
H22B H 0.3476 0.5743 0.6257
P1 P 0.7270(2) 0.2500 0.1332(3)
P2 P 1.0043(2) 0.2500 0.1977(3)
W1 W 0.50200(5) 0.2500 -0.04934(6)
W2 W 0.52979(3) 0.31817(2) 0.15088(4)
W3 W 0.70504(4) 0.32445(2) -0.07053(4)
W4 W 0.73203(3) 0.392339(19) 0.12714(4)
W5 W 0.76401(3) 0.317955(19) 0.34372(4)
W6 W 0.96894(4) 0.32434(2) -0.00845(4)
W7 W 0.99521(3) 0.392470(18) 0.18850(4)
W8 W 1.02653(3) 0.317848(18) 0.40577(4)
W9 W 1.19248(5) 0.2500 0.11186(6)
W10 W 1.21808(3) 0.318339(19) 0.31026(5)
O1 O 0.4064(8) 0.2500 -0.1522(10)
O2 O 0.4642(5) 0.3038(3) 0.0222(6)
O3 O 0.4866(7) 0.2500 0.1791(9)
O4 O 0.4516(5) 0.3599(3) 0.1744(7)
O5 O 0.5823(5) 0.3023(3) -0.0711(7)
O6 O 0.6161(6) 0.2500 0.1056(8)
O7 O 0.6099(5) 0.3665(3) 0.1176(6)
O8 O 0.6319(5) 0.3139(3) 0.2679(6)
O9 O 0.6712(6) 0.3491(4) -0.1807(6)
O10 O 0.7259(8) 0.2500 -0.0882(8)
O11 O 0.6975(6) 0.3887(3) -0.0041(6)
O12 O 0.7509(5) 0.3011(3) 0.0898(6)
O13 O 0.7162(6) 0.4584(3) 0.1426(6)
O14 O 0.7745(5) 0.3661(3) 0.2523(5)
O15 O 0.7720(6) 0.2500 0.2381(7)
O16 O 0.7559(5) 0.3608(3) 0.4278(6)
O17 O 0.7550(7) 0.2500 0.4000(8)
O18 O 0.8378(5) 0.3357(3) -0.0346(6)
O19 O 0.8626(5) 0.3965(3) 0.1390(6)
O20 O 0.8978(5) 0.3104(3) 0.3903(6)
O21 O 0.9406(8) 0.2500 -0.0347(9)
O22 O 0.9750(6) 0.3484(3) -0.1101(6)
O23 O 0.9965(5) 0.3887(3) 0.0654(6)
O24 O 0.9656(5) 0.3013(3) 0.1398(6)
O25 O 1.0197(6) 0.4595(3) 0.2132(6)
O26 O 0.9898(5) 0.3670(3) 0.3040(6)
O27 O 0.9875(7) 0.2500 0.2907(8)
O28 O 1.0620(6) 0.3599(3) 0.5004(6)
O29 O 1.0546(7) 0.2500 0.4713(8)
O30 O 1.0979(6) 0.3019(3) 0.0503(7)
O31 O 1.1143(6) 0.2500 0.2214(8)
O32 O 1.1247(5) 0.3654(3) 0.2344(6)
O33 O 1.1460(5) 0.3139(3) 0.3871(6)
O34 O 1.2602(9) 0.2500 0.0451(11)
O35 O 1.2543(5) 0.3041(3) 0.2052(6)
O36 O 1.3058(5) 0.3629(3) 0.3701(8)
O37 O 1.2764(7) 0.2500 0.3613(10)
W2C W 0.52979(3) 0.18183(2) 0.15088(4)
W3C W 0.70504(4) 0.17555(2) -0.07053(4)
W4C W 0.73203(3) 0.107661(19) 0.12714(4)
W5C W 0.76401(3) 0.182045(19) 0.34372(4)
W6C W 0.96894(4) 0.17566(2) -0.00845(4)
W7C W 0.99521(3) 0.107530(18) 0.18850(4)
W8C W 1.02653(3) 0.182152(18) 0.40577(4)
W10C W 1.21808(3) 0.181661(19) 0.31026(5)
O2C O 0.4642(5) 0.1962(3) 0.0222(6)
O4C O 0.4516(5) 0.1401(3) 0.1744(7)
O5C O 0.5823(5) 0.1977(3) -0.0711(7)
O7C O 0.6099(5) 0.1335(3) 0.1176(6)
O8C O 0.6319(5) 0.1861(3) 0.2679(6)
O9C O 0.6712(6) 0.1509(4) -0.1807(6)
O11C O 0.6975(6) 0.1113(3) -0.0041(6)
O12C O 0.7509(5) 0.1989(3) 0.0898(6)
O13C O 0.7162(6) 0.0416(3) 0.1426(6)
O14C O 0.7745(5) 0.1339(3) 0.2523(5)
O16C O 0.7559(5) 0.1392(3) 0.4278(6)
O18C O 0.8378(5) 0.1643(3) -0.0346(6)
O19C O 0.8626(5) 0.1035(3) 0.1390(6)
O20C O 0.8978(5) 0.1896(3) 0.3903(6)
O22C O 0.9750(6) 0.1516(3) -0.1101(6)
O23C O 0.9965(5) 0.1113(3) 0.0654(6)
O24C O 0.9656(5) 0.1987(3) 0.1398(6)
O25C O 1.0197(6) 0.0405(3) 0.2132(6)
O26C O 0.9898(5) 0.1330(3) 0.3040(6)
O28C O 1.0620(6) 0.1401(3) 0.5004(6)
O30C O 1.0979(6) 0.1981(3) 0.0503(7)
O32C O 1.1247(5) 0.1346(3) 0.2344(6)
O33C O 1.1460(5) 0.1861(3) 0.3871(6)
O35C O 1.2543(5) 0.1959(3) 0.2052(6)
O36C O 1.3058(5) 0.1371(3) 0.3701(8)
C16 C 0.1825(17) 0.5455(7) 0.1361(13)
H13 H 0.1590 0.5806 0.1276
C17 C 0.1740(14) 0.5150(7) 0.0579(11)
H14 H 0.1471 0.5304 -0.0012
C18 C 0.2058(12) 0.4605(6) 0.0662(10)
C19 C 0.2490(10) 0.4410(5) 0.1582(10)
H15 H 0.2736 0.4061 0.1671
H16 H 0.2831 0.4551 0.2961
C20 C 0.2562(13) 0.4715(6) 0.2349(10)
C21 C 0.1956(11) 0.4301(6) -0.0092(10)
C22 C 0.1350(14) 0.4459(8) -0.0959(12)
H17 H 0.1005 0.4777 -0.1021
C23 C 0.1248(12) 0.4159(7) -0.1719(11)
H18 H 0.0819 0.4272 -0.2296
C24 C 0.2368(12) 0.3550(6) -0.0816(11)
H19 H 0.2745 0.3246 -0.0760
C25 C 0.2444(11) 0.3832(6) -0.0055(10)
H20 H 0.2844 0.3705 0.0525
N4 N 0.2251(11) 0.5256(6) 0.2281(10)
N5 N 0.1743(14) 0.3699(7) -0.1683(11)
O41 O 0.4983(11) 0.3614(6) 0.4335(12)
O42 O 0.4711(15) 0.2500 0.3598(17)
loop_
_geom_bond_atom_site_label_1
_geom_bond_atom_site_label_2
_geom_bond_site_symmetry_1
_geom_bond_site_symmetry_2
Co1 N1 1_555 1_555
P1 O6 1_555 1_555
P2 O24 1_555 1_555
W1 O1 1_555 1_555
W2 O2 1_555 1_555
W3 O5 1_555 1_555
W4 O7 1_555 1_555
W5 O8 1_555 1_555
W6 O18 1_555 1_555
W7 O19 1_555 1_555
W8 O20 1_555 1_555
W9 O30 1_555 1_555
W10 O31 1_555 1_555
C1 H1 1_555 1_555
C2 C1 1_555 1_555
H2 C2 1_555 1_555
C3 C2 1_555 1_555
C4 C3 1_555 1_555
H3 C4 1_555 1_555
C5 C4 1_555 1_555
H4 C5 1_555 1_555
C6 H5 1_555 1_555
C7 C6 1_555 1_555
H6 C7 1_555 1_555
C8 C7 1_555 1_555
C9 C8 1_555 1_555
H7 C9 1_555 1_555
C10 C9 1_555 1_555
H8 C10 1_555 1_555
C11 H9 1_555 1_555
C12 C11 1_555 1_555
H10 C12 1_555 1_555
C13 C12 1_555 1_555
C14 C13 1_555 1_555
H11 C14 1_555 1_555
C15 C14 1_555 1_555
H12 C15 1_555 1_555
C16 H13 1_555 1_555
C17 C16 1_555 1_555
H14 C17 1_555 1_555
C18 C17 1_555 1_555
C19 C18 1_555 1_555
H15 C19 1_555 1_555
H16 C20 1_555 1_555
C20 C19 1_555 1_555
C21 C18 1_555 1_555
C22 C21 1_555 1_555
H17 C22 1_555 1_555
C23 C22 1_555 1_555
H18 C23 1_555 1_555
C24 H19 1_555 1_555
C25 C21 1_555 1_555
H20 C25 1_555 1_555
C26 O38 1_555 1_555
N1 C1 1_555 1_555
N2 Co1 1_555 1_555
N3 Co1 1_555 1_555
N4 C16 1_555 1_555
N5 C23 1_555 1_555
O2 W1 1_555 1_555
O3 W2 1_555 1_555
O4 W2 1_555 1_555
O5 W1 1_555 1_555
O6 W1 1_555 1_555
O7 W2 1_555 1_555
O8 W2 1_555 1_555
O9 W3 1_555 1_555
O10 W3 1_555 1_555
O11 W3 1_555 1_555
O12 P1 1_555 1_555
O13 W4 1_555 1_555
O14 W4 1_555 1_555
O15 P1 1_555 1_555
O16 W5 1_555 1_555
O17 W5 1_555 1_555
O18 W3 1_555 1_555
O19 W4 1_555 1_555
O20 W5 1_555 1_555
O21 W6 1_555 1_555
O22 W6 1_555 1_555
O23 W6 1_555 1_555
O24 W6 1_555 1_555
O25 W7 1_555 1_555
O26 W7 1_555 1_555
O27 P2 1_555 1_555
O28 W8 1_555 1_555
O29 W8 1_555 1_555
O30 W6 1_555 1_555
O31 P2 1_555 1_555
O32 W7 1_555 1_555
O33 W8 1_555 1_555
O34 W9 1_555 1_555
O35 W9 1_555 1_555
O36 W10 1_555 1_555
O37 W10 1_555 1_555
O38 Co1B 1_555 1_555
O39 Co1 1_555 1_555
O40 Co1 1_555 1_555
H21 O40 1_555 1_555
H22 O40 1_555 1_555
Co1B N1B 1_555 1_555
Co1C N1C 1_555 1_555
Co1B_2 N2B 1_555 1_555
Co1B_3 N3B 1_555 1_555
W2C O3 1_555 1_555
W3C O10 1_555 1_555
W4C O7C 1_555 1_555
W5C O15 1_555 1_555
W6C O21 1_555 1_555
W7C O19C 1_555 1_555
W8C O27 1_555 1_555
W10C O31 1_555 1_555
C1C H1C 1_555 1_555
C2C C1C 1_555 1_555
H2C C2C 1_555 1_555
C3C C3 1_555 1_555
C4C C3C 1_555 1_555
H3C C4C 1_555 1_555
C5C C4C 1_555 1_555
H4C C5C 1_555 1_555
C6B H5B 1_555 1_555
C7B C6B 1_555 1_555
H6B C7B 1_555 1_555
C8B C8 1_555 1_555
C9B C8B 1_555 1_555
H7B C9B 1_555 1_555
C10B C9B 1_555 1_555
H8B C10B 1_555 1_555
C11B H9B 1_555 1_555
C12B C11B 1_555 1_555
H10B C12B 1_555 1_555
C13B C13 1_555 1_555
C14B C13B 1_555 1_555
H11B C14B 1_555 1_555
C15B C14B 1_555 1_555
H12B C15B 1_555 1_555
C26B C26 1_555 1_555
N1C C1C 1_555 1_555
N2B C6B 1_555 1_555
N2B_2 Co1B 1_555 1_555
N3B C11B 1_555 1_555
N3B_2 Co1B 1_555 1_555
O2C W1 1_555 1_555
O4C W2C 1_555 1_555
O5C W1 1_555 1_555
O7C W2C 1_555 1_555
O8C W2C 1_555 1_555
O9C W3C 1_555 1_555
O11C W3C 1_555 1_555
O12C P1 1_555 1_555
O13C W4C 1_555 1_555
O14C W4C 1_555 1_555
O16C W5C 1_555 1_555
O18C W3C 1_555 1_555
O19C W4C 1_555 1_555
O20C W5C 1_555 1_555
O22C W6C 1_555 1_555
O23C W6C 1_555 1_555
O24C P2 1_555 1_555
O25C W7C 1_555 1_555
O26C W7C 1_555 1_555
O28C W8C 1_555 1_555
O30C W9 1_555 1_555
O32C W7C 1_555 1_555
O33C W8C 1_555 1_555
O35C W9 1_555 1_555
O36C W10C 1_555 1_555
O38B Co1 1_555 1_555
O39B Co1B 1_555 1_555
O40B Co1B 1_555 1_555
H21B O40B 1_555 1_555
H22B O40B 1_555 1_555
W2 O6 1_555 1_555
W3 O12 1_555 1_555
W4 O11 1_555 1_555
W4 O12 1_555 1_555
W5 O14 1_555 1_555
W5 O15 1_555 1_555
W7 O23 1_555 1_555
W7 O24 1_555 1_555
W8 O26 1_555 1_555
W8 O27 1_555 1_555
W9 O31 1_555 1_555
W10 O32 1_555 1_555
W10 O33 1_555 1_555
W10 O35 1_555 1_555
C5 N1 1_555 1_555
C6 N2 1_555 1_555
C10 N2 1_555 1_555
C11 N3 1_555 1_555
C15 N3 1_555 1_555
C20 N4 1_555 1_555
C24 C25 1_555 1_555
C24 N5 1_555 1_555
C26 O39 1_555 1_555
O6 W2C 1_555 1_555
O17 W5C 1_555 1_555
O29 W8C 1_555 1_555
O37 W10C 1_555 1_555
W2C O2C 1_555 1_555
W3C O5C 1_555 1_555
W3C O12C 1_555 1_555
W4C O11C 1_555 1_555
W4C O12C 1_555 1_555
W5C O8C 1_555 1_555
W5C O14C 1_555 1_555
W6C O18C 1_555 1_555
W6C O24C 1_555 1_555
W6C O30C 1_555 1_555
W7C O23C 1_555 1_555
W7C O24C 1_555 1_555
W8C O20C 1_555 1_555
W8C O26C 1_555 1_555
W10C O32C 1_555 1_555
W10C O33C 1_555 1_555
W10C O35C 1_555 1_555
C2C C3C 1_555 1_555
C5C N1C 1_555 1_555
C7B C8B 1_555 1_555
C10B N2B 1_555 1_555
C12B C13B 1_555 1_555
C15B N3B 1_555 1_555
C26B O38B 1_555 1_555
C26B O39B 1_555 1_555

#END
