
#######################################################################
#
#                 Cambridge Crystallographic Data Centre
#                                CCDC 
#
#######################################################################
#
# If this CIF has been generated from an entry in the Cambridge 
# Structural Database, then it will include bibliographic, chemical, 
# crystal, experimental, refinement or atomic coordinate data resulting 
# from the CCDC's data processing and validation procedures.
#
#######################################################################

data_JOPGOM
_symmetry_cell_setting           monoclinic
_symmetry_space_group_name_H-M   'P 21/c'
_symmetry_Int_Tables_number      14
_space_group_name_Hall           '-P 2ybc'
loop_
_symmetry_equiv_pos_site_id
_symmetry_equiv_pos_as_xyz
1 x,y,z
2 -x,1/2+y,1/2-z
3 -x,-y,-z
4 x,1/2-y,1/2+z
_cell_length_a                   11.25340(10)
_cell_length_b                   16.2117(2)
_cell_length_c                   33.8757(4)
_cell_angle_alpha                90
_cell_angle_beta                 102.4630(10)
_cell_angle_gamma                90
_cell_volume                     6034.54
loop_
_atom_site_label
_atom_site_type_symbol
_atom_site_fract_x
_atom_site_fract_y
_atom_site_fract_z
Co1 Co 0.14712(6) 0.57950(4) 0.19503(2)
Co2 Co -0.38682(7) 0.95925(4) 0.03594(2)
Co3 Co -0.01862(6) 0.43410(4) 0.14658(2)
Co4 Co 0.23566(6) 0.50714(4) 0.11403(2)
O1 O 0.0932(3) 0.53142(19) 0.13788(9)
O2 O 0.3291(3) 0.5985(2) 0.19969(11)
O3 O 0.1163(3) 0.7006(2) 0.19901(11)
O4 O 0.9610(3) 0.5747(3) 0.20272(12)
O5 O -0.1778(3) 0.9844(3) 0.26756(11)
O6 O -0.3846(3) 1.0816(2) 0.03780(10)
O7 O -0.2609(3) 0.9209(2) 0.08125(10)
O8 O -0.3022(4) 0.9384(2) -0.00888(11)
O9 O -0.0228(3) 0.8992(2) 0.29339(9)
O10 O 0.8351(3) 0.5000(2) 0.15576(11)
O11 O 0.3890(3) 0.5163(2) 0.15474(11)
O12 O -0.2383(4) 1.4446(2) -0.06123(11)
O13 O -0.2226(3) 0.6092(2) -0.09468(11)
O14 O -0.1245(3) 0.6498(2) -0.14160(9)
O15 O -0.4588(3) 1.1020(2) -0.02812(10)
O16 O 0.0067(5) 0.6934(3) 0.13565(12)
O17 O -0.3771(4) 0.9714(3) 0.12074(13)
O18 O -0.3261(4) 0.8050(3) 0.00358(13)
O19 O 0.1127(4) 0.9139(3) -0.11075(15)
O20 O 0.0637(5) 1.0003(3) -0.06592(16)
O21 O 0.8213(3) 0.7466(3) 0.29593(13)
O22 O 0.6272(4) 0.7658(5) 0.2953(2)
O23 O -0.3059(7) 1.3359(4) -0.09711(13)
O24 O -0.0916(3) 1.4180(2) 0.08512(11)
O25 O -0.1557(3) 1.3192(2) 0.11971(10)
C1 C -0.2738(4) 1.2378(3) 0.04555(13)
H1 H -0.2704 1.2076 0.0691
C2 C -0.3980(4) 1.1238(3) 0.00591(14)
C3 C -0.1677(4) 0.6622(3) -0.11067(13)
C4 C 0.7526(4) 0.5855(3) 0.20053(15)
C5 C 0.6328(4) 0.5602(3) 0.18459(14)
H2 H 0.6169 0.5223 0.1635
C6 C -0.1018(4) 0.9272(3) 0.26493(14)
C7 C 0.0322(5) 0.7247(3) 0.16954(16)
C8 C -0.1511(4) 1.3525(3) 0.08655(14)
C9 C -0.0413(4) 0.7989(3) 0.17735(14)
C10 C -0.2859(5) 0.9340(3) 0.11622(14)
C11 C 0.7749(4) 0.6417(3) 0.23149(15)
H3 H 0.8544 0.6591 0.2417
C12 C -0.1528(5) 0.7453(3) -0.09121(14)
C13 C -0.2177(4) 1.3147(3) 0.04714(13)
C14 C -0.1941(4) 0.9268(3) 0.19044(14)
H4 H -0.2477 0.9679 0.1946
C15 C -0.1192(5) 0.8354(3) 0.14539(14)
H5 H -0.1204 0.8176 0.1192
C16 C 0.4072(4) 0.5665(3) 0.18330(14)
C17 C -0.1961(4) 0.8987(3) 0.15164(14)
C18 C -0.0359(4) 0.8282(3) 0.21653(14)
H6 H 0.0180 0.8045 0.2382
C19 C -0.2191(4) 1.3587(3) 0.01157(14)
H7 H -0.1810 1.4098 0.0126
C20 C -0.1115(4) 0.8932(3) 0.22323(14)
C21 C -0.2844(5) 0.8617(3) -0.01393(15)
C22 C -0.3351(4) 1.2062(3) 0.00841(14)
C23 C -0.1187(5) 0.8964(3) -0.05125(17)
H8 H -0.1077 0.9471 -0.0381
C24 C -0.0660(5) 0.8006(3) -0.09905(15)
H9 H -0.0201 0.7873 -0.1179
C25 C 0.5368(4) 0.5918(3) 0.20038(15)
C26 C 0.6817(4) 0.6732(3) 0.24791(15)
C27 C 0.8584(4) 0.5511(3) 0.18493(14)
C28 C -0.2777(5) 1.3257(3) -0.02526(14)
C29 C -0.3370(5) 1.2498(3) -0.02697(14)
H10 H -0.3777 1.2286 -0.0517
C30 C 0.5617(4) 0.6481(3) 0.23185(15)
H11 H 0.4984 0.6695 0.2424
C31 C -0.2056(5) 0.8416(3) -0.04359(16)
C32 C 0.0506(5) 0.9312(3) -0.08714(18)
C33 C -0.2758(6) 1.3716(3) -0.06446(16)
C34 C -0.2214(5) 0.7658(3) -0.06325(15)
H12 H -0.2784 0.7286 -0.0576
C35 C 0.7051(5) 0.7333(4) 0.28209(17)
C36 C -0.0479(5) 0.8752(3) -0.07876(16)
Co1_2 Co 1.14712(6) 0.57950(4) 0.19503(2)
Co1A Co -0.14712(6) 1.07950(4) 0.30497(2)
Co2B Co -0.61318(7) 1.04075(4) -0.03594(2)
Co3_2 Co -0.01862(6) 1.43410(4) 0.14658(2)
Co3_3 Co 0.98138(6) 0.43410(4) 0.14658(2)
Co3A Co 0.01862(6) 0.93410(4) 0.35342(2)
Co3B Co 0.01862(6) 0.56590(4) -0.14658(2)
Co4B Co -0.23566(6) 0.49286(4) -0.11403(2)
Co4B_2 Co -0.23566(6) 1.49286(4) -0.11403(2)
O4_2 O -0.0390(3) 0.5747(3) 0.20272(12)
O5A O 0.1778(3) 0.4844(3) 0.23244(11)
O9A O 0.0228(3) 0.3992(2) 0.20661(9)
O10_2 O -0.1649(3) 0.5000(2) 0.15576(11)
O12B O 0.2383(4) 0.5554(2) 0.06123(11)
O13B O 0.2226(3) 0.3908(2) 0.09468(11)
O14B O 0.1245(3) 0.3502(2) 0.14160(9)
O15B O -0.5412(3) 0.8980(2) 0.02812(10)
O24_2 O -0.0916(3) 0.4180(2) 0.08512(11)
N1 N 0.7031(4) 0.2399(4) 0.16381(16)
C37 C 0.5557(16) 0.1281(10) 0.1713(6)
H13 H 0.5096 0.0833 0.1571
H14 H 0.5012 0.1680 0.1787
H15 H 0.6090 0.1075 0.1953
C38 C 0.5360(9) 0.3344(11) 0.1290(4)
H16 H 0.4850 0.3796 0.1332
H17 H 0.4861 0.2877 0.1189
H18 H 0.5833 0.3501 0.1098
C39 C 0.7849(10) 0.2294(8) 0.2016(3)
H19 H 0.7392 0.2131 0.2215
H20 H 0.8235 0.2819 0.2100
C40 C 0.6191(10) 0.3120(7) 0.1681(3)
H21 H 0.5708 0.2975 0.1876
H22 H 0.6682 0.3597 0.1785
C41 C 0.6307(11) 0.1686(7) 0.1443(3)
H23 H 0.6854 0.1279 0.1370
H24 H 0.5765 0.1871 0.1196
C42 C 0.8847(7) 0.1643(6) 0.2007(2)
H25 H 0.9373 0.1603 0.2270
H26 H 0.9313 0.1804 0.1814
H27 H 0.8473 0.1117 0.1932
N2 N 0.7199(5) 0.6433(4) 0.03337(18)
C43 C 0.8455(11) 0.6210(12) 0.0441(8)
H28 H 0.8695 0.6268 0.0732
H29 H 0.8490 0.5625 0.0385
C44 C 0.667(3) 0.6361(11) 0.0691(6)
H30 H 0.5874 0.6114 0.0595
H31 H 0.7155 0.5949 0.0861
C45 C 0.6615(17) 0.5862(7) 0.0026(5)
H32 H 0.7217 0.5711 -0.0128
H33 H 0.6445 0.5367 0.0165
C46 C 0.6494(10) 0.6974(8) 0.0947(3)
H34 H 0.6178 0.6744 0.1164
H35 H 0.5925 0.7368 0.0802
H36 H 0.7255 0.7243 0.1054
C47 C 0.9358(8) 0.6570(11) 0.0288(4)
H37 H 1.0125 0.6323 0.0409
H38 H 0.9387 0.7150 0.0348
H39 H 0.9197 0.6491 0.0001
C48 C 0.5554(8) 0.6056(7) -0.0254(3)
H40 H 0.5316 0.5596 -0.0432
H41 H 0.5696 0.6528 -0.0409
H42 H 0.4918 0.6179 -0.0114
N3 N 0.3142(11) 0.9049(9) 0.1549(4)
C49 C 0.4809(17) 0.8039(14) 0.1552(7)
H43 H 0.5045 0.7473 0.1601
H44 H 0.5398 0.8390 0.1719
H45 H 0.4766 0.8168 0.1273
C50 C 0.219(2) 0.9292(12) 0.1778(8)
H46 H 0.1441 0.9003 0.1664
H47 H 0.2456 0.9119 0.2057
C51 C 0.1950(19) 1.0194(12) 0.1766(7)
H48 H 0.1357 1.0316 0.1923
H49 H 0.1647 1.0365 0.1492
H50 H 0.2691 1.0484 0.1877
C52 C 0.174(2) 0.853(2) 0.0919(6)
H51 H 0.1470 0.8635 0.0635
H52 H 0.1069 0.8568 0.1049
H53 H 0.2088 0.7986 0.0957
C53 C 0.270(3) 0.9155(16) 0.1099(5)
H54 H 0.2358 0.9704 0.1045
H55 H 0.3381 0.9106 0.0969
C54 C 0.3584(17) 0.8174(10) 0.1650(6)
H56 H 0.3637 0.8070 0.1935
H57 H 0.3003 0.7788 0.1497
O26 O 0.3800(7) 0.0032(7) 0.0958(3)
loop_
_geom_bond_atom_site_label_1
_geom_bond_atom_site_label_2
_geom_bond_site_symmetry_1
_geom_bond_site_symmetry_2
Co1 O1 1_555 1_555
Co2 O6 1_555 1_555
Co3 O1 1_555 1_555
Co4 O1 1_555 1_555
O2 Co1 1_555 1_555
O3 Co1 1_555 1_555
O4 C27 1_555 1_555
O5 C6 1_555 1_555
O6 C2 1_555 1_555
O7 Co2 1_555 1_555
O8 Co2 1_555 1_555
O9 C6 1_555 1_555
O10 C27 1_555 1_555
O11 Co4 1_555 1_555
O12 C33 1_555 1_555
O13 C3 1_555 1_555
O14 C3 1_555 1_555
O15 C2 1_555 1_555
O16 C7 1_555 1_555
O17 C10 1_555 1_555
O18 C21 1_555 1_555
O19 C32 1_555 1_555
O20 C32 1_555 1_555
O21 C35 1_555 1_555
O22 C35 1_555 1_555
O23 C33 1_555 1_555
O24 C8 1_555 1_555
O25 C8 1_555 1_555
C1 H1 1_555 1_555
C2 C22 1_555 1_555
C3 C12 1_555 1_555
C4 C5 1_555 1_555
C5 H2 1_555 1_555
C6 C20 1_555 1_555
C7 O3 1_555 1_555
C8 C13 1_555 1_555
C9 C7 1_555 1_555
C10 O7 1_555 1_555
C11 C4 1_555 1_555
H3 C11 1_555 1_555
C12 C24 1_555 1_555
C13 C1 1_555 1_555
C14 H4 1_555 1_555
C15 C9 1_555 1_555
H5 C15 1_555 1_555
C16 O2 1_555 1_555
C17 C10 1_555 1_555
C18 C9 1_555 1_555
H6 C18 1_555 1_555
C19 C13 1_555 1_555
H7 C19 1_555 1_555
C20 C14 1_555 1_555
C21 O8 1_555 1_555
C22 C1 1_555 1_555
C23 H8 1_555 1_555
C24 H9 1_555 1_555
C25 C5 1_555 1_555
C26 C11 1_555 1_555
C27 C4 1_555 1_555
C28 C19 1_555 1_555
C29 C22 1_555 1_555
H10 C29 1_555 1_555
C30 C25 1_555 1_555
H11 C30 1_555 1_555
C31 C21 1_555 1_555
C32 C36 1_555 1_555
C33 C28 1_555 1_555
C34 C12 1_555 1_555
H12 C34 1_555 1_555
C35 C26 1_555 1_555
C36 C23 1_555 1_555
N1 C39 1_555 1_555
C37 H13 1_555 1_555
H14 C37 1_555 1_555
H15 C37 1_555 1_555
C38 H16 1_555 1_555
H17 C38 1_555 1_555
H18 C38 1_555 1_555
C39 H19 1_555 1_555
H20 C39 1_555 1_555
C40 N1 1_555 1_555
H21 C40 1_555 1_555
H22 C40 1_555 1_555
C41 N1 1_555 1_555
H23 C41 1_555 1_555
H24 C41 1_555 1_555
C42 C39 1_555 1_555
H25 C42 1_555 1_555
H26 C42 1_555 1_555
H27 C42 1_555 1_555
N2 C43 1_555 1_555
C43 H28 1_555 1_555
H29 C43 1_555 1_555
C44 N2 1_555 1_555
H30 C44 1_555 1_555
H31 C44 1_555 1_555
C45 N2 1_555 1_555
H32 C45 1_555 1_555
H33 C45 1_555 1_555
C46 C44 1_555 1_555
H34 C46 1_555 1_555
H35 C46 1_555 1_555
H36 C46 1_555 1_555
C47 C43 1_555 1_555
H37 C47 1_555 1_555
H38 C47 1_555 1_555
H39 C47 1_555 1_555
C48 C45 1_555 1_555
H40 C48 1_555 1_555
H41 C48 1_555 1_555
H42 C48 1_555 1_555
N3 C50 1_555 1_555
C49 H43 1_555 1_555
H44 C49 1_555 1_555
H45 C49 1_555 1_555
C50 H46 1_555 1_555
H47 C50 1_555 1_555
C51 C50 1_555 1_555
H48 C51 1_555 1_555
H49 C51 1_555 1_555
H50 C51 1_555 1_555
C52 H51 1_555 1_555
H52 C52 1_555 1_555
H53 C52 1_555 1_555
C53 N3 1_555 1_555
H54 C53 1_555 1_555
H55 C53 1_555 1_555
C54 N3 1_555 1_555
H56 C54 1_555 1_555
H57 C54 1_555 1_555
Co1_2 O4 1_555 1_555
Co1A O5 1_555 1_555
Co2B O15 1_555 1_555
Co3_2 O24 1_555 1_555
Co3_3 O10 1_555 1_555
Co3A O9 1_555 1_555
Co3B O14 1_555 1_555
Co4B O13 1_555 1_555
Co4B_2 O12 1_555 1_555
O4_2 Co1 1_555 1_555
O5A Co1 1_555 1_555
O9A Co3 1_555 1_555
O10_2 Co3 1_555 1_555
O12B Co4 1_555 1_555
O13B Co4 1_555 1_555
O14B Co3 1_555 1_555
O15B Co2 1_555 1_555
O24_2 Co3 1_555 1_555
O11 C16 1_555 1_555
C14 C17 1_555 1_555
C15 C17 1_555 1_555
C16 C25 1_555 1_555
C18 C20 1_555 1_555
C23 C31 1_555 1_555
C24 C36 1_555 1_555
C26 C30 1_555 1_555
C28 C29 1_555 1_555
C31 C34 1_555 1_555
C37 C41 1_555 1_555
C38 C40 1_555 1_555
C49 C54 1_555 1_555
C52 C53 1_555 1_555

#END
