
#######################################################################
#
#                 Cambridge Crystallographic Data Centre
#                                CCDC 
#
#######################################################################
#
# If this CIF has been generated from an entry in the Cambridge 
# Structural Database, then it will include bibliographic, chemical, 
# crystal, experimental, refinement or atomic coordinate data resulting 
# from the CCDC's data processing and validation procedures.
#
#######################################################################

data_JOQSOZ
_symmetry_cell_setting           monoclinic
_symmetry_space_group_name_H-M   'P 21/c'
_symmetry_Int_Tables_number      14
_space_group_name_Hall           '-P 2ybc'
loop_
_symmetry_equiv_pos_site_id
_symmetry_equiv_pos_as_xyz
1 x,y,z
2 -x,1/2+y,1/2-z
3 -x,-y,-z
4 x,1/2-y,1/2+z
_cell_length_a                   16.2717(2)
_cell_length_b                   12.6684(2)
_cell_length_c                   17.6021(2)
_cell_angle_alpha                90
_cell_angle_beta                 112.5230(10)
_cell_angle_gamma                90
_cell_volume                     3351.68
loop_
_atom_site_label
_atom_site_type_symbol
_atom_site_fract_x
_atom_site_fract_y
_atom_site_fract_z
Cu1 Cu 0.525280(19) 0.17199(3) 0.450940(18)
Cu2 Cu 0.61366(2) 0.10409(3) 0.367080(19)
Cu3 Cu 0.08008(3) 0.11289(5) 0.44143(3)
N1 N 0.18722(16) 0.0997(2) 0.42550(18)
N2 N 0.42786(13) 0.07895(18) 0.39037(13)
N3 N 0.50737(13) 0.01550(18) 0.31539(13)
N4 N 0.49599(17) -0.1948(2) 0.12662(15)
N5 N 0.62327(16) 0.3129(2) 0.76267(14)
N6 N 0.63614(13) 0.19378(18) 0.54330(12)
N7 N 0.71772(13) 0.1400(2) 0.46713(13)
N8 N 0.96771(17) 0.1193(3) 0.44932(18)
C1 C 0.2665(2) 0.1190(3) 0.4854(2)
H1 H 0.2677 0.1388 0.5367
C2 C 0.34598(19) 0.1113(3) 0.47570(18)
H2 H 0.3990 0.1259 0.5196
C3 C 0.34728(16) 0.0815(2) 0.40006(15)
C4 C 0.26441(18) 0.0614(3) 0.33711(19)
H3 H 0.2610 0.0419 0.2851
C5 C 0.1886(2) 0.0706(3) 0.3527(2)
H4 H 0.1345 0.0558 0.3101
C6 C 0.43456(16) 0.0197(2) 0.33138(16)
H5 H 0.3859 -0.0210 0.2997
C7 C 0.5680(2) -0.1872(3) 0.19635(19)
H6 H 0.6161 -0.2313 0.2033
C8 C 0.57451(18) -0.1171(3) 0.25867(18)
H7 H 0.6265 -0.1134 0.3056
C9 C 0.50264(17) -0.0523(2) 0.25057(16)
C10 C 0.42806(19) -0.0591(2) 0.17683(18)
H8 H 0.3790 -0.0159 0.1678
C11 C 0.4279(2) -0.1303(3) 0.11785(19)
H9 H 0.3778 -0.1338 0.0692
C12 C 0.55639(19) 0.3192(3) 0.68995(17)
H10 H 0.5042 0.3517 0.6874
C13 C 0.55963(18) 0.2804(3) 0.61776(16)
H11 H 0.5105 0.2878 0.5687
C14 C 0.63553(16) 0.2307(2) 0.61806(14)
C15 C 0.70551(18) 0.2204(2) 0.69493(15)
H12 H 0.7578 0.1861 0.6998
C16 C 0.69561(19) 0.2621(3) 0.76330(16)
H13 H 0.7428 0.2543 0.8137
C17 C 0.71255(17) 0.1774(2) 0.53589(15)
H14 H 0.7650 0.1925 0.5804
C18 C 0.9002(2) 0.0591(3) 0.4061(2)
H15 H 0.9085 0.0107 0.3699
C19 C 0.81767(18) 0.0635(3) 0.41124(18)
H16 H 0.7724 0.0189 0.3789
C20 C 0.80200(17) 0.1345(3) 0.46462(16)
C21 C 0.8727(2) 0.1994(4) 0.5091(2)
H17 H 0.8658 0.2507 0.5440
C22 C 0.9537(2) 0.1875(4) 0.5014(3)
H18 H 1.0010 0.2292 0.5342
Cu1A Cu 0.474720(19) -0.32801(3) 0.049060(18)
Cu2C Cu 0.61366(2) 0.39591(3) 0.867080(19)
Cu3_2 Cu 1.08008(3) 0.11289(5) 0.44143(3)
N4A N 0.50401(17) 0.3052(2) 0.37338(15)
N5C N 0.62327(16) 0.1871(2) 0.26267(14)
N8_2 N -0.03229(17) 0.1193(3) 0.44932(18)
Cl1 Cl 0.19156(13) 0.2931(2) 0.62728(16)
O1 O 0.1540(4) 0.2939(6) 0.5395(4)
O2 O 0.2728(4) 0.3480(6) 0.6554(5)
O3 O 0.1289(4) 0.3408(6) 0.6557(4)
O4 O 0.2032(5) 0.1867(5) 0.6474(6)
C23 C 0.9856(2) 0.13436(17) 0.7766(5)
C24 C 1.0345(7) 0.0444(3) 0.7649(7)
O9 O 0.9803(7) 0.2397(3) 0.7510(7)
C26 C 0.7049(14) -0.0867(3) 0.0650(4)
C27 C 0.73300(18) -0.0189(6) 0.1368(4)
O10 O 0.7951(10) 0.0440(18) 0.1205(15)
Cl2? Cl 0.2026(5) 0.3351(7) 0.6123(4)
O5? O 0.1481(11) 0.3024(14) 0.5322(8)
O6? O 0.2006(11) 0.4491(11) 0.6186(12)
O7? O 0.2949(9) 0.3060(14) 0.6310(11)
O8? O 0.1744(13) 0.2873(19) 0.6724(11)
C25? C 1.0237(2) 0.15220(17) 0.7350(4)
loop_
_geom_bond_atom_site_label_1
_geom_bond_atom_site_label_2
_geom_bond_site_symmetry_1
_geom_bond_site_symmetry_2
Cu1 Cu2 1_555 1_555
Cu2 N3 1_555 1_555
Cu3 N1 1_555 1_555
N1 C1 1_555 1_555
N2 Cu1 1_555 1_555
N3 C6 1_555 1_555
N4 C7 1_555 1_555
N5 C12 1_555 1_555
N6 Cu1 1_555 1_555
N7 Cu2 1_555 1_555
N8 C18 1_555 1_555
C1 H1 1_555 1_555
C2 C1 1_555 1_555
H2 C2 1_555 1_555
C3 N2 1_555 1_555
C4 C3 1_555 1_555
H3 C4 1_555 1_555
C5 N1 1_555 1_555
H4 C5 1_555 1_555
C6 N2 1_555 1_555
H5 C6 1_555 1_555
C7 H6 1_555 1_555
C8 C7 1_555 1_555
H7 C8 1_555 1_555
C9 N3 1_555 1_555
C10 C9 1_555 1_555
H8 C10 1_555 1_555
C11 N4 1_555 1_555
H9 C11 1_555 1_555
C12 H10 1_555 1_555
C13 C12 1_555 1_555
H11 C13 1_555 1_555
C14 N6 1_555 1_555
C15 C14 1_555 1_555
H12 C15 1_555 1_555
C16 N5 1_555 1_555
H13 C16 1_555 1_555
C17 N6 1_555 1_555
H14 C17 1_555 1_555
C18 H15 1_555 1_555
C19 C18 1_555 1_555
H16 C19 1_555 1_555
C20 N7 1_555 1_555
C21 C20 1_555 1_555
H17 C21 1_555 1_555
C22 N8 1_555 1_555
H18 C22 1_555 1_555
Cl1 O1 1_555 1_555
O2 Cl1 1_555 1_555
O3 Cl1 1_555 1_555
O4 Cl1 1_555 1_555
C23 C24 1_555 1_555
O9 C23 1_555 1_555
C26 C27 1_555 1_555
C27 O10 1_555 1_555
Cu1A N4 1_555 1_555
Cu2C N5 1_555 1_555
Cu3_2 N8 1_555 1_555
N4A Cu1 1_555 1_555
N5C Cu2 1_555 1_555
N8_2 Cu3 1_555 1_555
N7 C17 1_555 1_555
C2 C3 1_555 1_555
C4 C5 1_555 1_555
C8 C9 1_555 1_555
C10 C11 1_555 1_555
C13 C14 1_555 1_555
C15 C16 1_555 1_555
C19 C20 1_555 1_555
C21 C22 1_555 1_555

#END
