
#######################################################################
#
#                 Cambridge Crystallographic Data Centre
#                                CCDC 
#
#######################################################################
#
# If this CIF has been generated from an entry in the Cambridge 
# Structural Database, then it will include bibliographic, chemical, 
# crystal, experimental, refinement or atomic coordinate data resulting 
# from the CCDC's data processing and validation procedures.
#
#######################################################################

data_JOSNAG01
_symmetry_cell_setting           triclinic
_symmetry_space_group_name_H-M   'P -1'
_symmetry_Int_Tables_number      2
_space_group_name_Hall           '-P 1'
loop_
_symmetry_equiv_pos_site_id
_symmetry_equiv_pos_as_xyz
1 x,y,z
2 -x,-y,-z
_cell_length_a                   9.2490(10)
_cell_length_b                   9.8070(10)
_cell_length_c                   10.7300(10)
_cell_angle_alpha                68.000(10)
_cell_angle_beta                 84.470(10)
_cell_angle_gamma                62.050(10)
_cell_volume                     793.4
loop_
_atom_site_label
_atom_site_type_symbol
_atom_site_fract_x
_atom_site_fract_y
_atom_site_fract_z
La1 La 0.775216(18) 0.956260(18) 0.015771(14)
C1 C 0.5996(3) 0.9122(3) -0.1950(3)
C2 C 0.5436(4) 0.9114(4) -0.3215(3)
H1 H 0.6377 0.8741 -0.3718
H2 H 0.4662 1.0244 -0.3773
C3 C 0.4622(4) 0.7998(3) -0.2953(3)
H3 H 0.3672 0.8379 -0.2461
H4 H 0.4236 0.8109 -0.3812
C4 C 0.5774(4) 0.6159(3) -0.2151(3)
H5 H 0.6711 0.5753 -0.2648
H6 H 0.6178 0.6033 -0.1292
C5 C 0.4859(4) 0.5146(4) -0.1906(3)
H7 H 0.3991 0.5497 -0.1337
H8 H 0.4344 0.5397 -0.2764
C6 C 0.5921(3) 0.3286(3) -0.1253(3)
C7 C 0.9863(4) 0.9062(4) 0.2514(3)
C8 C 1.0742(4) 0.8841(4) 0.3748(3)
H9 H 1.1682 0.9039 0.3490
H10 H 1.1140 0.7708 0.4395
C9 C 0.9576(4) 1.0057(5) 0.4398(3)
H11 H 0.9134 1.1183 0.3731
H12 H 0.8663 0.9822 0.4688
O1 O 0.7481(3) 0.8777(3) -0.1764(2)
O2 O 0.4995(3) 0.9490(3) -0.1099(2)
O3 O 0.5783(3) 0.2341(3) -0.1727(2)
O4 O 0.6919(3) 0.2663(3) -0.0225(2)
O5 O 0.8726(3) 0.8664(3) 0.2662(2)
O6 O 1.0223(3) 0.9683(3) 0.1345(2)
O7 O 0.7448(3) 0.6997(3) 0.1494(3)
O8 O 1.0374(3) 0.6886(3) 0.0377(3)
H13 H 0.8178 0.6140 0.1785
H14 H 0.6747 0.6728 0.1871
H15 H 1.1207 0.7005 0.0205
H16 H 1.0543 0.6042 0.0914
C9A C 1.0424(4) 0.9943(5) 0.5602(3)
C8A C 0.9258(4) 1.1159(4) 0.6252(3)
C7A C 1.0137(4) 1.0938(4) 0.7486(3)
O5A O 1.1274(3) 1.1336(3) 0.7338(2)
O6A O 0.9777(3) 1.0317(3) 0.8655(2)
H9A H 0.8318 1.0961 0.6510
H10A H 0.8860 1.2292 0.5605
H11A H 1.0866 0.8817 0.6269
H12A H 1.1337 1.0178 0.5312
C1A C 0.4004(3) 1.0878(3) 0.1950(3)
C2A C 0.4564(4) 1.0886(4) 0.3215(3)
H1A H 0.3623 1.1259 0.3718
H2A H 0.5338 0.9756 0.3773
C3A C 0.5378(4) 1.2002(3) 0.2953(3)
H3A H 0.6328 1.1621 0.2461
H4A H 0.5764 1.1891 0.3812
C4A C 0.4226(4) 1.3841(3) 0.2151(3)
H5A H 0.3289 1.4247 0.2648
H6A H 0.3822 1.3967 0.1292
C5A C 0.5141(4) 1.4854(4) 0.1906(3)
H7A H 0.6009 1.4503 0.1337
H8A H 0.5656 1.4603 0.2764
C6A C 0.4079(3) 1.6714(3) 0.1253(3)
O1A O 0.2519(3) 1.1223(3) 0.1764(2)
O2A O 0.5005(3) 1.0510(3) 0.1099(2)
O3A O 0.4217(3) 1.7659(3) 0.1727(2)
O4A O 0.3081(3) 1.7337(3) 0.0225(2)
La1A La 0.224784(18) 1.043740(18) -0.015771(14)
O7A O 0.2552(3) 1.3003(3) -0.1494(3)
H13A H 0.1822 1.3860 -0.1785
H14A H 0.3253 1.3272 -0.1871
O8A O -0.0374(3) 1.3114(3) -0.0377(3)
H15A H -0.1207 1.2995 -0.0205
H16A H -0.0543 1.3958 -0.0914
O3_2 O 0.5783(3) 1.2341(3) -0.1727(2)
O4_2 O 0.6919(3) 1.2663(3) -0.0225(2)
O6A_2 O 0.9777(3) 1.0317(3) -0.1345(2)
La1_2 La 0.775216(18) -0.043740(18) 0.015771(14)
La1A_2 La 1.224784(18) 1.043740(18) -0.015771(14)
La1A_3 La 1.224784(18) 1.043740(18) 0.984229(14)
La1_3 La 0.775216(18) 0.956260(18) 1.015771(14)
La1A_4 La 0.224784(18) 2.043740(18) -0.015771(14)
O3A_2 O 0.4217(3) 0.7659(3) 0.1727(2)
O4A_2 O 0.3081(3) 0.7337(3) 0.0225(2)
O5A_2 O 0.1274(3) 1.1336(3) -0.2662(2)
O6_2 O 0.0223(3) 0.9683(3) 0.1345(2)
O6A_3 O -0.0223(3) 1.0317(3) -0.1345(2)
O9 O 0.4436(6) 1.3770(6) -0.4529(3)
H17 H 0.4861 1.3250 -0.3820
H18 H 0.4784 1.4504 -0.4816
O10 O 0.8490(4) 0.6385(4) 0.5028(3)
H19 H 0.8337 0.7162 0.4264
H20 H 0.9489 0.5621 0.4979
O11 O 1.0269(3) 0.4019(3) 0.2432(3)
H21 H 1.0635 0.3800 0.3145
H22 H 1.0777 0.3233 0.2122
loop_
_geom_bond_atom_site_label_1
_geom_bond_atom_site_label_2
_geom_bond_site_symmetry_1
_geom_bond_site_symmetry_2
La1 O1 1_555 1_555
C1 C2 1_555 1_555
C2 H1 1_555 1_555
H2 C2 1_555 1_555
C3 C2 1_555 1_555
H3 C3 1_555 1_555
H4 C3 1_555 1_555
C4 C3 1_555 1_555
H5 C4 1_555 1_555
H6 C4 1_555 1_555
C5 C4 1_555 1_555
H7 C5 1_555 1_555
H8 C5 1_555 1_555
C6 C5 1_555 1_555
C7 C8 1_555 1_555
C8 H9 1_555 1_555
H10 C8 1_555 1_555
C9 C8 1_555 1_555
H11 C9 1_555 1_555
H12 C9 1_555 1_555
O1 C1 1_555 1_555
O2 C1 1_555 1_555
O3 C6 1_555 1_555
O4 C6 1_555 1_555
O5 La1 1_555 1_555
O6 La1 1_555 1_555
O7 La1 1_555 1_555
O8 La1 1_555 1_555
H13 O7 1_555 1_555
H14 O7 1_555 1_555
H15 O8 1_555 1_555
H16 O8 1_555 1_555
O9 H17 1_555 1_555
H18 O9 1_555 1_555
O10 H19 1_555 1_555
H20 O10 1_555 1_555
O11 H21 1_555 1_555
H22 O11 1_555 1_555
C9A C9 1_555 1_555
C8A C9A 1_555 1_555
C7A C8A 1_555 1_555
O5A C7A 1_555 1_555
O6A C7A 1_555 1_555
H9A C8A 1_555 1_555
H10A C8A 1_555 1_555
H11A C9A 1_555 1_555
H12A C9A 1_555 1_555
C1A C2A 1_555 1_555
C2A H1A 1_555 1_555
H2A C2A 1_555 1_555
C3A C2A 1_555 1_555
H3A C3A 1_555 1_555
H4A C3A 1_555 1_555
C4A C3A 1_555 1_555
H5A C4A 1_555 1_555
H6A C4A 1_555 1_555
C5A C4A 1_555 1_555
H7A C5A 1_555 1_555
H8A C5A 1_555 1_555
C6A C5A 1_555 1_555
O1A C1A 1_555 1_555
O2A La1 1_555 1_555
O3A C6A 1_555 1_555
O4A C6A 1_555 1_555
La1A O2 1_555 1_555
O7A La1A 1_555 1_555
H13A O7A 1_555 1_555
H14A O7A 1_555 1_555
O8A La1A 1_555 1_555
H15A O8A 1_555 1_555
H16A O8A 1_555 1_555
O3_2 La1 1_555 1_555
O4_2 La1 1_555 1_555
O6A_2 La1 1_555 1_555
La1_2 O3 1_555 1_555
La1A_2 O6 1_555 1_555
La1A_3 O5A 1_555 1_555
La1_3 O6A 1_555 1_555
La1A_4 O3A 1_555 1_555
O3A_2 La1A 1_555 1_555
O4A_2 La1A 1_555 1_555
O5A_2 La1A 1_555 1_555
O6_2 La1A 1_555 1_555
O6A_3 La1A 1_555 1_555
C7 O5 1_555 1_555
C7 O6 1_555 1_555
O4 La1_2 1_555 1_555
O6A La1A_3 1_555 1_555
C1A O2A 1_555 1_555
O1A La1A 1_555 1_555
O4A La1A_4 1_555 1_555
O6A_2 La1A_2 1_555 1_555

#END
