
#######################################################################
#
#                 Cambridge Crystallographic Data Centre
#                                CCDC 
#
#######################################################################
#
# If this CIF has been generated from an entry in the Cambridge 
# Structural Database, then it will include bibliographic, chemical, 
# crystal, experimental, refinement or atomic coordinate data resulting 
# from the CCDC's data processing and validation procedures.
#
#######################################################################

data_JUGLAA
_symmetry_cell_setting           monoclinic
_symmetry_space_group_name_H-M   'P 21/c'
_symmetry_Int_Tables_number      14
_space_group_name_Hall           '-P 2ybc'
loop_
_symmetry_equiv_pos_site_id
_symmetry_equiv_pos_as_xyz
1 x,y,z
2 -x,1/2+y,1/2-z
3 -x,-y,-z
4 x,1/2-y,1/2+z
_cell_length_a                   14.15220(10)
_cell_length_b                   21.2273(2)
_cell_length_c                   22.7075(3)
_cell_angle_alpha                90
_cell_angle_beta                 121.7230(10)
_cell_angle_gamma                90
_cell_volume                     5802.48
loop_
_atom_site_label
_atom_site_type_symbol
_atom_site_fract_x
_atom_site_fract_y
_atom_site_fract_z
C1 C 0.3481(8) -0.2691(4) 0.6634(4)
C2 C 0.2595(8) -0.3106(4) 0.6408(5)
H1 H 0.2263 -0.3158 0.6666
C3 C 0.2205(8) -0.3442(4) 0.5798(6)
H2 H 0.1612 -0.3719 0.5647
C4 C 0.2701(11) -0.3364(5) 0.5412(4)
H3 H 0.2440 -0.3589 0.5004
C5 C 0.3587(11) -0.2950(6) 0.5638(6)
H4 H 0.3919 -0.2898 0.5380
C6 C 0.3977(7) -0.2614(4) 0.6248(6)
H5 H 0.4569 -0.2336 0.6399
Cd1 Cd 0.10008(3) 0.091261(16) 0.598029(17)
Cd2 Cd -0.20788(3) -0.022335(16) 0.489433(18)
F1 F -0.0660(6) 0.1125(2) 0.8542(3)
F2 F 0.1120(6) 0.1198(2) 0.8837(3)
F3 F 0.5725(8) -0.1152(3) 0.8805(5)
F4 F 0.4501(11) -0.1525(5) 0.8974(4)
O1 O 0.0622(4) 0.40877(18) 0.9700(2)
O2 O 0.0685(4) 0.3244(2) 1.0300(2)
O3 O -0.0794(3) 0.06436(18) 0.56257(19)
O4 O -0.1793(4) 0.0129(2) 0.5956(2)
O5 O 0.1572(3) -0.01636(17) 0.58611(19)
O6 O 0.1693(4) 0.01558(19) 0.6824(2)
O7 O 0.7145(3) -0.40775(17) 0.8904(2)
O8 O 0.6873(4) -0.38200(19) 0.9746(2)
N1 N 0.1788(4) 0.1608(2) 0.6905(3)
N2 N 0.6215(5) 0.4714(3) 0.9356(3)
N3 N 0.0069(6) 0.2168(2) 0.8595(3)
N4 N -0.0318(5) 0.1417(2) 0.7651(3)
N5 N 0.3960(5) -0.1345(3) 0.7782(3)
N6 N 0.5228(5) -0.2224(3) 0.8460(3)
C7 C 0.5765(9) 0.4529(5) 0.9709(6)
H6 H 0.6190 0.4556 1.0189
C8 C 0.4674(9) 0.4291(6) 0.9397(6)
H7 H 0.4386 0.4186 0.9670
C9 C 0.4044(7) 0.4214(4) 0.8701(6)
C10 C 0.4518(7) 0.4382(5) 0.8332(5)
H8 H 0.4135 0.4318 0.7856
C11 C 0.5572(6) 0.4647(4) 0.8670(4)
H9 H 0.5848 0.4788 0.8401
C12 C 0.2874(7) 0.3912(5) 0.8354(5)
H10 H 0.2359 0.4215 0.8350
H11 H 0.2623 0.3809 0.7877
C13 C 0.2859(9) 0.3335(5) 0.8713(5)
H12 H 0.2100 0.3185 0.8495
H13 H 0.3113 0.3439 0.9190
C14 C 0.3578(9) 0.2812(5) 0.8704(5)
H14 H 0.3842 0.2553 0.9114
H15 H 0.4221 0.2996 0.8724
C15 C 0.2970(7) 0.2398(4) 0.8067(4)
C16 C 0.2818(7) 0.2563(4) 0.7428(4)
H16 H 0.3121 0.2934 0.7381
C17 C 0.2204(6) 0.2166(3) 0.6860(4)
H17 H 0.2077 0.2291 0.6431
C18 C 0.1973(6) 0.1447(3) 0.7527(3)
H18 H 0.1718 0.1057 0.7572
C19 C 0.2522(6) 0.1829(3) 0.8107(4)
H19 H 0.2590 0.1705 0.8520
C20 C -0.1141(5) 0.0567(3) 0.6037(3)
C21 C -0.0810(5) 0.1028(3) 0.6606(3)
C22 C -0.0507(7) 0.0877(3) 0.7283(3)
C23 C -0.0342(10) 0.0239(3) 0.7593(4)
H20 H -0.0616 0.0233 0.7901
H21 H 0.0435 0.0138 0.7847
H22 H -0.0738 -0.0065 0.7232
C24 C -0.0830(5) 0.1686(3) 0.6550(3)
C25 C -0.0518(5) 0.1924(3) 0.7208(3)
C26 C -0.1155(6) 0.2052(3) 0.5906(3)
H23 H -0.0502 0.2226 0.5940
H24 H -0.1649 0.2387 0.5854
H25 H -0.1521 0.1777 0.5512
C27 C -0.0423(5) 0.2553(3) 0.7452(3)
C28 C -0.0668(8) 0.3074(3) 0.6985(4)
C29 C -0.1675(10) 0.3378(5) 0.6698(5)
H26 H -0.2196 0.3246 0.6803
C30 C -0.1920(13) 0.3897(7) 0.6238(7)
H27 H -0.2607 0.4097 0.6026
C31 C -0.1138(13) 0.4085(7) 0.6121(7)
H28 H -0.1289 0.4435 0.5839
C32 C -0.0067(12) 0.3784(6) 0.6401(6)
H29 H 0.0461 0.3924 0.6304
C33 C 0.0107(10) 0.3271(5) 0.6824(5)
H30 H 0.0770 0.3049 0.7009
C34 C -0.0126(5) 0.2666(2) 0.8142(3)
C35 C 0.0050(5) 0.3233(3) 0.8505(3)
C36 C -0.0011(7) 0.3884(3) 0.8243(4)
H31 H 0.0329 0.3894 0.7972
H32 H 0.0374 0.4168 0.8627
H33 H -0.0774 0.4010 0.7961
C37 C 0.0321(5) 0.3067(3) 0.9177(3)
C38 C 0.0312(7) 0.2401(3) 0.9213(3)
C39 C 0.0579(10) 0.2003(4) 0.9817(4)
H34 H 0.0612 0.1569 0.9709
H35 H 0.0014 0.2054 0.9926
H36 H 0.1285 0.2127 1.0207
C40 C 0.0559(5) 0.3497(3) 0.9756(3)
C41 C 0.1935(5) -0.0236(2) 0.6500(3)
C42 C 0.2654(5) -0.0773(3) 0.6886(3)
C43 C 0.3403(6) -0.0784(3) 0.7613(3)
C44 C 0.3606(9) -0.0266(3) 0.8114(4)
H37 H 0.3028 -0.0268 0.8215
H38 H 0.3611 0.0132 0.7914
H39 H 0.4311 -0.0331 0.8533
C45 C 0.2782(5) -0.1342(3) 0.6619(3)
C46 C 0.2201(6) -0.1532(3) 0.5879(3)
H40 H 0.2737 -0.1603 0.5749
H41 H 0.1701 -0.1203 0.5597
H42 H 0.1789 -0.1912 0.5814
C47 C 0.3576(5) -0.1696(3) 0.7177(3)
C48 C 0.4854(5) -0.2561(3) 0.7851(3)
C49 C 0.5976(5) -0.2586(3) 0.9007(3)
C50 C 0.6569(7) -0.2388(4) 0.9749(3)
H43 H 0.6927 -0.1990 0.9801
H44 H 0.7117 -0.2699 1.0030
H45 H 0.6045 -0.2348 0.9894
C51 C 0.6072(5) -0.3165(3) 0.8747(3)
C52 C 0.6742(4) -0.3716(2) 0.9161(3)
C53 C 0.5377(5) -0.3143(3) 0.8019(3)
C54 C 0.5215(6) -0.3656(3) 0.7522(3)
H46 H 0.4446 -0.3675 0.7159
H47 H 0.5435 -0.4052 0.7762
H48 H 0.5660 -0.3570 0.7326
C55 C 0.3991(6) -0.2318(3) 0.7174(4)
B1 B 0.0033(10) 0.1469(4) 0.8411(4)
B2 B 0.4852(8) -0.1572(4) 0.8481(4)
Cd1A Cd 0.89992(3) -0.408739(16) 0.901971(17)
Cd1C Cd 0.10008(3) 0.408739(16) 1.098029(17)
Cd2A Cd 0.20788(3) 0.477665(16) 1.010567(18)
Cd2B Cd 0.20788(3) 0.022335(16) 0.510567(18)
Cd2C Cd 0.79212(3) -0.477665(16) 0.989433(18)
Cd2C_2 Cd 0.79212(3) 0.522335(16) 0.989433(18)
O1A O -0.0622(4) -0.09123(18) 0.5300(2)
O1C O 0.0622(4) 0.09123(18) 0.4700(2)
O2C O 0.0685(4) 0.1756(2) 0.5300(2)
O5B O -0.1572(3) 0.01636(17) 0.41389(19)
O7A O 0.2855(3) 0.09225(17) 0.6096(2)
O7C O -0.2855(3) -0.09225(17) 0.3904(2)
O8C O -0.3127(4) -0.11800(19) 0.4746(2)
N2C N -0.3785(5) 0.0286(3) 0.4356(3)
O9 O 0.3494(15) 0.5943(9) 0.8409(10)
H49 H 0.2901 0.5832 0.8071
C56 C 0.3950(19) 0.6761(11) 0.9261(12)
H50 H 0.3602 0.6541 0.9468
H51 H 0.3858 0.7206 0.9284
H52 H 0.4727 0.6661 0.9507
C57 C 0.3456(11) 0.6577(8) 0.8568(9)
H53 H 0.2681 0.6700 0.8331
H54 H 0.3797 0.6822 0.8368
O10 O 0.599(3) 0.9381(15) 0.0270(16)
H55 H 0.5824 0.9681 -0.0017
H56 H 0.5429 0.9149 0.0144
O11 O 0.768(3) 0.932(3) 0.8584(17)
H57 H 0.7421 0.9647 0.8342
H58 H 0.7181 0.9200 0.8658
loop_
_geom_bond_atom_site_label_1
_geom_bond_atom_site_label_2
_geom_bond_site_symmetry_1
_geom_bond_site_symmetry_2
C1 C2 1_555 1_555
C2 H1 1_555 1_555
C3 C2 1_555 1_555
H2 C3 1_555 1_555
C4 C3 1_555 1_555
H3 C4 1_555 1_555
C5 C4 1_555 1_555
H4 C5 1_555 1_555
C6 C1 1_555 1_555
H5 C6 1_555 1_555
Cd1 O3 1_555 1_555
Cd2 O3 1_555 1_555
F1 B1 1_555 1_555
F2 B1 1_555 1_555
F3 B2 1_555 1_555
F4 B2 1_555 1_555
O1 C40 1_555 1_555
O2 C40 1_555 1_555
O3 C20 1_555 1_555
O4 Cd2 1_555 1_555
O5 Cd1 1_555 1_555
O6 Cd1 1_555 1_555
O7 C52 1_555 1_555
O8 C52 1_555 1_555
N1 Cd1 1_555 1_555
N2 C7 1_555 1_555
N3 C34 1_555 1_555
N4 C22 1_555 1_555
N5 C43 1_555 1_555
N6 C48 1_555 1_555
C7 H6 1_555 1_555
C8 C7 1_555 1_555
H7 C8 1_555 1_555
C9 C8 1_555 1_555
C10 C9 1_555 1_555
H8 C10 1_555 1_555
C11 N2 1_555 1_555
H9 C11 1_555 1_555
C12 C9 1_555 1_555
H10 C12 1_555 1_555
H11 C12 1_555 1_555
C13 C12 1_555 1_555
H12 C13 1_555 1_555
H13 C13 1_555 1_555
C14 C13 1_555 1_555
H14 C14 1_555 1_555
H15 C14 1_555 1_555
C15 C14 1_555 1_555
C16 C15 1_555 1_555
H16 C16 1_555 1_555
C17 N1 1_555 1_555
H17 C17 1_555 1_555
C18 N1 1_555 1_555
H18 C18 1_555 1_555
C19 C15 1_555 1_555
H19 C19 1_555 1_555
C20 O4 1_555 1_555
C21 C20 1_555 1_555
C22 C21 1_555 1_555
C23 C22 1_555 1_555
H20 C23 1_555 1_555
H21 C23 1_555 1_555
H22 C23 1_555 1_555
C24 C21 1_555 1_555
C25 N4 1_555 1_555
C26 C24 1_555 1_555
H23 C26 1_555 1_555
H24 C26 1_555 1_555
H25 C26 1_555 1_555
C27 C25 1_555 1_555
C28 C27 1_555 1_555
C29 C28 1_555 1_555
H26 C29 1_555 1_555
C30 C29 1_555 1_555
H27 C30 1_555 1_555
C31 C30 1_555 1_555
H28 C31 1_555 1_555
C32 C31 1_555 1_555
H29 C32 1_555 1_555
C33 C28 1_555 1_555
H30 C33 1_555 1_555
C34 C27 1_555 1_555
C35 C34 1_555 1_555
C36 C35 1_555 1_555
H31 C36 1_555 1_555
H32 C36 1_555 1_555
H33 C36 1_555 1_555
C37 C35 1_555 1_555
C38 N3 1_555 1_555
C39 C38 1_555 1_555
H34 C39 1_555 1_555
H35 C39 1_555 1_555
H36 C39 1_555 1_555
C40 C37 1_555 1_555
C41 O5 1_555 1_555
C42 C41 1_555 1_555
C43 C42 1_555 1_555
C44 C43 1_555 1_555
H37 C44 1_555 1_555
H38 C44 1_555 1_555
H39 C44 1_555 1_555
C45 C42 1_555 1_555
C46 C45 1_555 1_555
H40 C46 1_555 1_555
H41 C46 1_555 1_555
H42 C46 1_555 1_555
C47 N5 1_555 1_555
C48 C53 1_555 1_555
C49 N6 1_555 1_555
C50 C49 1_555 1_555
H43 C50 1_555 1_555
H44 C50 1_555 1_555
H45 C50 1_555 1_555
C51 C49 1_555 1_555
C52 C51 1_555 1_555
C53 C51 1_555 1_555
C54 C53 1_555 1_555
H46 C54 1_555 1_555
H47 C54 1_555 1_555
H48 C54 1_555 1_555
C55 C1 1_555 1_555
B1 N3 1_555 1_555
B2 N5 1_555 1_555
O9 H49 1_555 1_555
C56 H50 1_555 1_555
H51 C56 1_555 1_555
H52 C56 1_555 1_555
C57 O9 1_555 1_555
H53 C57 1_555 1_555
H54 C57 1_555 1_555
O10 H55 1_555 1_555
H56 O10 1_555 1_555
O11 H57 1_555 1_555
H58 O11 1_555 1_555
Cd1A O7 1_555 1_555
Cd1C O1 1_555 1_555
Cd2A O1 1_555 1_555
Cd2B O5 1_555 1_555
Cd2C O7 1_555 1_555
Cd2C_2 N2 1_555 1_555
O1A Cd2 1_555 1_555
O1C Cd1 1_555 1_555
O2C Cd1 1_555 1_555
O5B Cd2 1_555 1_555
O7A Cd1 1_555 1_555
O7C Cd2 1_555 1_555
O8C Cd2 1_555 1_555
N2C Cd2 1_555 1_555
C5 C6 1_555 1_555
O2 Cd1C 1_555 1_555
O6 C41 1_555 1_555
O8 Cd2C 1_555 1_555
N4 B1 1_555 1_555
N6 B2 1_555 1_555
C10 C11 1_555 1_555
C16 C17 1_555 1_555
C18 C19 1_555 1_555
C24 C25 1_555 1_555
C32 C33 1_555 1_555
C37 C38 1_555 1_555
C45 C47 1_555 1_555
C47 C55 1_555 1_555
C48 C55 1_555 1_555
C56 C57 1_555 1_555
Cd2B O1C 1_555 1_555
Cd2B O7A 1_555 1_555

#END
