
#######################################################################
#
#                 Cambridge Crystallographic Data Centre
#                                CCDC 
#
#######################################################################
#
# If this CIF has been generated from an entry in the Cambridge 
# Structural Database, then it will include bibliographic, chemical, 
# crystal, experimental, refinement or atomic coordinate data resulting 
# from the CCDC's data processing and validation procedures.
#
#######################################################################

data_JUJMIM
_symmetry_cell_setting           rhombohedral
_symmetry_space_group_name_H-M   'R 3 2'
_symmetry_Int_Tables_number      155
_space_group_name_Hall           'R 3 2"'
loop_
_symmetry_equiv_pos_site_id
_symmetry_equiv_pos_as_xyz
1 x,y,z
2 -y,x-y,z
3 -x+y,-x,z
4 y,x,-z
5 -x,-x+y,-z
6 x-y,-y,-z
7 2/3+x,1/3+y,1/3+z
8 2/3-y,1/3+x-y,1/3+z
9 2/3-x+y,1/3-x,1/3+z
10 2/3+y,1/3+x,1/3-z
11 2/3-x,1/3-x+y,1/3-z
12 2/3+x-y,1/3-y,1/3-z
13 1/3+x,2/3+y,2/3+z
14 1/3-y,2/3+x-y,2/3+z
15 1/3-x+y,2/3-x,2/3+z
16 1/3+y,2/3+x,2/3-z
17 1/3-x,2/3-x+y,2/3-z
18 1/3+x-y,2/3-y,2/3-z
_cell_length_a                   18.985(3)
_cell_length_b                   18.985(3)
_cell_length_c                   68.340(14)
_cell_angle_alpha                90
_cell_angle_beta                 90
_cell_angle_gamma                120
_cell_volume                     21331.8
loop_
_atom_site_label
_atom_site_type_symbol
_atom_site_fract_x
_atom_site_fract_y
_atom_site_fract_z
Zn1 Zn 0.3333 0.6667 0.297076(10)
Zn2 Zn 0.35503(3) 0.58271(4) 0.334477(6)
Zn3 Zn 0.0000 0.0000 0.193606(13)
Zn4 Zn 0.10317(2) 0.08573(2) 0.155295(5)
O1 O 0.3333 0.6667 0.32536(6)
O2 O 0.0000 0.0000 0.16419(5)
O3 O 0.3413(2) 0.5763(2) 0.28649(5)
O4 O 0.3816(4) 0.5358(4) 0.31325(7)
O5 O 0.1062(3) 0.0790(4) 0.19899(7)
O6 O 0.1928(2) 0.1459(2) 0.17387(5)
O7 O 0.14995(16) 0.04200(16) 0.13655(3)
O8 O 0.07517(16) -0.09461(16) 0.14035(4)
O9 O 0.5097(2) 0.2179(2) 0.01870(5)
O10 O 0.6068(3) 0.1829(4) 0.02015(9)
N1 N 0.4213(4) 0.3202(4) 0.24713(9)
N2 N 0.3505(3) -0.0645(3) 0.08162(7)
C1 C 0.3689(3) 0.5363(4) 0.29484(7)
C2 C 0.3839(3) 0.4789(3) 0.28252(5)
C3 C 0.4279(4) 0.4441(4) 0.28976(5)
H1 H 0.4499 0.4568 0.3026
C4 C 0.4397(4) 0.3905(4) 0.27822(6)
H2 H 0.4697 0.3667 0.2832
C5 C 0.4074(3) 0.3718(3) 0.25943(5)
C6 C 0.3634(2) 0.4066(2) 0.25218(4)
H3 H 0.3414 0.3939 0.2393
C7 C 0.35168(19) 0.4602(2) 0.26373(4)
H4 H 0.3216 0.4840 0.2588
C8 C 0.4959(6) 0.3204(6) 0.24698(12)
H5 H 0.4937 0.2810 0.2566
H6 H 0.5403 0.3748 0.2503
H7 H 0.5053 0.3054 0.2339
C9 C 0.1761(4) 0.1331(4) 0.19163(9)
C10 C 0.24127(17) 0.1789(2) 0.20634(4)
C11 C 0.31994(18) 0.23049(19) 0.19972(4)
H8 H 0.3321 0.2329 0.1862
C12 C 0.38088(15) 0.27864(19) 0.21294(5)
H9 H 0.4347 0.3139 0.2084
C13 C 0.3631(2) 0.2752(3) 0.23277(5)
C14 C 0.2845(2) 0.2235(3) 0.23938(4)
H10 H 0.2723 0.2212 0.2529
C15 C 0.22353(19) 0.1754(3) 0.22617(5)
H11 H 0.1698 0.1401 0.2307
C16 C 0.1358(2) -0.0310(2) 0.13362(5)
C17 C 0.19424(15) -0.04043(14) 0.12117(4)
C18 C 0.17843(15) -0.11731(11) 0.11550(5)
H12 H 0.1320 -0.1644 0.1205
C19 C 0.23052(18) -0.12532(12) 0.10257(5)
H13 H 0.2197 -0.1779 0.0987
C20 C 0.29842(17) -0.05645(16) 0.09531(5)
C21 C 0.31423(15) 0.02042(13) 0.10098(5)
H14 H 0.3606 0.0675 0.0960
C22 C 0.26214(16) 0.02844(11) 0.11391(4)
H15 H 0.2729 0.0810 0.1178
C23 C 0.3473(3) -0.1402(3) 0.08070(10)
H16 H 0.3757 -0.1460 0.0920
H17 H 0.3736 -0.1432 0.0686
H18 H 0.2904 -0.1841 0.0808
C24 C 0.5394(3) 0.1771(3) 0.02511(7)
C25 C 0.4911(2) 0.1149(3) 0.04088(6)
C26 C 0.52142(19) 0.0702(3) 0.05002(7)
H19 H 0.5745 0.0802 0.0470
C27 C 0.4741(2) 0.0108(2) 0.06364(6)
H20 H 0.4948 -0.0198 0.0699
C28 C 0.3965(2) -0.0039(2) 0.06810(5)
C29 C 0.36617(17) 0.0409(2) 0.05895(6)
H21 H 0.3131 0.0308 0.0620
C30 C 0.4135(2) 0.1003(2) 0.04534(6)
H22 H 0.3928 0.1309 0.0391
Zn2A Zn -0.58271(4) -0.22768(5) 0.334477(6)
Zn4A Zn -0.08573(2) 0.01744(3) 0.155295(5)
O3A O -0.5763(2) -0.2350(3) 0.28649(5)
O4A O -0.5358(4) -0.1542(6) 0.31325(7)
O5A O -0.0790(4) 0.0272(5) 0.19899(7)
O6A O -0.1459(2) 0.0469(3) 0.17387(5)
O7A O -0.04200(16) 0.10795(23) 0.13655(3)
O8A O 0.09461(16) 0.16978(23) 0.14035(4)
O9A O -0.2179(2) 0.2918(3) 0.01870(5)
O10A O -0.1829(4) 0.4239(5) 0.02015(9)
N1A N -0.3202(4) 0.1011(6) 0.24713(9)
N2A N 0.0645(3) 0.4150(4) 0.08162(7)
C1A C -0.5363(4) -0.1674(5) 0.29484(7)
C2A C -0.4789(3) -0.0950(4) 0.28252(5)
C3A C -0.4441(4) -0.0162(6) 0.28976(5)
H1A H -0.4568 -0.0069 0.3026
C4A C -0.3905(4) 0.0492(6) 0.27822(6)
H2A H -0.3667 0.1030 0.2832
C5A C -0.3718(3) 0.0356(4) 0.25943(5)
C6A C -0.4066(2) -0.0432(3) 0.25218(4)
H3A H -0.3939 -0.0525 0.2393
C7A C -0.4602(2) -0.10852(28) 0.26373(4)
H4A H -0.4840 -0.1624 0.2588
C8A C -0.3204(6) 0.1755(8) 0.24698(12)
H5A H -0.2810 0.2127 0.2566
H6A H -0.3748 0.1655 0.2503
H7A H -0.3054 0.1999 0.2339
C9A C -0.1331(4) 0.0430(6) 0.19163(9)
C10A C -0.1789(2) 0.06237(26) 0.20634(4)
C11A C -0.23049(19) 0.08945(26) 0.19972(4)
H8A H -0.2329 0.0992 0.1862
C12A C -0.27864(19) 0.10224(24) 0.21294(5)
H9A H -0.3139 0.1208 0.2084
C13A C -0.2752(3) 0.0879(4) 0.23277(5)
C14A C -0.2235(3) 0.0610(4) 0.23938(4)
H10A H -0.2212 0.0511 0.2529
C15A C -0.1754(3) 0.04813(36) 0.22617(5)
H11A H -0.1401 0.0297 0.2307
C16A C 0.0310(2) 0.1668(3) 0.13362(5)
C17A C 0.04043(14) 0.23467(21) 0.12117(4)
C18A C 0.11731(11) 0.29574(19) 0.11550(5)
H12A H 0.1644 0.2964 0.1205
C19A C 0.12532(12) 0.35584(22) 0.10257(5)
H13A H 0.1779 0.3976 0.0987
C20A C 0.05645(16) 0.35487(23) 0.09531(5)
C21A C -0.02042(13) 0.29381(20) 0.10098(5)
H14A H -0.0675 0.2931 0.0960
C22A C -0.02844(11) 0.23370(19) 0.11391(4)
H15A H -0.0810 0.1919 0.1178
C23A C 0.1402(3) 0.4875(4) 0.08070(10)
H16A H 0.1460 0.5217 0.0920
H17A H 0.1432 0.5168 0.0686
H18A H 0.1841 0.4745 0.0808
C24A C -0.1771(3) 0.3623(4) 0.02511(7)
C25A C -0.1149(3) 0.3762(4) 0.04088(6)
C26A C -0.0702(3) 0.45122(36) 0.05002(7)
H19A H -0.0802 0.4943 0.0470
C27A C -0.0108(2) 0.4633(3) 0.06364(6)
H20A H 0.0198 0.5146 0.0699
C28A C 0.0039(2) 0.4004(3) 0.06810(5)
C29A C -0.0409(2) 0.32527(26) 0.05895(6)
H21A H -0.0308 0.2823 0.0620
C30A C -0.1003(2) 0.3132(3) 0.04534(6)
H22A H -0.1309 0.2619 0.0391
Zn2B Zn 0.22768(5) -0.35503(3) 0.334477(6)
Zn4B Zn -0.01744(3) -0.10317(2) 0.155295(5)
O3B O 0.2350(3) -0.3413(2) 0.28649(5)
O4B O 0.1542(6) -0.3816(4) 0.31325(7)
O5B O -0.0272(5) -0.1062(3) 0.19899(7)
O6B O -0.0469(3) -0.1928(2) 0.17387(5)
O7B O -0.10795(23) -0.14995(16) 0.13655(3)
O8B O -0.16978(23) -0.07517(16) 0.14035(4)
O9B O -0.2918(3) -0.5097(2) 0.01870(5)
O10B O -0.4239(5) -0.6068(3) 0.02015(9)
N1B N -0.1011(6) -0.4213(4) 0.24713(9)
N2B N -0.4150(4) -0.3505(3) 0.08162(7)
C1B C 0.1674(5) -0.3689(3) 0.29484(7)
C2B C 0.0950(4) -0.3839(3) 0.28252(5)
C3B C 0.0162(6) -0.4279(4) 0.28976(5)
H1B H 0.0069 -0.4499 0.3026
C4B C -0.0492(6) -0.4397(4) 0.27822(6)
H2B H -0.1030 -0.4697 0.2832
C5B C -0.0356(4) -0.4074(3) 0.25943(5)
C6B C 0.0432(3) -0.3634(2) 0.25218(4)
H3B H 0.0525 -0.3414 0.2393
C7B C 0.10852(28) -0.35168(19) 0.26373(4)
H4B H 0.1624 -0.3216 0.2588
C8B C -0.1755(8) -0.4959(6) 0.24698(12)
H5B H -0.2127 -0.4937 0.2566
H6B H -0.1655 -0.5403 0.2503
H7B H -0.1999 -0.5053 0.2339
C9B C -0.0430(6) -0.1761(4) 0.19163(9)
C10B C -0.06237(26) -0.24127(17) 0.20634(4)
C11B C -0.08945(26) -0.31994(18) 0.19972(4)
H8B H -0.0992 -0.3321 0.1862
C12B C -0.10224(24) -0.38088(15) 0.21294(5)
H9B H -0.1208 -0.4347 0.2084
C13B C -0.0879(4) -0.3631(2) 0.23277(5)
C14B C -0.0610(4) -0.2845(2) 0.23938(4)
H10B H -0.0511 -0.2723 0.2529
C15B C -0.04813(36) -0.22353(19) 0.22617(5)
H11B H -0.0297 -0.1698 0.2307
C16B C -0.1668(3) -0.1358(2) 0.13362(5)
C17B C -0.23467(21) -0.19424(15) 0.12117(4)
C18B C -0.29574(19) -0.17843(15) 0.11550(5)
H12B H -0.2964 -0.1320 0.1205
C19B C -0.35584(22) -0.23052(18) 0.10257(5)
H13B H -0.3976 -0.2197 0.0987
C20B C -0.35487(23) -0.29842(17) 0.09531(5)
C21B C -0.29381(20) -0.31423(15) 0.10098(5)
H14B H -0.2931 -0.3606 0.0960
C22B C -0.23370(19) -0.26214(16) 0.11391(4)
H15B H -0.1919 -0.2729 0.1178
C23B C -0.4875(4) -0.3473(3) 0.08070(10)
H16B H -0.5217 -0.3757 0.0920
H17B H -0.5168 -0.3736 0.0686
H18B H -0.4745 -0.2904 0.0808
C24B C -0.3623(4) -0.5394(3) 0.02511(7)
C25B C -0.3762(4) -0.4911(2) 0.04088(6)
C26B C -0.45122(36) -0.52142(19) 0.05002(7)
H19B H -0.4943 -0.5745 0.0470
C27B C -0.4633(3) -0.4741(2) 0.06364(6)
H20B H -0.5146 -0.4948 0.0699
C28B C -0.4004(3) -0.3965(2) 0.06810(5)
C29B C -0.32527(26) -0.36617(17) 0.05895(6)
H21B H -0.2823 -0.3131 0.0620
C30B C -0.3132(3) -0.4135(2) 0.04534(6)
H22B H -0.2619 -0.3928 0.0391
Zn1_2 Zn -0.6667 -0.3333 0.297076(10)
Zn1_3 Zn 0.3333 -0.3333 0.297076(10)
Zn2A_2 Zn 0.41729(4) 0.77232(5) 0.334477(6)
Zn2B_2 Zn 0.22768(5) 0.64497(3) 0.334477(6)
Zn2L Zn -0.31164(3) 0.24938(4) 0.001144(6)
Zn2L_2 Zn 0.68836(3) 0.24938(4) 0.001144(6)
Zn2M Zn -0.24938(4) -0.56101(5) 0.001144(6)
Zn2M_2 Zn -0.24938(4) 0.43899(5) 0.001144(6)
Zn2N Zn -0.43899(5) -0.68836(3) 0.001144(6)
Zn2N_2 Zn 0.56101(5) 0.31164(3) 0.001144(6)
O1_2 O -0.6667 -0.3333 0.32536(6)
O1_3 O 0.3333 -0.3333 0.32536(6)
O3A_2 O 0.4237(2) 0.7650(3) 0.28649(5)
O3B_2 O 0.2350(3) 0.6587(2) 0.28649(5)
O9F O 0.1764(2) -0.4488(2) 0.35203(5)
O9G O 0.4488(2) 0.6251(3) 0.35203(5)
O9H O -0.6251(3) -0.1764(2) 0.35203(5)
O10F O 0.2735(3) 0.5162(4) 0.35348(9)
O10G O -0.5162(4) -0.2428(5) 0.35348(9)
O10H O 0.2428(5) -0.2735(3) 0.35348(9)
loop_
_geom_bond_atom_site_label_1
_geom_bond_atom_site_label_2
_geom_bond_site_symmetry_1
_geom_bond_site_symmetry_2
Zn1 O1 1_555 1_555
Zn2 O1 1_555 1_555
Zn3 O2 1_555 1_555
Zn4 O2 1_555 1_555
O1 Zn2A_2 1_555 1_555
O2 Zn4A 1_555 1_555
O3 Zn1 1_555 1_555
O4 Zn2 1_555 1_555
O5 Zn3 1_555 1_555
O6 Zn4 1_555 1_555
O7 Zn4 1_555 1_555
O8 C16 1_555 1_555
O9 C24 1_555 1_555
O10 C24 1_555 1_555
N1 C5 1_555 1_555
N2 C20 1_555 1_555
C1 O3 1_555 1_555
C2 C1 1_555 1_555
C3 C2 1_555 1_555
H1 C3 1_555 1_555
C4 C3 1_555 1_555
H2 C4 1_555 1_555
C5 C4 1_555 1_555
C6 C5 1_555 1_555
H3 C6 1_555 1_555
C7 C2 1_555 1_555
H4 C7 1_555 1_555
C8 N1 1_555 1_555
H5 C8 1_555 1_555
H6 C8 1_555 1_555
H7 C8 1_555 1_555
C9 O5 1_555 1_555
C10 C9 1_555 1_555
C11 C10 1_555 1_555
H8 C11 1_555 1_555
C12 C11 1_555 1_555
H9 C12 1_555 1_555
C13 N1 1_555 1_555
C14 C13 1_555 1_555
H10 C14 1_555 1_555
C15 C10 1_555 1_555
H11 C15 1_555 1_555
C16 O7 1_555 1_555
C17 C16 1_555 1_555
C18 C17 1_555 1_555
H12 C18 1_555 1_555
C19 C18 1_555 1_555
H13 C19 1_555 1_555
C20 C19 1_555 1_555
C21 C20 1_555 1_555
H14 C21 1_555 1_555
C22 C17 1_555 1_555
H15 C22 1_555 1_555
C23 N2 1_555 1_555
H16 C23 1_555 1_555
H17 C23 1_555 1_555
H18 C23 1_555 1_555
C24 C25 1_555 1_555
C25 C26 1_555 1_555
C26 H19 1_555 1_555
C27 C26 1_555 1_555
H20 C27 1_555 1_555
C28 N2 1_555 1_555
C29 C28 1_555 1_555
H21 C29 1_555 1_555
C30 C25 1_555 1_555
H22 C30 1_555 1_555
Zn2A O4A 1_555 1_555
Zn4A O6A 1_555 1_555
O3A C1A 1_555 1_555
O4A C1A 1_555 1_555
O5A Zn3 1_555 1_555
O6A C9A 1_555 1_555
O7A Zn4A 1_555 1_555
O8A Zn4 1_555 1_555
O9A C24A 1_555 1_555
O10A C24A 1_555 1_555
N1A C5A 1_555 1_555
N2A C20A 1_555 1_555
C1A C2A 1_555 1_555
C2A C3A 1_555 1_555
C3A H1A 1_555 1_555
C4A C3A 1_555 1_555
H2A C4A 1_555 1_555
C5A C4A 1_555 1_555
C6A C5A 1_555 1_555
H3A C6A 1_555 1_555
C7A C2A 1_555 1_555
H4A C7A 1_555 1_555
C8A N1A 1_555 1_555
H5A C8A 1_555 1_555
H6A C8A 1_555 1_555
H7A C8A 1_555 1_555
C9A O5A 1_555 1_555
C10A C9A 1_555 1_555
C11A C10A 1_555 1_555
H8A C11A 1_555 1_555
C12A C11A 1_555 1_555
H9A C12A 1_555 1_555
C13A N1A 1_555 1_555
C14A C13A 1_555 1_555
H10A C14A 1_555 1_555
C15A C10A 1_555 1_555
H11A C15A 1_555 1_555
C16A O7A 1_555 1_555
C17A C16A 1_555 1_555
C18A C17A 1_555 1_555
H12A C18A 1_555 1_555
C19A C18A 1_555 1_555
H13A C19A 1_555 1_555
C20A C19A 1_555 1_555
C21A C20A 1_555 1_555
H14A C21A 1_555 1_555
C22A C17A 1_555 1_555
H15A C22A 1_555 1_555
C23A N2A 1_555 1_555
H16A C23A 1_555 1_555
H17A C23A 1_555 1_555
H18A C23A 1_555 1_555
C24A C25A 1_555 1_555
C25A C26A 1_555 1_555
C26A H19A 1_555 1_555
C27A C26A 1_555 1_555
H20A C27A 1_555 1_555
C28A N2A 1_555 1_555
C29A C28A 1_555 1_555
H21A C29A 1_555 1_555
C30A C25A 1_555 1_555
H22A C30A 1_555 1_555
Zn2B O4B 1_555 1_555
Zn4B O2 1_555 1_555
O3B C1B 1_555 1_555
O4B C1B 1_555 1_555
O5B Zn3 1_555 1_555
O6B Zn4B 1_555 1_555
O7B Zn4B 1_555 1_555
O8B Zn4A 1_555 1_555
O9B C24B 1_555 1_555
O10B C24B 1_555 1_555
N1B C5B 1_555 1_555
N2B C20B 1_555 1_555
C1B C2B 1_555 1_555
C2B C3B 1_555 1_555
C3B H1B 1_555 1_555
C4B C3B 1_555 1_555
H2B C4B 1_555 1_555
C5B C4B 1_555 1_555
C6B C5B 1_555 1_555
H3B C6B 1_555 1_555
C7B C2B 1_555 1_555
H4B C7B 1_555 1_555
C8B N1B 1_555 1_555
H5B C8B 1_555 1_555
H6B C8B 1_555 1_555
H7B C8B 1_555 1_555
C9B O5B 1_555 1_555
C10B C9B 1_555 1_555
C11B C10B 1_555 1_555
H8B C11B 1_555 1_555
C12B C11B 1_555 1_555
H9B C12B 1_555 1_555
C13B N1B 1_555 1_555
C14B C13B 1_555 1_555
H10B C14B 1_555 1_555
C15B C10B 1_555 1_555
H11B C15B 1_555 1_555
C16B O7B 1_555 1_555
C17B C16B 1_555 1_555
C18B C17B 1_555 1_555
H12B C18B 1_555 1_555
C19B C18B 1_555 1_555
H13B C19B 1_555 1_555
C20B C19B 1_555 1_555
C21B C20B 1_555 1_555
H14B C21B 1_555 1_555
C22B C17B 1_555 1_555
H15B C22B 1_555 1_555
C23B N2B 1_555 1_555
H16B C23B 1_555 1_555
H17B C23B 1_555 1_555
H18B C23B 1_555 1_555
C24B C25B 1_555 1_555
C25B C26B 1_555 1_555
C26B H19B 1_555 1_555
C27B C26B 1_555 1_555
H20B C27B 1_555 1_555
C28B N2B 1_555 1_555
C29B C28B 1_555 1_555
H21B C29B 1_555 1_555
C30B C25B 1_555 1_555
H22B C30B 1_555 1_555
Zn1_2 O3A 1_555 1_555
Zn1_3 O3B 1_555 1_555
Zn2B_2 O1 1_555 1_555
Zn2L O9A 1_555 1_555
Zn2L_2 O10 1_555 1_555
Zn2M O9B 1_555 1_555
Zn2M_2 O10A 1_555 1_555
Zn2N O10B 1_555 1_555
Zn2N_2 O9 1_555 1_555
O1_2 Zn2A 1_555 1_555
O1_3 Zn2B 1_555 1_555
O3A_2 Zn1 1_555 1_555
O3B_2 Zn1 1_555 1_555
O9F Zn2B 1_555 1_555
O9G Zn2 1_555 1_555
O9H Zn2A 1_555 1_555
O10F Zn2 1_555 1_555
O10G Zn2A 1_555 1_555
O10H Zn2B 1_555 1_555
O4 C1 1_555 1_555
O6 C9 1_555 1_555
O8 Zn4B 1_555 1_555
C6 C7 1_555 1_555
C12 C13 1_555 1_555
C14 C15 1_555 1_555
C21 C22 1_555 1_555
C27 C28 1_555 1_555
C29 C30 1_555 1_555
O8A C16A 1_555 1_555
C6A C7A 1_555 1_555
C12A C13A 1_555 1_555
C14A C15A 1_555 1_555
C21A C22A 1_555 1_555
C27A C28A 1_555 1_555
C29A C30A 1_555 1_555
O6B C9B 1_555 1_555
O8B C16B 1_555 1_555
C6B C7B 1_555 1_555
C12B C13B 1_555 1_555
C14B C15B 1_555 1_555
C21B C22B 1_555 1_555
C27B C28B 1_555 1_555
C29B C30B 1_555 1_555
Zn1_2 O1_2 1_555 1_555
Zn1_3 O1_3 1_555 1_555

#END
