
#######################################################################
#
#                 Cambridge Crystallographic Data Centre
#                                CCDC 
#
#######################################################################
#
# If this CIF has been generated from an entry in the Cambridge 
# Structural Database, then it will include bibliographic, chemical, 
# crystal, experimental, refinement or atomic coordinate data resulting 
# from the CCDC's data processing and validation procedures.
#
#######################################################################

data_JUKNUA
_symmetry_cell_setting           monoclinic
_symmetry_space_group_name_H-M   'C 2/c'
_symmetry_Int_Tables_number      15
_space_group_name_Hall           '-C 2yn'
loop_
_symmetry_equiv_pos_site_id
_symmetry_equiv_pos_as_xyz
1 x,y,z
2 -x,y,1/2-z
3 1/2+x,1/2+y,z
4 1/2-x,1/2+y,1/2-z
5 -x,-y,-z
6 x,-y,1/2+z
7 1/2-x,1/2-y,-z
8 1/2+x,1/2-y,1/2+z
_cell_length_a                   29.3948(19)
_cell_length_b                   21.2938(14)
_cell_length_c                   28.6180(19)
_cell_angle_alpha                90
_cell_angle_beta                 110.7220(10)
_cell_angle_gamma                90
_cell_volume                     16754
loop_
_atom_site_label
_atom_site_type_symbol
_atom_site_fract_x
_atom_site_fract_y
_atom_site_fract_z
Na1 Na 0.5248(6) 1.0404(7) 0.2097(6)
O66 O 0.7416(7) 1.1839(9) 0.5473(7)
O67 O 0.7997(11) 1.1740(16) 0.2685(13)
O68 O 0.7662(9) 0.8567(12) 0.2277(9)
O69 O 0.4768(7) 0.5468(10) 0.2869(8)
O70 O 0.7153(9) 1.2451(12) 0.2175(10)
O71 O 0.6624(15) 0.666(2) 0.3722(17)
O72 O 0.7628(8) 0.9833(11) 0.2585(9)
O73 O 0.6162(10) 0.7808(14) 0.1233(11)
W1 W 0.40681(2) 1.31118(3) 0.23972(2)
O1 O 0.4144(3) 1.2512(4) 0.2903(3)
O2 O 0.3563(3) 1.2702(4) 0.1946(3)
O3 O 0.3767(3) 1.3716(5) 0.2568(4)
O4 O 0.4263(3) 1.3574(4) 0.1923(4)
O5 O 0.4748(3) 1.3396(5) 0.2910(4)
O6 O 0.4593(3) 1.2485(4) 0.2174(3)
W2 W 0.45045(2) 1.19145(3) 0.33949(2)
W3 W 0.30673(2) 1.20308(3) 0.15929(2)
W4 W 0.46812(2) 1.31901(3) 0.16201(2)
P1 P 0.5000 1.2053(2) 0.2500
O7 O 0.4282(4) 1.2107(4) 0.3852(4)
O8 O 0.5024(3) 1.2518(4) 0.3592(3)
O9 O 0.4919(3) 1.1249(4) 0.3743(3)
O10 O 0.4810(3) 1.1648(4) 0.2828(3)
O11 O 0.4020(3) 1.1296(4) 0.3062(4)
O12 O 0.3124(3) 1.2356(4) 0.0993(3)
O13 O 0.2773(3) 1.1305(4) 0.1305(3)
O14 O 0.3295(3) 1.1651(4) 0.2229(3)
O15 O 0.2581(4) 1.2453(5) 0.1597(4)
O16 O 0.3750(3) 1.1597(4) 0.1491(3)
O17 O 0.4627(3) 1.3751(5) 0.1163(4)
O18 O 0.4055(3) 1.2734(4) 0.1182(4)
W5 W 0.546786(19) 1.08320(3) 0.41727(2)
W6 W 0.35004(2) 1.08813(3) 0.26033(2)
W7 W 0.367328(19) 1.21316(3) 0.08089(2)
W8 W 0.277201(19) 1.03199(3) 0.13231(2)
P2 P 0.39160(12) 1.09090(16) 0.16287(13)
O19 O 0.5826(3) 1.1622(4) 0.4227(3)
O20 O 0.5180(3) 1.0055(4) 0.3995(4)
O21 O 0.5631(3) 1.0765(4) 0.3498(3)
O22 O 0.6087(3) 1.0463(4) 0.4490(3)
O23 O 0.5332(3) 1.0987(4) 0.4715(3)
O24 O 0.3998(3) 1.0799(4) 0.2174(3)
O25 O 0.3056(3) 1.0460(4) 0.2002(4)
O26 O 0.3099(3) 1.0913(5) 0.2918(4)
O27 O 0.3782(3) 1.0088(4) 0.2838(4)
O28 O 0.3485(3) 1.2496(4) 0.0222(4)
O29 O 0.3261(3) 1.1338(4) 0.0491(3)
O30 O 0.2151(3) 1.0322(5) 0.1236(4)
O31 O 0.2678(3) 1.0401(4) 0.0619(3)
O32 O 0.2873(3) 0.9494(4) 0.1355(4)
O33 O 0.3491(3) 1.0485(4) 0.1284(4)
W9 W 0.50980(2) 0.91522(2) 0.38786(2)
W10 W 0.67676(2) 1.04902(3) 0.45798(2)
Cu1 Cu 0.48153(6) 1.14688(8) 0.48804(6)
Cu2 Cu 0.27802(7) 1.08501(9) 0.36189(8)
W11 W 0.38647(2) 0.92109(3) 0.28817(2)
Cu3 Cu 0.34742(6) 1.31636(9) -0.02662(7)
Cu4 Cu 0.14840(6) 1.06004(9) 0.10103(7)
W12 W 0.314453(19) 0.86181(3) 0.16503(2)
O34 O 0.5777(3) 0.9056(4) 0.4220(3)
O35 O 0.5313(3) 0.9390(4) 0.3251(4)
O36 O 0.4927(3) 0.9015(4) 0.4395(4)
O37 O 0.5081(3) 0.8320(4) 0.3662(4)
O38 O 0.4475(3) 0.9331(5) 0.3415(4)
O39 O 0.6685(3) 0.9561(4) 0.4433(4)
O40 O 0.7034(4) 1.0412(5) 0.5211(4)
O41 O 0.2755(5) 1.1772(6) 0.3614(5)
O42 O 0.2094(4) 1.0894(6) 0.3137(5)
O43 O 0.2531(6) 1.0865(10) 0.4342(6)
O44 O 0.2771(4) 0.9965(5) 0.3557(5)
N1 N 0.3488(4) 1.0774(6) 0.4073(4)
O45 O 0.4309(3) 0.9395(4) 0.2421(4)
O46 O 0.3357(3) 0.9081(4) 0.2256(3)
O47 O 0.3516(3) 0.9067(5) 0.3241(4)
O48 O 0.4062(3) 0.8353(4) 0.2830(3)
O49 O 0.1535(8) 1.0752(10) 0.1833(7)
O50 O 0.1675(4) 1.1442(5) 0.0905(4)
N2 N 0.0785(4) 1.0767(5) 0.0666(5)
N3 N 0.1227(5) 0.9719(6) 0.1053(5)
O51 O 0.3109(3) 0.8451(5) 0.0983(3)
O52 O 0.2590(4) 0.8345(5) 0.1631(4)
O53 O 0.3547(3) 0.7976(4) 0.1941(4)
O54 O 0.3811(3) 0.9063(4) 0.1544(3)
W13 W 0.641014(19) 0.87889(3) 0.42587(2)
P3 P 0.56700(12) 0.90683(16) 0.30451(13)
W14 W 0.54448(2) 0.76602(3) 0.34940(2)
Cu5 Cu 0.32973(7) 0.94330(9) 0.38938(8)
H1 H 0.2486 0.9779 0.3345
N4 N 0.3712(4) 1.0199(6) 0.4095(5)
W15 W 0.41861(2) 0.76596(3) 0.24844(2)
H2 H 0.1852 1.1673 0.1186
O55 O 0.5997(3) 0.8009(4) 0.3906(3)
O56 O 0.6640(3) 0.8431(5) 0.4832(4)
O57 O 0.5523(3) 0.8375(4) 0.2921(4)
N5 N 0.5714(4) 0.9124(5) 0.5497(5)
N6 N 0.5757(4) 0.8026(5) 0.5134(4)
N7 N 0.4743(4) 0.7788(5) 0.4887(5)
O58 O 0.5720(3) 0.7230(4) 0.3070(3)
O59 O 0.5370(3) 0.7043(4) 0.3856(4)
O60 O 0.4795(3) 0.7534(4) 0.2917(3)
O61 O 0.3836(5) 0.8863(6) 0.4291(5)
O62 O 0.2866(5) 0.8701(6) 0.3781(5)
O63 O 0.3884(4) 0.7052(5) 0.2650(4)
O64 O 0.1220(5) 1.1069(6) -0.0302(5)
O65 O 0.2189(4) 1.1642(7) 0.0282(5)
N8 N 0.0884(4) 1.2141(6) 0.0254(5)
C1 C 0.5821(6) 0.9721(8) 0.5649(7)
C2 C 0.6176(5) 0.8848(7) 0.5676(6)
N9 N 0.5845(4) 0.7443(5) 0.5012(4)
C3 C 0.6187(5) 0.8204(6) 0.5497(5)
N10 N 0.4847(4) 0.7239(5) 0.4706(5)
C4 C 0.4303(5) 0.7722(6) 0.4904(6)
Cu6 Cu 0.54385(6) 0.67689(8) 0.46778(7)
H3 H 0.5592 1.0041 0.5581
C5 C 0.6297(6) 0.7301(7) 0.5289(5)
N11 N 0.6530(4) 0.7770(5) 0.5602(5)
C6 C 0.4463(5) 0.6874(7) 0.4625(6)
H4 H 0.4140 0.8033 0.5011
N12 N 0.6095(4) 0.6329(6) 0.4912(5)
N13 N 0.4974(4) 0.6066(5) 0.4510(5)
C7 C 0.6469(5) 0.6681(7) 0.5201(6)
C8 C 0.4529(5) 0.6230(7) 0.4481(5)
C9 C 0.6188(6) 0.5740(8) 0.4806(7)
N14 N 0.4945(5) 0.5451(6) 0.4377(6)
C10 C 0.6945(5) 0.6484(7) 0.5374(6)
C11 C 0.6661(6) 0.5503(8) 0.4995(8)
H5 H 0.5936 0.5489 0.4605
H6 H 0.5179 0.5219 0.4362
C12 C 0.4498(5) 0.5280(8) 0.4275(7)
H7 H 0.7197 0.6750 0.5556
C13 C 0.7033(6) 0.5881(8) 0.5267(7)
H8 H 0.6721 0.5087 0.4935
C14 C 0.4262(5) 0.4685(7) 0.4108(6)
H9 H 0.7350 0.5728 0.5380
C15 C 0.4480(6) 0.4129(8) 0.4073(8)
C16 C 0.3511(6) 0.4216(7) 0.3754(7)
H10 H 0.4817 0.4116 0.4165
C17 C 0.4228(7) 0.3610(8) 0.3913(7)
C18 C 0.3733(7) 0.3654(8) 0.3746(7)
H11 H 0.3174 0.4244 0.3623
H12 H 0.4382 0.3228 0.3915
H13 H 0.3545 0.3298 0.3625
W4A W 0.53188(2) 1.31901(3) 0.33799(2)
O5A O 0.5252(3) 1.3396(5) 0.2090(4)
O8A O 0.4976(3) 1.2518(4) 0.1408(3)
O17A O 0.5373(3) 1.3751(5) 0.3837(4)
O18A O 0.5945(3) 1.2734(4) 0.3818(4)
O6A O 0.5407(3) 1.2485(4) 0.2826(3)
O4A O 0.5737(3) 1.3574(4) 0.3077(4)
O10A O 0.5190(3) 1.1648(4) 0.2172(3)
W1A W 0.59319(2) 1.31118(3) 0.26028(2)
W2A W 0.54955(2) 1.19145(3) 0.16051(2)
W7A W 0.632672(19) 1.21316(3) 0.41911(2)
O19A O 0.4174(3) 1.1622(4) 0.0773(3)
O21A O 0.4369(3) 1.0765(4) 0.1502(3)
O1A O 0.5856(3) 1.2512(4) 0.2097(3)
O2A O 0.6437(3) 1.2702(4) 0.3054(3)
O3A O 0.6233(3) 1.3716(5) 0.2432(4)
O11A O 0.5980(3) 1.1296(4) 0.1938(4)
O7A O 0.5718(4) 1.2107(4) 0.1148(4)
O9A O 0.5081(3) 1.1249(4) 0.1257(3)
O28A O 0.6515(3) 1.2496(4) 0.4778(4)
O12A O 0.6876(3) 1.2356(4) 0.4007(3)
O29A O 0.6739(3) 1.1338(4) 0.4509(3)
O16A O 0.6250(3) 1.1597(4) 0.3509(3)
P2A P 0.60840(12) 1.09090(16) 0.33713(13)
W5A W 0.453214(19) 1.08320(3) 0.08273(2)
W10A W 0.32324(2) 1.04902(3) 0.04202(2)
W3A W 0.69327(2) 1.20308(3) 0.34071(2)
W6A W 0.64996(2) 1.08813(3) 0.23967(2)
Cu3A Cu 0.65258(6) 1.31636(9) 0.52662(7)
O24A O 0.6002(3) 1.0799(4) 0.2826(3)
O33A O 0.6509(3) 1.0485(4) 0.3716(4)
O31A O 0.7322(3) 1.0401(4) 0.4381(3)
O20A O 0.4820(3) 1.0055(4) 0.1005(4)
O22A O 0.3913(3) 1.0463(4) 0.0510(3)
O23A O 0.4668(3) 1.0987(4) 0.0285(3)
O39A O 0.3315(3) 0.9561(4) 0.0567(4)
O40A O 0.2966(4) 1.0412(5) -0.0211(4)
O13A O 0.7227(3) 1.1305(4) 0.3695(3)
O14A O 0.6705(3) 1.1651(4) 0.2771(3)
O15A O 0.7419(4) 1.2453(5) 0.3403(4)
O25A O 0.6944(3) 1.0460(4) 0.2998(4)
O26A O 0.6901(3) 1.0913(5) 0.2082(4)
O27A O 0.6218(3) 1.0088(4) 0.2162(4)
Cu1D Cu 0.51847(6) 0.85312(8) 0.51196(6)
W8A W 0.722799(19) 1.03199(3) 0.36769(2)
P3A P 0.43300(12) 0.90683(16) 0.19549(13)
W9A W 0.49020(2) 0.91522(2) 0.11214(2)
Cu1A Cu 0.51847(6) 1.14688(8) 0.01196(6)
W13A W 0.358986(19) 0.87889(3) 0.07413(2)
Cu3F Cu 0.15258(6) 1.18364(9) 0.02662(7)
Cu2A Cu 0.72198(7) 1.08501(9) 0.13811(8)
W11A W 0.61353(2) 0.92109(3) 0.21183(2)
O51A O 0.6891(3) 0.8451(5) 0.4017(3)
O54A O 0.6189(3) 0.9063(4) 0.3456(3)
O45A O 0.5691(3) 0.9395(4) 0.2579(4)
O23D O 0.4668(3) 0.9013(4) 0.5285(3)
O30A O 0.7849(3) 1.0322(5) 0.3764(4)
O32A O 0.7127(3) 0.9494(4) 0.3645(4)
O35A O 0.4687(3) 0.9390(4) 0.1749(4)
O57A O 0.4477(3) 0.8375(4) 0.2079(4)
O58A O 0.4280(3) 0.7230(4) 0.1930(3)
O38A O 0.5525(3) 0.9331(5) 0.1585(4)
O34A O 0.4223(3) 0.9056(4) 0.0780(3)
O36A O 0.5073(3) 0.9015(4) 0.0605(4)
O37A O 0.4919(3) 0.8320(4) 0.1338(4)
O55A O 0.4003(3) 0.8009(4) 0.1094(3)
O56A O 0.3360(3) 0.8431(5) 0.0168(4)
O28F O 0.1515(3) 1.2504(4) -0.0222(4)
O41A O 0.7245(5) 1.1772(6) 0.1386(5)
O42A O 0.7906(4) 1.0894(6) 0.1863(5)
O43A O 0.7469(6) 1.0865(10) 0.0658(6)
O44A O 0.7229(4) 0.9965(5) 0.1443(5)
N1A N 0.6512(4) 1.0774(6) 0.0927(4)
O46A O 0.6643(3) 0.9081(4) 0.2744(3)
O47A O 0.6484(3) 0.9067(5) 0.1759(4)
O48A O 0.5938(3) 0.8353(4) 0.2170(3)
W12A W 0.685547(19) 0.86181(3) 0.33497(2)
W15A W 0.58139(2) 0.76596(3) 0.25156(2)
Cu4A Cu 0.85160(6) 1.06004(9) 0.39897(7)
W14A W 0.45552(2) 0.76602(3) 0.15060(2)
Cu1E Cu 0.48153(6) 0.85312(8) -0.01196(6)
Cu5A Cu 0.67027(7) 0.94330(9) 0.11062(8)
H1A H 0.7514 0.9779 0.1655
N4A N 0.6288(4) 1.0199(6) 0.0905(5)
O52A O 0.7410(4) 0.8345(5) 0.3369(4)
O53A O 0.6453(3) 0.7976(4) 0.3059(4)
O60A O 0.5205(3) 0.7534(4) 0.2083(3)
O63A O 0.6116(4) 0.7052(5) 0.2350(4)
N4D N 0.6288(4) 0.9801(6) 0.5905(5)
N1D N 0.6512(4) 0.9226(6) 0.5927(4)
N8C N 0.4116(4) 0.7141(6) 0.4746(5)
O49A O 0.8465(8) 1.0752(10) 0.3167(7)
O50A O 0.8325(4) 1.1442(5) 0.4095(4)
N2A N 0.9215(4) 1.0767(5) 0.4334(5)
N3A N 0.8773(5) 0.9719(6) 0.3947(5)
O59A O 0.4630(3) 0.7043(4) 0.1144(4)
N5A N 0.4286(4) 0.9124(5) -0.0497(5)
N6A N 0.4243(4) 0.8026(5) -0.0134(4)
N7A N 0.5257(4) 0.7788(5) 0.0113(5)
O23E O 0.5332(3) 0.9013(4) -0.0285(3)
O61A O 0.6164(5) 0.8863(6) 0.0709(5)
O62A O 0.7134(5) 0.8701(6) 0.1219(5)
Cu5D Cu 0.67027(7) 1.05670(9) 0.61062(8)
Cu2D Cu 0.72198(7) 0.91499(9) 0.63811(8)
Cu3E Cu 0.34742(6) 0.68364(9) 0.47338(7)
Cu3G Cu 0.84742(6) 1.18364(9) 0.47338(7)
H2A H 0.8148 1.1673 0.3814
Cu6A Cu 0.45615(6) 0.67689(8) 0.03222(7)
C1A C 0.4179(6) 0.9721(8) -0.0649(7)
C2A C 0.3824(5) 0.8848(7) -0.0676(6)
N9A N 0.4155(4) 0.7443(5) -0.0012(4)
C3A C 0.3813(5) 0.8204(6) -0.0497(5)
N10A N 0.5153(4) 0.7239(5) 0.0294(5)
C4A C 0.5697(5) 0.7722(6) 0.0096(6)
N2C N 0.4215(4) 0.5767(5) 0.4334(5)
O64A O 0.8780(5) 1.1069(6) 0.5302(5)
O65A O 0.7811(4) 1.1642(7) 0.4718(5)
O28G O 0.8485(3) 1.2504(4) 0.5222(4)
N8A N 0.9116(4) 1.2141(6) 0.4746(5)
N12A N 0.3905(4) 0.6329(6) 0.0088(5)
N13A N 0.5026(4) 0.6066(5) 0.0490(5)
N4E N 0.3712(4) 0.9801(6) -0.0905(5)
H3A H 0.4408 1.0041 -0.0581
N1E N 0.3488(4) 0.9226(6) -0.0927(4)
C5A C 0.3703(6) 0.7301(7) -0.0289(5)
N11A N 0.3470(4) 0.7770(5) -0.0602(5)
C6A C 0.5537(5) 0.6874(7) 0.0375(6)
N8B N 0.5884(4) 0.7141(6) 0.0254(5)
H4A H 0.5860 0.8033 -0.0011
Cu4C Cu 0.35160(6) 0.56004(9) 0.39897(7)
C7A C 0.3531(5) 0.6681(7) -0.0201(6)
C9A C 0.3812(6) 0.5740(8) 0.0194(7)
N14A N 0.5055(5) 0.5451(6) 0.0623(6)
C8A C 0.5471(5) 0.6230(7) 0.0519(5)
Cu5E Cu 0.32973(7) 1.05670(9) -0.11062(8)
Cu2E Cu 0.27802(7) 0.91499(9) -0.13811(8)
Cu3D Cu 0.65258(6) 0.68364(9) 0.02662(7)
N3C N 0.3773(5) 0.4719(6) 0.3947(5)
C10A C 0.3055(5) 0.6484(7) -0.0374(6)
C11A C 0.3339(6) 0.5503(8) 0.0005(8)
H5A H 0.4064 0.5489 0.0395
H6A H 0.4821 0.5219 0.0638
C12A C 0.5502(5) 0.5280(8) 0.0725(7)
N2B N 0.5785(4) 0.5767(5) 0.0666(5)
H7A H 0.2803 0.6750 -0.0556
C13A C 0.2967(6) 0.5881(8) -0.0267(7)
H8A H 0.3279 0.5087 0.0065
C14A C 0.5738(5) 0.4685(7) 0.0892(6)
Cu4B Cu 0.64840(6) 0.56004(9) 0.10103(7)
H9A H 0.2650 0.5728 -0.0380
N3B N 0.6227(5) 0.4719(6) 0.1053(5)
C15A C 0.5520(6) 0.4129(8) 0.0927(8)
C16A C 0.6489(6) 0.4216(7) 0.1246(7)
H10A H 0.5183 0.4116 0.0835
C17A C 0.5772(7) 0.3610(8) 0.1087(7)
C18A C 0.6267(7) 0.3654(8) 0.1254(7)
H11A H 0.6826 0.4244 0.1377
H12A H 0.5618 0.3228 0.1085
H13A H 0.6455 0.3298 0.1375
O74? O 0.5144(8) 1.0397(11) 0.2286(10)
loop_
_geom_bond_atom_site_label_1
_geom_bond_atom_site_label_2
_geom_bond_site_symmetry_1
_geom_bond_site_symmetry_2
W1 O1 1_555 1_555
O1 W2 1_555 1_555
O2 W1 1_555 1_555
O3 W1 1_555 1_555
O4 W1 1_555 1_555
O5 W1 1_555 1_555
O6 W1 1_555 1_555
W2 O7 1_555 1_555
W3 O2 1_555 1_555
W4 O4 1_555 1_555
P1 O6 1_555 1_555
O8 W2 1_555 1_555
O9 W2 1_555 1_555
O10 W2 1_555 1_555
O11 W2 1_555 1_555
O12 W3 1_555 1_555
O13 W3 1_555 1_555
O14 W3 1_555 1_555
O15 W3 1_555 1_555
O16 W3 1_555 1_555
O17 W4 1_555 1_555
O18 W4 1_555 1_555
W5 O9 1_555 1_555
W6 O11 1_555 1_555
W7 O12 1_555 1_555
W8 O13 1_555 1_555
P2 O16 1_555 1_555
O19 W5 1_555 1_555
O20 W5 1_555 1_555
O21 W5 1_555 1_555
O22 W5 1_555 1_555
O23 W5 1_555 1_555
O24 W6 1_555 1_555
O25 W6 1_555 1_555
O26 W6 1_555 1_555
O27 W6 1_555 1_555
O28 W7 1_555 1_555
O29 W7 1_555 1_555
O30 W8 1_555 1_555
O31 W8 1_555 1_555
O32 W8 1_555 1_555
O33 W8 1_555 1_555
W9 O20 1_555 1_555
W10 O22 1_555 1_555
Cu1 O23 1_555 1_555
Cu2 O26 1_555 1_555
W11 O27 1_555 1_555
Cu3 O28 1_555 1_555
Cu4 O30 1_555 1_555
W12 O32 1_555 1_555
O34 W9 1_555 1_555
O35 W9 1_555 1_555
O36 W9 1_555 1_555
O37 W9 1_555 1_555
O38 W9 1_555 1_555
O39 W10 1_555 1_555
O40 W10 1_555 1_555
O41 Cu2 1_555 1_555
O42 Cu2 1_555 1_555
O43 Cu2 1_555 1_555
O44 Cu2 1_555 1_555
N1 Cu2 1_555 1_555
O45 W11 1_555 1_555
O46 W11 1_555 1_555
O47 W11 1_555 1_555
O48 W11 1_555 1_555
O49 Cu4 1_555 1_555
O50 Cu4 1_555 1_555
N2 Cu4 1_555 1_555
N3 Cu4 1_555 1_555
O51 W12 1_555 1_555
O52 W12 1_555 1_555
O53 W12 1_555 1_555
O54 W12 1_555 1_555
W13 O34 1_555 1_555
P3 O35 1_555 1_555
W14 O37 1_555 1_555
Cu5 O44 1_555 1_555
H1 O44 1_555 1_555
N4 N1 1_555 1_555
W15 O48 1_555 1_555
H2 O50 1_555 1_555
O55 W13 1_555 1_555
O56 W13 1_555 1_555
O57 P3 1_555 1_555
N5 C1 1_555 1_555
N6 N9 1_555 1_555
N7 N10 1_555 1_555
O58 W14 1_555 1_555
O59 W14 1_555 1_555
O60 W14 1_555 1_555
O61 Cu5 1_555 1_555
O62 Cu5 1_555 1_555
O63 W15 1_555 1_555
O64 Cu3F 1_555 1_555
O65 Cu3F 1_555 1_555
N8 Cu3F 1_555 1_555
C1 H3 1_555 1_555
C2 N5 1_555 1_555
N9 Cu6 1_555 1_555
C3 N6 1_555 1_555
N10 Cu6 1_555 1_555
C4 N7 1_555 1_555
Cu6 O59 1_555 1_555
C5 N9 1_555 1_555
N11 C3 1_555 1_555
C6 N10 1_555 1_555
H4 C4 1_555 1_555
N12 Cu6 1_555 1_555
N13 Cu6 1_555 1_555
C7 C5 1_555 1_555
C8 C6 1_555 1_555
C9 N12 1_555 1_555
N14 N13 1_555 1_555
C10 C7 1_555 1_555
C11 C9 1_555 1_555
H5 C9 1_555 1_555
H6 N14 1_555 1_555
C12 N14 1_555 1_555
H7 C10 1_555 1_555
C13 C10 1_555 1_555
H8 C11 1_555 1_555
C14 C12 1_555 1_555
H9 C13 1_555 1_555
C15 C14 1_555 1_555
C16 C18 1_555 1_555
H10 C15 1_555 1_555
C17 C15 1_555 1_555
C18 C17 1_555 1_555
H11 C16 1_555 1_555
H12 C17 1_555 1_555
H13 C18 1_555 1_555
W4A O5 1_555 1_555
O5A W4 1_555 1_555
O8A W4 1_555 1_555
O17A W4A 1_555 1_555
O18A W4A 1_555 1_555
O6A P1 1_555 1_555
O4A W4A 1_555 1_555
O10A P1 1_555 1_555
W1A O5A 1_555 1_555
W2A O8A 1_555 1_555
W7A O19 1_555 1_555
O19A W7 1_555 1_555
O21A P2 1_555 1_555
O1A W1A 1_555 1_555
O2A W1A 1_555 1_555
O3A W1A 1_555 1_555
O11A W2A 1_555 1_555
O7A W2A 1_555 1_555
O9A W2A 1_555 1_555
O28A W7A 1_555 1_555
O12A W7A 1_555 1_555
O29A W10 1_555 1_555
O16A W7A 1_555 1_555
P2A O21 1_555 1_555
W5A O19A 1_555 1_555
W10A O29 1_555 1_555
W3A O2A 1_555 1_555
W6A O11A 1_555 1_555
Cu3A O28A 1_555 1_555
O24A P2A 1_555 1_555
O33A W10 1_555 1_555
O31A W10 1_555 1_555
O20A W5A 1_555 1_555
O22A W5A 1_555 1_555
O23A W5A 1_555 1_555
O39A W10A 1_555 1_555
O40A W10A 1_555 1_555
O13A W3A 1_555 1_555
O14A W3A 1_555 1_555
O15A W3A 1_555 1_555
O25A W6A 1_555 1_555
O26A W6A 1_555 1_555
O27A W6A 1_555 1_555
Cu1D O36 1_555 1_555
W8A O33A 1_555 1_555
P3A O45 1_555 1_555
W9A O20A 1_555 1_555
Cu1A O23A 1_555 1_555
W13A O51 1_555 1_555
Cu3F O50 1_555 1_555
Cu2A O26A 1_555 1_555
W11A O27A 1_555 1_555
O51A W13 1_555 1_555
O54A W13 1_555 1_555
O45A P3 1_555 1_555
O23D Cu1D 1_555 1_555
O30A W8A 1_555 1_555
O32A W8A 1_555 1_555
O35A P3A 1_555 1_555
O57A W15 1_555 1_555
O58A W15 1_555 1_555
O38A W9A 1_555 1_555
O34A W9A 1_555 1_555
O36A W9A 1_555 1_555
O37A W9A 1_555 1_555
O55A W13A 1_555 1_555
O56A W13A 1_555 1_555
O28F Cu3F 1_555 1_555
O41A Cu2A 1_555 1_555
O42A Cu2A 1_555 1_555
O43A Cu2A 1_555 1_555
O44A Cu2A 1_555 1_555
N1A Cu2A 1_555 1_555
O46A W11A 1_555 1_555
O47A W11A 1_555 1_555
O48A W11A 1_555 1_555
W12A O51A 1_555 1_555
W15A O57 1_555 1_555
Cu4A O30A 1_555 1_555
W14A O57A 1_555 1_555
Cu1E O36A 1_555 1_555
Cu5A O44A 1_555 1_555
H1A O44A 1_555 1_555
N4A N1A 1_555 1_555
O52A W12A 1_555 1_555
O53A W12A 1_555 1_555
O60A W15A 1_555 1_555
O63A W15A 1_555 1_555
N4D C1 1_555 1_555
N1D C2 1_555 1_555
N8C C4 1_555 1_555
O49A Cu4A 1_555 1_555
O50A Cu4A 1_555 1_555
N2A Cu4A 1_555 1_555
N3A Cu4A 1_555 1_555
O59A W14A 1_555 1_555
N5A Cu1E 1_555 1_555
N6A Cu1E 1_555 1_555
N7A Cu1E 1_555 1_555
O23E Cu1E 1_555 1_555
O61A Cu5A 1_555 1_555
O62A Cu5A 1_555 1_555
Cu5D N4D 1_555 1_555
Cu2D N1D 1_555 1_555
Cu3E N8C 1_555 1_555
Cu3G O50A 1_555 1_555
H2A O50A 1_555 1_555
Cu6A O59A 1_555 1_555
C1A N5A 1_555 1_555
C2A N5A 1_555 1_555
N9A N6A 1_555 1_555
C3A N6A 1_555 1_555
N10A N7A 1_555 1_555
C4A N7A 1_555 1_555
N2C C8 1_555 1_555
O64A Cu3G 1_555 1_555
O65A Cu3G 1_555 1_555
O28G Cu3G 1_555 1_555
N8A Cu3G 1_555 1_555
N12A Cu6A 1_555 1_555
N13A Cu6A 1_555 1_555
N4E C1A 1_555 1_555
H3A C1A 1_555 1_555
N1E C2A 1_555 1_555
C5A N9A 1_555 1_555
N11A C3A 1_555 1_555
C6A N10A 1_555 1_555
N8B C4A 1_555 1_555
H4A C4A 1_555 1_555
Cu4C N2C 1_555 1_555
C7A N12A 1_555 1_555
C9A N12A 1_555 1_555
N14A N13A 1_555 1_555
C8A N13A 1_555 1_555
Cu5E N4E 1_555 1_555
Cu2E N1E 1_555 1_555
Cu3D N8B 1_555 1_555
N3C C14 1_555 1_555
C10A C7A 1_555 1_555
C11A C9A 1_555 1_555
H5A C9A 1_555 1_555
H6A N14A 1_555 1_555
C12A N14A 1_555 1_555
N2B C8A 1_555 1_555
H7A C10A 1_555 1_555
C13A C10A 1_555 1_555
H8A C11A 1_555 1_555
C14A C12A 1_555 1_555
Cu4B N2B 1_555 1_555
H9A C13A 1_555 1_555
N3B C14A 1_555 1_555
C15A C14A 1_555 1_555
C16A N3B 1_555 1_555
H10A C15A 1_555 1_555
C17A C15A 1_555 1_555
C18A C16A 1_555 1_555
H11A C16A 1_555 1_555
H12A C17A 1_555 1_555
H13A C18A 1_555 1_555
O6 W4 1_555 1_555
P1 O10 1_555 1_555
O8 W4A 1_555 1_555
O14 W6 1_555 1_555
O16 W7 1_555 1_555
O18 W7 1_555 1_555
W8 O25 1_555 1_555
P2 O24 1_555 1_555
P2 O33 1_555 1_555
O31 W10A 1_555 1_555
O33 W10A 1_555 1_555
W11 O38 1_555 1_555
W12 O46 1_555 1_555
O39 W13 1_555 1_555
O47 Cu5 1_555 1_555
O53 W15 1_555 1_555
O54 P3A 1_555 1_555
O54 W13A 1_555 1_555
P3 O54A 1_555 1_555
W14 O55 1_555 1_555
W14 O57 1_555 1_555
Cu5 N4 1_555 1_555
W15 O60 1_555 1_555
N5 Cu1D 1_555 1_555
N6 Cu1D 1_555 1_555
N7 Cu1D 1_555 1_555
O58 W15A 1_555 1_555
C2 C3 1_555 1_555
C5 N11 1_555 1_555
C6 N8C 1_555 1_555
N12 C7 1_555 1_555
N13 C8 1_555 1_555
C11 C13 1_555 1_555
C12 N2C 1_555 1_555
C16 N3C 1_555 1_555
W4A O6A 1_555 1_555
O18A W7A 1_555 1_555
O6A W1A 1_555 1_555
O4A W1A 1_555 1_555
O10A W2A 1_555 1_555
W2A O1A 1_555 1_555
W7A O29A 1_555 1_555
O21A W5A 1_555 1_555
O9A W5A 1_555 1_555
O12A W3A 1_555 1_555
O16A P2A 1_555 1_555
O16A W3A 1_555 1_555
P2A O33A 1_555 1_555
W10A O22A 1_555 1_555
W6A O24A 1_555 1_555
W6A O14A 1_555 1_555
O31A W8A 1_555 1_555
O39A W13A 1_555 1_555
O13A W8A 1_555 1_555
O25A W8A 1_555 1_555
P3A O57A 1_555 1_555
W9A O35A 1_555 1_555
W13A O34A 1_555 1_555
W11A O45A 1_555 1_555
W11A O38A 1_555 1_555
O54A W12A 1_555 1_555
O32A W12A 1_555 1_555
O58A W14A 1_555 1_555
O37A W14A 1_555 1_555
O55A W14A 1_555 1_555
O46A W12A 1_555 1_555
O47A Cu5A 1_555 1_555
O48A W15A 1_555 1_555
W15A O53A 1_555 1_555
W14A O60A 1_555 1_555
Cu5A N4A 1_555 1_555
N4D N1D 1_555 1_555
Cu6A N9A 1_555 1_555
Cu6A N10A 1_555 1_555
C2A C3A 1_555 1_555
N4E N1E 1_555 1_555
C5A N11A 1_555 1_555
C5A C7A 1_555 1_555
C6A N8B 1_555 1_555
C6A C8A 1_555 1_555
Cu4C N3C 1_555 1_555
C11A C13A 1_555 1_555
C12A N2B 1_555 1_555
Cu4B N3B 1_555 1_555
C17A C18A 1_555 1_555

#END
