
#######################################################################
#
#                 Cambridge Crystallographic Data Centre
#                                CCDC 
#
#######################################################################
#
# If this CIF has been generated from an entry in the Cambridge 
# Structural Database, then it will include bibliographic, chemical, 
# crystal, experimental, refinement or atomic coordinate data resulting 
# from the CCDC's data processing and validation procedures.
#
#######################################################################

data_JUMDAY
_symmetry_cell_setting           orthorhombic
_symmetry_space_group_name_H-M   'P 21 21 21'
_symmetry_Int_Tables_number      19
_space_group_name_Hall           'P 2ac 2ab'
loop_
_symmetry_equiv_pos_site_id
_symmetry_equiv_pos_as_xyz
1 x,y,z
2 1/2-x,-y,1/2+z
3 -x,1/2+y,1/2-z
4 1/2+x,1/2-y,-z
_cell_length_a                   6.7999(4)
_cell_length_b                   12.7002(8)
_cell_length_c                   16.6802(10)
_cell_angle_alpha                90
_cell_angle_beta                 90
_cell_angle_gamma                90
_cell_volume                     1440.5
loop_
_atom_site_label
_atom_site_type_symbol
_atom_site_fract_x
_atom_site_fract_y
_atom_site_fract_z
C1 C 0.7737(4) 0.9028(2) 0.91146(17)
C2 C 0.7594(5) 0.9807(2) 0.84470(18)
C3 C 0.5771(5) 0.9999(3) 0.8093(2)
H1 H 0.4634 0.9713 0.8313
C4 C 0.5664(5) 1.0617(3) 0.7414(2)
H2 H 0.4452 1.0744 0.7174
C5 C 0.9283(5) 1.0273(3) 0.8140(2)
H3 H 1.0490 1.0169 0.8390
C6 C 0.9157(5) 1.0894(3) 0.7457(2)
H4 H 1.0283 1.1207 0.7249
C7 C 0.7360(5) 1.1050(3) 0.70874(18)
C8 C 0.7254(4) 1.1628(2) 0.63098(17)
O1 O 1.2825(3) 0.81331(16) 1.01264(12)
O2 O 0.5577(3) 1.17480(18) 0.60049(12)
O3 O 0.9420(3) 0.87963(18) 0.93690(13)
O4 O 0.8852(3) 1.19260(19) 0.60073(13)
O5 O 0.6141(3) 0.86356(18) 0.93584(14)
V1 V 1.06350(6) 0.76592(3) 1.00184(3)
O1C O 0.7825(3) 0.68669(16) 0.98736(12)
O2A O 0.9423(3) 0.82520(18) 1.10049(12)
O4B O 1.1148(3) 0.69260(19) 0.89927(13)
O5C O 1.1141(3) 0.63644(18) 1.06416(14)
V1A V 0.43650(6) 1.23408(3) 0.50184(3)
V1B V 0.93650(6) 1.26592(3) 0.49816(3)
V1C V 0.56350(6) 0.73408(3) 0.99816(3)
V1C_2 V 1.56350(6) 0.73408(3) 0.99816(3)
C9 C 0.0340(11) 0.8518(5) 0.6297(5)
H5 H 0.0226 0.7770 0.6189
H6 H -0.0814 0.8726 0.6600
C10 C 0.0322(10) 0.9089(6) 0.5519(5)
H7 H 0.0451 0.9838 0.5620
H8 H -0.0933 0.8974 0.5258
C11 C 0.3835(11) 0.8274(6) 0.6315(4)
H9 H 0.5027 0.8317 0.6632
H10 H 0.3597 0.7535 0.6203
C12 C 0.4184(10) 0.8832(6) 0.5532(5)
H11 H 0.5367 0.8555 0.5284
H12 H 0.4394 0.9576 0.5635
O6 O 0.2132(6) 0.8692(3) 0.6816(2)
S1 S 0.2220(3) 0.86859(16) 0.48729(13)
loop_
_geom_bond_atom_site_label_1
_geom_bond_atom_site_label_2
_geom_bond_site_symmetry_1
_geom_bond_site_symmetry_2
C1 C2 1_555 1_555
C2 C3 1_555 1_555
C3 H1 1_555 1_555
C4 C3 1_555 1_555
H2 C4 1_555 1_555
C5 C2 1_555 1_555
H3 C5 1_555 1_555
C6 C5 1_555 1_555
H4 C6 1_555 1_555
C7 C4 1_555 1_555
C8 C7 1_555 1_555
O1 V1 1_555 1_555
O2 C8 1_555 1_555
O3 C1 1_555 1_555
O4 C8 1_555 1_555
O5 C1 1_555 1_555
V1 O3 1_555 1_555
C9 H5 1_555 1_555
H6 C9 1_555 1_555
C10 C9 1_555 1_555
H7 C10 1_555 1_555
H8 C10 1_555 1_555
C11 H9 1_555 1_555
H10 C11 1_555 1_555
C12 C11 1_555 1_555
H11 C12 1_555 1_555
H12 C12 1_555 1_555
O6 C9 1_555 1_555
S1 C10 1_555 1_555
O1C V1 1_555 1_555
O2A V1 1_555 1_555
O4B V1 1_555 1_555
O5C V1 1_555 1_555
V1A O2 1_555 1_555
V1B O4 1_555 1_555
V1C O5 1_555 1_555
V1C_2 O1 1_555 1_555
C6 C7 1_555 1_555
C11 O6 1_555 1_555
C12 S1 1_555 1_555
O1C V1C 1_555 1_555

#END
