
#######################################################################
#
#                 Cambridge Crystallographic Data Centre
#                                CCDC 
#
#######################################################################
#
# If this CIF has been generated from an entry in the Cambridge 
# Structural Database, then it will include bibliographic, chemical, 
# crystal, experimental, refinement or atomic coordinate data resulting 
# from the CCDC's data processing and validation procedures.
#
#######################################################################

data_JUSKEP
_symmetry_cell_setting           monoclinic
_symmetry_space_group_name_H-M   'C 2/c'
_symmetry_Int_Tables_number      15
_space_group_name_Hall           '-C 2yn'
loop_
_symmetry_equiv_pos_site_id
_symmetry_equiv_pos_as_xyz
1 x,y,z
2 -x,y,1/2-z
3 1/2+x,1/2+y,z
4 1/2-x,1/2+y,1/2-z
5 -x,-y,-z
6 x,-y,1/2+z
7 1/2-x,1/2-y,-z
8 1/2+x,1/2-y,1/2+z
_cell_length_a                   32.24(5)
_cell_length_b                   12.209(19)
_cell_length_c                   8.885(13)
_cell_angle_alpha                90
_cell_angle_beta                 97.56(3)
_cell_angle_gamma                90
_cell_volume                     3466.9
loop_
_atom_site_label
_atom_site_type_symbol
_atom_site_fract_x
_atom_site_fract_y
_atom_site_fract_z
Ba1 Ba 0.0000 0.42367(10) -0.2500
O1 O 0.1650(4) -0.0939(11) 0.467(2)
O2 O 0.1243(3) 0.3541(10) -0.0954(9)
H1 H 0.1123 0.3624 -0.1819
O3 O 0.0620(3) 0.3401(13) -0.0492(10)
O4 O 0.2358(4) -0.1510(11) 0.6012(16)
O5 O 0.0289(3) 0.4108(9) 0.4563(9)
O6 O 0.0773(3) 0.3779(11) 0.6471(10)
C1 C 0.1271(9) -0.068(2) 0.377(5)
H2 H 0.1325 -0.0211 0.2958
H3 H 0.1089 -0.0322 0.4385
H4 H 0.1141 -0.1346 0.3363
C2 C 0.1860(5) 0.0918(15) 0.450(2)
H5 H 0.1597 0.1110 0.4010
C3 C 0.1555(4) 0.3192(12) 0.2124(12)
H6 H 0.1747 0.3076 0.1445
C4 C 0.1681(4) 0.3153(12) 0.3658(13)
C5 C 0.0982(4) 0.3599(11) 0.4068(11)
C6 C 0.1377(4) 0.3384(12) 0.4627(12)
H7 H 0.1454 0.3385 0.5673
C7 C 0.2578(4) 0.1405(12) 0.5433(13)
C8 C 0.2101(4) 0.2820(13) 0.4330(12)
C9 C 0.0978(5) 0.3444(13) -0.0052(13)
C10 C 0.1134(4) 0.3408(11) 0.1585(11)
C11 C 0.0851(4) 0.3582(11) 0.2541(12)
H8 H 0.0570 0.3689 0.2170
C12 C 0.2173(4) 0.1725(13) 0.4735(13)
C13 C 0.2641(5) 0.0309(15) 0.5871(15)
H9 H 0.2901 0.0098 0.6365
C14 C 0.1928(6) -0.0107(17) 0.495(2)
C15 C 0.2340(6) -0.0442(14) 0.560(2)
C16 C 0.2764(5) -0.1881(17) 0.666(2)
H10 H 0.2973 -0.1562 0.6120
H11 H 0.2777 -0.2665 0.6593
H12 H 0.2815 -0.1664 0.7709
C17 C 0.0663(4) 0.3847(12) 0.5105(12)
O7 O -0.0114(9) 0.199(3) -0.198(4)
H13 H 0.0065 0.1651 -0.1358
H14 H -0.0324 0.1654 -0.2431
O1F O 0.3350(4) 0.5939(11) 0.533(2)
O2F O 0.3757(3) 0.1459(10) 1.0954(9)
H1F H 0.3877 0.1376 1.1819
O3F O 0.4380(3) 0.1599(13) 1.0492(10)
O4F O 0.2642(4) 0.6510(11) 0.3988(16)
O5F O 0.4711(3) 0.0892(9) 0.5437(9)
O6F O 0.4227(3) 0.1221(11) 0.3529(10)
C1F C 0.3729(9) 0.568(2) 0.623(5)
H2F H 0.3675 0.5211 0.7042
H3F H 0.3911 0.5322 0.5615
H4F H 0.3859 0.6346 0.6637
C2F C 0.3140(5) 0.4082(15) 0.550(2)
H5F H 0.3403 0.3890 0.5990
C3F C 0.3445(4) 0.1808(12) 0.7876(12)
H6F H 0.3253 0.1924 0.8555
C4F C 0.3319(4) 0.1847(12) 0.6342(13)
C5F C 0.4018(4) 0.1401(11) 0.5932(11)
C6F C 0.3623(4) 0.1616(12) 0.5373(12)
H7F H 0.3546 0.1615 0.4327
C7F C 0.2422(4) 0.3595(12) 0.4567(13)
C8F C 0.2899(4) 0.2180(13) 0.5670(12)
C9F C 0.4022(5) 0.1556(13) 1.0052(13)
C10F C 0.3866(4) 0.1592(11) 0.8415(11)
C11F C 0.4149(4) 0.1418(11) 0.7459(12)
H8F H 0.4430 0.1311 0.7830
C12F C 0.2827(4) 0.3275(13) 0.5265(13)
C13F C 0.2359(5) 0.4691(15) 0.4129(15)
H9F H 0.2099 0.4902 0.3635
C14F C 0.3072(6) 0.5107(17) 0.505(2)
C15F C 0.2660(6) 0.5442(14) 0.440(2)
C16F C 0.2236(5) 0.6881(17) 0.334(2)
H10F H 0.2027 0.6562 0.3880
H11F H 0.2223 0.7665 0.3407
H12F H 0.2185 0.6664 0.2291
C17F C 0.4337(4) 0.1153(12) 0.4895(12)
O7A O 0.0114(9) 0.199(3) -0.302(4)
H13A H -0.0065 0.1651 -0.3642
H14A H 0.0324 0.1654 -0.2569
Ba1_2 Ba 0.0000 0.42367(10) 0.7500
Ba1B Ba 0.5000 -0.07633(10) 0.7500
Ba1D Ba 0.0000 0.57633(10) 0.2500
Ba1F Ba 0.5000 0.07633(10) 0.2500
Ba1F_2 Ba 0.5000 0.07633(10) 1.2500
O3A O -0.0620(3) 0.3401(13) -0.4508(10)
O5_2 O 0.0289(3) 0.4108(9) -0.5437(9)
O5A O -0.0289(3) 0.4108(9) 0.0437(9)
O5D O -0.0289(3) 0.5892(9) -0.4563(9)
O5E O 0.0289(3) 0.5892(9) -0.0437(9)
O6_2 O 0.0773(3) 0.3779(11) -0.3529(10)
O6A O -0.0773(3) 0.3779(11) -0.1471(10)
loop_
_geom_bond_atom_site_label_1
_geom_bond_atom_site_label_2
_geom_bond_site_symmetry_1
_geom_bond_site_symmetry_2
Ba1 O3 1_555 1_555
O1 C1 1_555 1_555
O2 H1 1_555 1_555
O3 C9 1_555 1_555
O4 C15 1_555 1_555
O5 C17 1_555 1_555
O6 C17 1_555 1_555
C1 H2 1_555 1_555
H3 C1 1_555 1_555
H4 C1 1_555 1_555
C2 H5 1_555 1_555
C3 H6 1_555 1_555
C4 C3 1_555 1_555
C5 C6 1_555 1_555
C6 C4 1_555 1_555
H7 C6 1_555 1_555
C7 C12 1_555 1_555
C8 C4 1_555 1_555
C9 O2 1_555 1_555
C10 C3 1_555 1_555
C11 C5 1_555 1_555
H8 C11 1_555 1_555
C12 C2 1_555 1_555
C13 C7 1_555 1_555
H9 C13 1_555 1_555
C14 O1 1_555 1_555
C15 C13 1_555 1_555
C16 O4 1_555 1_555
H10 C16 1_555 1_555
H11 C16 1_555 1_555
H12 C16 1_555 1_555
C17 C5 1_555 1_555
O7 Ba1 1_555 1_555
H13 O7 1_555 1_555
H14 O7 1_555 1_555
O1F C1F 1_555 1_555
O2F H1F 1_555 1_555
O3F C9F 1_555 1_555
O4F C15F 1_555 1_555
O5F C17F 1_555 1_555
O6F C17F 1_555 1_555
C1F H2F 1_555 1_555
H3F C1F 1_555 1_555
H4F C1F 1_555 1_555
C2F H5F 1_555 1_555
C3F H6F 1_555 1_555
C4F C3F 1_555 1_555
C5F C6F 1_555 1_555
C6F C4F 1_555 1_555
H7F C6F 1_555 1_555
C7F C8 1_555 1_555
C8F C7 1_555 1_555
C9F O2F 1_555 1_555
C10F C3F 1_555 1_555
C11F C5F 1_555 1_555
H8F C11F 1_555 1_555
C12F C2F 1_555 1_555
C13F C7F 1_555 1_555
H9F C13F 1_555 1_555
C14F O1F 1_555 1_555
C15F C13F 1_555 1_555
C16F O4F 1_555 1_555
H10F C16F 1_555 1_555
H11F C16F 1_555 1_555
H12F C16F 1_555 1_555
C17F C5F 1_555 1_555
O7A Ba1 1_555 1_555
H13A O7A 1_555 1_555
H14A O7A 1_555 1_555
Ba1_2 O5 1_555 1_555
Ba1B O5F 1_555 1_555
Ba1D O5 1_555 1_555
Ba1F O5F 1_555 1_555
Ba1F_2 O3F 1_555 1_555
O3A Ba1 1_555 1_555
O5_2 Ba1 1_555 1_555
O5A Ba1 1_555 1_555
O5D Ba1 1_555 1_555
O5E Ba1 1_555 1_555
O6_2 Ba1 1_555 1_555
O6A Ba1 1_555 1_555
O6 Ba1_2 1_555 1_555
C2 C14 1_555 1_555
C8 C12 1_555 1_555
C9 C10 1_555 1_555
C10 C11 1_555 1_555
C14 C15 1_555 1_555
O7 O7A 1_555 1_555
O6F Ba1F 1_555 1_555
C2F C14F 1_555 1_555
C4F C8F 1_555 1_555
C7F C12F 1_555 1_555
C8F C12F 1_555 1_555
C9F C10F 1_555 1_555
C10F C11F 1_555 1_555
C14F C15F 1_555 1_555
Ba1D O5A 1_555 1_555
Ba1D O5E 1_555 1_555

#END
