
#######################################################################
#
#                 Cambridge Crystallographic Data Centre
#                                CCDC 
#
#######################################################################
#
# If this CIF has been generated from an entry in the Cambridge 
# Structural Database, then it will include bibliographic, chemical, 
# crystal, experimental, refinement or atomic coordinate data resulting 
# from the CCDC's data processing and validation procedures.
#
#######################################################################

data_KANCUZ
_symmetry_cell_setting           triclinic
_symmetry_space_group_name_H-M   'P -1'
_symmetry_Int_Tables_number      2
_space_group_name_Hall           '-P 1'
loop_
_symmetry_equiv_pos_site_id
_symmetry_equiv_pos_as_xyz
1 x,y,z
2 -x,-y,-z
_cell_length_a                   9.845(2)
_cell_length_b                   10.409(2)
_cell_length_c                   14.986(3)
_cell_angle_alpha                97.76(3)
_cell_angle_beta                 91.69(3)
_cell_angle_gamma                100.83(3)
_cell_volume                     1492.17
loop_
_atom_site_label
_atom_site_type_symbol
_atom_site_fract_x
_atom_site_fract_y
_atom_site_fract_z
Zn1 Zn 0.54629(5) 0.73603(4) 0.60852(4)
Zn2 Zn 0.54213(6) 0.77514(4) 0.83953(4)
O1 O 0.2897(4) 0.8532(4) 0.5624(3)
O2 O 0.3520(3) 0.6867(3) 0.6201(3)
O3 O -0.2626(3) 0.8221(3) 0.8469(3)
O4 O -0.2069(4) 0.6448(4) 0.8956(3)
O5 O 0.6085(3) 0.5881(3) 0.6578(2)
O6 O 0.4934(3) 0.5895(3) 0.7842(2)
O7 O 0.6133(3) -0.0792(3) 0.6620(2)
O8 O 0.5011(3) -0.0707(3) 0.7889(2)
N1 N 0.6546(4) 0.7369(3) 0.4980(2)
N2 N 1.3986(4) 0.7687(3) -0.0665(2)
F1 F 0.8007(3) 0.9009(3) 0.2016(2)
F2 F 0.9668(3) 0.9045(3) 0.0696(2)
C1 C 0.1498(5) 0.7564(4) 0.6722(3)
C2 C 0.1517(5) 0.6903(4) 0.7466(3)
H1 H 0.2253 0.6493 0.7576
C3 C 0.0443(5) 0.6854(5) 0.8044(3)
H2 H 0.0461 0.6402 0.8537
C4 C -0.0655(5) 0.7467(4) 0.7896(3)
C5 C -0.0672(5) 0.8135(5) 0.7156(4)
H3 H -0.1401 0.8559 0.7053
C6 C 0.0395(5) 0.8172(5) 0.6570(4)
H4 H 0.0369 0.8610 0.6070
C7 C 0.2703(5) 0.7681(5) 0.6120(4)
C8 C -0.1850(5) 0.7351(5) 0.8514(4)
C9 C 0.5620(4) 0.3920(4) 0.7243(3)
C10 C 0.6196(5) 0.3215(4) 0.6548(3)
H5 H 0.6564 0.3632 0.6073
C11 C 0.6225(5) 0.1886(4) 0.6560(3)
H6 H 0.6614 0.1415 0.6096
C12 C 0.5667(4) 0.1264(4) 0.7270(3)
C13 C 0.5116(5) 0.1985(4) 0.7973(3)
H7 H 0.4761 0.1580 0.8456
C14 C 0.5100(5) 0.3296(4) 0.7951(3)
H8 H 0.4731 0.3773 0.8422
C15 C 0.5550(4) 0.5341(4) 0.7222(3)
C16 C 0.5602(5) -0.0186(4) 0.7260(3)
C17 C 0.6999(5) 0.6302(4) 0.4598(3)
H9 H 0.6770 0.5527 0.4851
C18 C 0.7775(5) 0.6283(4) 0.3859(3)
H10 H 0.8059 0.5510 0.3620
C19 C 0.8141(5) 0.7433(4) 0.3463(3)
C20 C 0.7651(5) 0.8531(4) 0.3852(3)
H11 H 0.7853 0.9316 0.3608
C21 C 0.6872(5) 0.8468(4) 0.4591(3)
H12 H 0.6553 0.9219 0.4835
C22 C 0.9045(5) 0.7454(4) 0.2688(3)
C23 C 1.0042(5) 0.6665(5) 0.2600(3)
H13 H 1.0118 0.6108 0.3027
C24 C 1.0909(5) 0.6681(5) 0.1909(3)
H14 H 1.1555 0.6132 0.1877
C25 C 1.0859(5) 0.7496(4) 0.1247(3)
C26 C 0.9852(5) 0.8265(5) 0.1323(3)
C27 C 0.8953(5) 0.8229(5) 0.2017(3)
C28 C 1.1883(5) 0.7567(4) 0.0547(3)
C29 C 1.2437(5) 0.6455(4) 0.0236(3)
H15 H 1.2100 0.5648 0.0429
C30 C 1.3477(5) 0.6561(4) -0.0352(3)
H16 H 1.3845 0.5817 -0.0541
C31 C 1.3443(5) 0.8742(4) -0.0388(3)
H17 H 1.3780 0.9528 -0.0607
C32 C 1.2404(5) 0.8720(4) 0.0209(3)
H18 H 1.2054 0.9480 0.0384
Zn1_2 Zn 0.54629(5) -0.26397(4) 0.60852(4)
Zn2_2 Zn -0.45787(6) 0.77514(4) 0.83953(4)
Zn2_3 Zn 0.54213(6) -0.22486(4) 0.83953(4)
Zn2_4 Zn 1.54213(6) 0.77514(4) -0.16047(4)
O3_2 O 0.7374(3) 0.8221(3) 0.8469(3)
O7_2 O 0.6133(3) 0.9208(3) 0.6620(2)
O8_2 O 0.5011(3) 0.9293(3) 0.7889(2)
N2_2 N 0.3986(4) 0.7687(3) 0.9335(2)
loop_
_geom_bond_atom_site_label_1
_geom_bond_atom_site_label_2
_geom_bond_site_symmetry_1
_geom_bond_site_symmetry_2
Zn1 O2 1_555 1_555
Zn2 O6 1_555 1_555
O1 C7 1_555 1_555
O2 C7 1_555 1_555
O3 C8 1_555 1_555
O4 C8 1_555 1_555
O5 Zn1 1_555 1_555
O6 C15 1_555 1_555
O7 C16 1_555 1_555
O8 C16 1_555 1_555
N1 Zn1 1_555 1_555
N2 C30 1_555 1_555
F1 C27 1_555 1_555
F2 C26 1_555 1_555
C1 C2 1_555 1_555
C2 H1 1_555 1_555
C3 C2 1_555 1_555
H2 C3 1_555 1_555
C4 C3 1_555 1_555
C5 C4 1_555 1_555
H3 C5 1_555 1_555
C6 C1 1_555 1_555
H4 C6 1_555 1_555
C7 C1 1_555 1_555
C8 C4 1_555 1_555
C9 C10 1_555 1_555
C10 H5 1_555 1_555
C11 C10 1_555 1_555
H6 C11 1_555 1_555
C12 C11 1_555 1_555
C13 C12 1_555 1_555
H7 C13 1_555 1_555
C14 C9 1_555 1_555
H8 C14 1_555 1_555
C15 O5 1_555 1_555
C16 C12 1_555 1_555
C17 N1 1_555 1_555
H9 C17 1_555 1_555
C18 C17 1_555 1_555
H10 C18 1_555 1_555
C19 C18 1_555 1_555
C20 C19 1_555 1_555
H11 C20 1_555 1_555
C21 N1 1_555 1_555
H12 C21 1_555 1_555
C22 C19 1_555 1_555
C23 C22 1_555 1_555
H13 C23 1_555 1_555
C24 C23 1_555 1_555
H14 C24 1_555 1_555
C25 C24 1_555 1_555
C26 C25 1_555 1_555
C27 C22 1_555 1_555
C28 C25 1_555 1_555
C29 C28 1_555 1_555
H15 C29 1_555 1_555
C30 C29 1_555 1_555
H16 C30 1_555 1_555
C31 N2 1_555 1_555
H17 C31 1_555 1_555
C32 C28 1_555 1_555
H18 C32 1_555 1_555
Zn1_2 O7 1_555 1_555
Zn2_2 O3 1_555 1_555
Zn2_3 O8 1_555 1_555
Zn2_4 N2 1_555 1_555
O3_2 Zn2 1_555 1_555
O7_2 Zn1 1_555 1_555
O8_2 Zn2 1_555 1_555
N2_2 Zn2 1_555 1_555
C5 C6 1_555 1_555
C9 C15 1_555 1_555
C13 C14 1_555 1_555
C20 C21 1_555 1_555
C26 C27 1_555 1_555
C31 C32 1_555 1_555

#END
