
#######################################################################
#
#                 Cambridge Crystallographic Data Centre
#                                CCDC 
#
#######################################################################
#
# If this CIF has been generated from an entry in the Cambridge 
# Structural Database, then it will include bibliographic, chemical, 
# crystal, experimental, refinement or atomic coordinate data resulting 
# from the CCDC's data processing and validation procedures.
#
#######################################################################

data_KANCIN
_symmetry_cell_setting           orthorhombic
_symmetry_space_group_name_H-M   'C c c a'
_symmetry_Int_Tables_number      68
_space_group_name_Hall           '-C 2b 2bc'
loop_
_symmetry_equiv_pos_site_id
_symmetry_equiv_pos_as_xyz
1 x,y,z
2 1/2-x,-y,z
3 -x,y,1/2-z
4 1/2+x,-y,1/2-z
5 1/2+x,1/2+y,z
6 -x,1/2-y,z
7 1/2-x,1/2+y,1/2-z
8 x,1/2-y,1/2-z
9 -x,-y,-z
10 1/2+x,y,-z
11 x,-y,1/2+z
12 1/2-x,y,1/2+z
13 1/2-x,1/2-y,-z
14 x,1/2+y,-z
15 1/2+x,1/2-y,1/2+z
16 -x,1/2+y,1/2+z
_cell_length_a                   11.426(2)
_cell_length_b                   18.457(4)
_cell_length_c                   18.340(4)
_cell_angle_alpha                90
_cell_angle_beta                 90
_cell_angle_gamma                90
_cell_volume                     3867.72
loop_
_atom_site_label
_atom_site_type_symbol
_atom_site_fract_x
_atom_site_fract_y
_atom_site_fract_z
Zn1 Zn 1.0000 0.33123(3) 0.2500
O1 O 1.1308(3) 0.31718(18) 0.17309(19)
O2 O 1.1102(3) 0.19588(18) 0.16914(18)
N1 N 1.0000 0.4412(3) 0.2500
C1 C 1.1431(4) 0.2562(2) 0.1430(3)
C2 C 1.2001(5) 0.2533(2) 0.0696(3)
C3 C 1.2559(9) 0.3116(3) 0.0396(4)
H1 H 1.2614 0.3556 0.0672
C4 C 1.1951(7) 0.1908(3) 0.0295(4)
H2 H 1.1577 0.1486 0.0493
C5 C 1.0755(4) 0.4785(2) 0.2092(3)
H3 H 1.1286 0.4523 0.1784
C6 C 1.0805(5) 0.5545(3) 0.2095(4)
H4 H 1.1395 0.5792 0.1818
C7 C 1.0000 0.5939(4) 0.2500
C8 C 1.0000 0.6740(4) 0.2500
C9 C 1.1055(4) 0.7124(3) 0.2494(5)
H5 H 1.1784 0.6866 0.2481
Zn1E Zn 1.0000 0.16877(3) 0.2500
Zn1E_2 Zn 1.0000 1.16877(3) 0.2500
Zn1I Zn 1.5000 0.33123(3) -0.2500
Zn1I_2 Zn 1.5000 0.33123(3) 0.7500
Zn1L Zn 1.5000 0.16877(3) -0.2500
Zn1L_2 Zn 1.5000 0.16877(3) 0.7500
O1L O 1.3692(3) 0.18282(18) -0.17309(19)
O1G O 1.1308(3) 0.18282(18) 0.32691(19)
O1K O 1.3692(3) 0.31718(18) 0.67309(19)
O1E O 0.8692(3) 0.18282(18) 0.17309(19)
O1B O 0.8692(3) 0.31718(18) 0.32691(19)
O2L O 1.3898(3) 0.30412(18) -0.16914(18)
O2G O 1.1102(3) 0.30412(18) 0.33086(18)
O2K O 1.3898(3) 0.19588(18) 0.66914(18)
O2E O 0.8898(3) 0.30412(18) 0.16914(18)
O2B O 0.8898(3) 0.19588(18) 0.33086(18)
N1E N 1.0000 1.0588(3) 0.2500
N1E_2 N 1.0000 0.0588(3) 0.2500
C1L C 1.3569(4) 0.2438(2) -0.1430(3)
C1G C 1.1431(4) 0.2438(2) 0.3570(3)
C1K C 1.3569(4) 0.2562(2) 0.6430(3)
C2L C 1.2999(5) 0.2467(2) -0.0696(3)
C2G C 1.2001(5) 0.2467(2) 0.4304(3)
C2K C 1.2999(5) 0.2533(2) 0.5696(3)
C3L C 1.2441(9) 0.1884(3) -0.0396(4)
C3G C 1.2559(9) 0.1884(3) 0.4604(4)
C3K C 1.2441(9) 0.3116(3) 0.5396(4)
H1L H 1.2386 0.1444 -0.0672
H1G H 1.2614 0.1444 0.4328
H1K H 1.2386 0.3556 0.5672
C4L C 1.3049(7) 0.3092(3) -0.0295(4)
C4G C 1.1951(7) 0.3092(3) 0.4705(4)
C4K C 1.3049(7) 0.1908(3) 0.5295(4)
H2L H 1.3423 0.3514 -0.0493
H2G H 1.1577 0.3514 0.4507
H2K H 1.3423 0.1486 0.5493
C5B C 0.9245(4) 0.4785(2) 0.2908(3)
C5E C 0.9245(4) 1.0215(2) 0.2092(3)
C5G C 1.0755(4) 1.0215(2) 0.2908(3)
H3B H 0.8714 0.4523 0.3216
H3E H 0.8714 1.0477 0.1784
H3G H 1.1286 1.0477 0.3216
C6B C 0.9195(5) 0.5545(3) 0.2905(4)
C6E C 0.9195(5) 0.9455(3) 0.2095(4)
C6G C 1.0805(5) 0.9455(3) 0.2905(4)
H4B H 0.8605 0.5792 0.3182
H4E H 0.8605 0.9208 0.1818
H4G H 1.1395 0.9208 0.3182
C7E C 1.0000 0.9061(4) 0.2500
C8E C 1.0000 0.8260(4) 0.2500
C9B C 0.8945(4) 0.7124(3) 0.2506(5)
C9E C 0.8945(4) 0.7876(3) 0.2494(5)
C9G C 1.1055(4) 0.7876(3) 0.2506(5)
H5B H 0.8216 0.6866 0.2519
H5E H 0.8216 0.8134 0.2481
H5G H 1.1784 0.8134 0.2519
loop_
_geom_bond_atom_site_label_1
_geom_bond_atom_site_label_2
_geom_bond_site_symmetry_1
_geom_bond_site_symmetry_2
Zn1 O1 1_555 1_555
O1 C1 1_555 1_555
O2 C1 1_555 1_555
N1 Zn1 1_555 1_555
C1 C2 1_555 1_555
C2 C3 1_555 1_555
C3 H1 1_555 1_555
C4 C2 1_555 1_555
H2 C4 1_555 1_555
C5 N1 1_555 1_555
H3 C5 1_555 1_555
C6 C5 1_555 1_555
H4 C6 1_555 1_555
C7 C6 1_555 1_555
C8 C7 1_555 1_555
C9 C8 1_555 1_555
H5 C9 1_555 1_555
Zn1E O2 1_555 1_555
Zn1E_2 N1E 1_555 1_555
Zn1I O2L 1_555 1_555
Zn1I_2 O1K 1_555 1_555
Zn1L O1L 1_555 1_555
Zn1L_2 O2K 1_555 1_555
O1L C1L 1_555 1_555
O1G Zn1E 1_555 1_555
O1K C1K 1_555 1_555
O1E Zn1E 1_555 1_555
O1B Zn1 1_555 1_555
O2L C1L 1_555 1_555
O2G Zn1 1_555 1_555
O2K C1K 1_555 1_555
O2E Zn1 1_555 1_555
O2B Zn1E 1_555 1_555
N1E C5E 1_555 1_555
N1E_2 Zn1E 1_555 1_555
C1L C2L 1_555 1_555
C1G O1G 1_555 1_555
C1K C2K 1_555 1_555
C2L C3L 1_555 1_555
C2G C1G 1_555 1_555
C2K C3K 1_555 1_555
C3L C4 1_555 1_555
C3G C2G 1_555 1_555
C3K H1K 1_555 1_555
H1L C3L 1_555 1_555
H1G C3G 1_555 1_555
C4L C3 1_555 1_555
C4G C2G 1_555 1_555
C4K C2K 1_555 1_555
H2L C4L 1_555 1_555
H2G C4G 1_555 1_555
H2K C4K 1_555 1_555
C5B N1 1_555 1_555
C5E H3E 1_555 1_555
C5G N1E 1_555 1_555
H3B C5B 1_555 1_555
H3G C5G 1_555 1_555
C6B C7 1_555 1_555
C6E C5E 1_555 1_555
C6G C5G 1_555 1_555
H4B C6B 1_555 1_555
H4E C6E 1_555 1_555
H4G C6G 1_555 1_555
C7E C6E 1_555 1_555
C8E C7E 1_555 1_555
C9B C8 1_555 1_555
C9E C8E 1_555 1_555
C9G C9 1_555 1_555
H5B C9B 1_555 1_555
H5E C9E 1_555 1_555
H5G C9G 1_555 1_555
O2G C1G 1_555 1_555
C2L C4L 1_555 1_555
C3G C4K 1_555 1_555
C3K C4G 1_555 1_555
C5B C6B 1_555 1_555
C6G C7E 1_555 1_555
C8E C9G 1_555 1_555
C9B C9E 1_555 1_555

#END
