
#######################################################################
#
#                 Cambridge Crystallographic Data Centre
#                                CCDC 
#
#######################################################################
#
# If this CIF has been generated from an entry in the Cambridge 
# Structural Database, then it will include bibliographic, chemical, 
# crystal, experimental, refinement or atomic coordinate data resulting 
# from the CCDC's data processing and validation procedures.
#
#######################################################################

data_KANDAG
_symmetry_cell_setting           triclinic
_symmetry_space_group_name_H-M   'P -1'
_symmetry_Int_Tables_number      2
_space_group_name_Hall           '-P 1'
loop_
_symmetry_equiv_pos_site_id
_symmetry_equiv_pos_as_xyz
1 x,y,z
2 -x,-y,-z
_cell_length_a                   10.903(2)
_cell_length_b                   10.960(2)
_cell_length_c                   14.840(3)
_cell_angle_alpha                82.55(3)
_cell_angle_beta                 85.61(3)
_cell_angle_gamma                88.79(3)
_cell_volume                     1753.09
loop_
_atom_site_label
_atom_site_type_symbol
_atom_site_fract_x
_atom_site_fract_y
_atom_site_fract_z
N3 N -0.880(2) 0.561(2) 1.0118(16)
O9 O -0.677(2) 0.606(2) 0.9829(17)
C33 C -0.775(3) 0.612(3) 1.0307(19)
C34 C -0.895(3) 0.501(3) 0.924(2)
C35 C -0.995(4) 0.557(4) 1.072(3)
N3A N -1.120(2) 0.439(2) 0.9882(16)
O9A O -1.323(2) 0.394(2) 1.0171(17)
C33A C -1.225(3) 0.388(3) 0.9693(19)
C34A C -1.105(3) 0.499(3) 1.076(2)
C35A C -1.005(4) 0.443(4) 0.928(3)
Zn1 Zn 0.44930(8) 0.78383(8) 0.39492(6)
Zn2 Zn 0.45129(8) 0.82184(8) 0.18907(6)
O1 O -0.3632(5) 0.7785(6) 0.4074(4)
O2 O -0.3778(5) 0.7989(6) 0.2571(4)
O3 O 0.2800(5) 0.8052(6) 0.3276(4)
O4 O 0.2647(5) 0.8321(6) 0.1764(4)
O5 O 0.4554(5) 0.9710(5) 0.3669(4)
O6 O 0.4570(5) 0.9991(5) 0.2115(4)
O7 O 0.4433(5) 1.6347(5) 0.2173(4)
O8 O 0.4445(5) 1.6061(5) 0.3721(4)
N1 N 0.3469(6) 0.7756(6) 0.5183(4)
N2 N -0.4414(6) 0.8281(6) 1.0675(4)
F1 F 0.1890(5) 0.8811(6) 0.8295(4)
F2 F 0.0019(5) 0.9002(5) 0.9534(4)
C1 C -0.1776(7) 0.7942(8) 0.3090(6)
C2 C -0.1020(8) 0.7829(10) 0.3819(6)
H1 H -0.1369 0.7698 0.4415
C3 C 0.0252(8) 0.7911(10) 0.3654(6)
H2 H 0.0748 0.7842 0.4141
C4 C 0.0788(7) 0.8097(9) 0.2764(6)
C5 C 0.0018(8) 0.8214(9) 0.2017(6)
H3 H 0.0355 0.8355 0.1418
C6 C -0.1238(7) 0.8112(9) 0.2208(6)
H4 H -0.1742 0.8160 0.1726
C7 C -0.3167(7) 0.7881(8) 0.3260(6)
C8 C 0.2183(7) 0.8155(8) 0.2590(6)
C9 C 0.4509(7) 1.1756(8) 0.2905(6)
C10 C 0.4021(7) 1.2245(7) 0.3693(5)
H5 H 0.3710 1.1724 0.4201
C11 C 0.4009(7) 1.3521(7) 0.3704(5)
H6 H 0.3711 1.3846 0.4228
C12 C 0.4445(7) 1.4319(7) 0.2929(5)
C13 C 0.4935(8) 1.3821(8) 0.2152(6)
H7 H 0.5235 1.4347 0.1644
C14 C 0.4979(7) 1.2544(7) 0.2127(5)
H8 H 0.5311 1.2222 0.1610
C15 C 0.4541(6) 1.0378(7) 0.2890(5)
C16 C 0.4442(7) 1.5683(7) 0.2941(5)
C17 C 0.3192(7) 0.8774(8) 0.5558(5)
H9 H 0.3619 0.9486 0.5328
C18 C 0.2301(8) 0.8840(9) 0.6275(6)
H10 H 0.2123 0.9576 0.6509
C19 C 0.1686(8) 0.7756(9) 0.6628(6)
C20 C 0.1994(8) 0.6678(9) 0.6273(7)
H11 H 0.1604 0.5948 0.6513
C21 C 0.2896(8) 0.6692(8) 0.5550(6)
H12 H 0.3110 0.5963 0.5315
C22 C 0.0649(7) 0.7803(8) 0.7354(6)
C23 C -0.0514(8) 0.7321(10) 0.7258(7)
H13 H -0.0627 0.6935 0.6748
C24 C -0.1508(8) 0.7405(9) 0.7909(6)
H14 H -0.2265 0.7076 0.7830
C25 C -0.1348(7) 0.7999(8) 0.8692(6)
C26 C -0.0196(8) 0.8470(9) 0.8788(6)
C27 C 0.0781(8) 0.8366(9) 0.8127(7)
C28 C -0.2421(7) 0.8123(9) 0.9371(6)
C29 C -0.3208(9) 0.7144(10) 0.9638(6)
H15 H -0.3086 0.6417 0.9381
C30 C -0.4179(8) 0.7246(8) 1.0289(6)
H16 H -0.4686 0.6572 1.0465
C31 C -0.3678(8) 0.9244(8) 1.0401(6)
H17 H -0.3846 0.9970 1.0653
C32 C -0.2670(8) 0.9221(8) 0.9758(6)
H18 H -0.2180 0.9909 0.9591
Zn1_2 Zn -0.55070(8) 0.78383(8) 0.39492(6)
Zn1_3 Zn 0.44930(8) 1.78383(8) 0.39492(6)
Zn2_2 Zn -0.54871(8) 0.82184(8) 0.18907(6)
Zn2_3 Zn -0.54871(8) 0.82184(8) 1.18907(6)
Zn2_4 Zn 0.45129(8) 1.82184(8) 0.18907(6)
O1_2 O 0.6368(5) 0.7785(6) 0.4074(4)
O2_2 O 0.6222(5) 0.7989(6) 0.2571(4)
O7_2 O 0.4433(5) 0.6347(5) 0.2173(4)
O8_2 O 0.4445(5) 0.6061(5) 0.3721(4)
N2_2 N 0.5586(6) 0.8281(6) 0.0675(4)
loop_
_geom_bond_atom_site_label_1
_geom_bond_atom_site_label_2
_geom_bond_site_symmetry_1
_geom_bond_site_symmetry_2
Zn1 O3 1_555 1_555
Zn2 O4 1_555 1_555
O1 C7 1_555 1_555
O2 C7 1_555 1_555
O3 C8 1_555 1_555
O4 C8 1_555 1_555
O5 Zn1 1_555 1_555
O6 Zn2 1_555 1_555
O7 C16 1_555 1_555
O8 C16 1_555 1_555
N1 Zn1 1_555 1_555
N2 C30 1_555 1_555
F1 C27 1_555 1_555
F2 C26 1_555 1_555
C1 C2 1_555 1_555
C2 H1 1_555 1_555
C3 C2 1_555 1_555
H2 C3 1_555 1_555
C4 C3 1_555 1_555
C5 C4 1_555 1_555
H3 C5 1_555 1_555
C6 C1 1_555 1_555
H4 C6 1_555 1_555
C7 C1 1_555 1_555
C8 C4 1_555 1_555
C9 C10 1_555 1_555
C10 H5 1_555 1_555
C11 C10 1_555 1_555
H6 C11 1_555 1_555
C12 C11 1_555 1_555
C13 C12 1_555 1_555
H7 C13 1_555 1_555
C14 C9 1_555 1_555
H8 C14 1_555 1_555
C15 O5 1_555 1_555
C16 C12 1_555 1_555
C17 N1 1_555 1_555
H9 C17 1_555 1_555
C18 C17 1_555 1_555
H10 C18 1_555 1_555
C19 C18 1_555 1_555
C20 C19 1_555 1_555
H11 C20 1_555 1_555
C21 N1 1_555 1_555
H12 C21 1_555 1_555
C22 C19 1_555 1_555
C23 C22 1_555 1_555
H13 C23 1_555 1_555
C24 C23 1_555 1_555
H14 C24 1_555 1_555
C25 C24 1_555 1_555
C26 C25 1_555 1_555
C27 C22 1_555 1_555
C28 C25 1_555 1_555
C29 C28 1_555 1_555
H15 C29 1_555 1_555
C30 C29 1_555 1_555
H16 C30 1_555 1_555
C31 N2 1_555 1_555
H17 C31 1_555 1_555
C32 C28 1_555 1_555
H18 C32 1_555 1_555
N3 C33 1_555 1_555
O9 C33 1_555 1_555
C34 N3 1_555 1_555
C35 N3 1_555 1_555
Zn1_2 O1 1_555 1_555
Zn1_3 O8 1_555 1_555
Zn2_2 O2 1_555 1_555
Zn2_3 N2 1_555 1_555
Zn2_4 O7 1_555 1_555
O1_2 Zn1 1_555 1_555
O2_2 Zn2 1_555 1_555
O7_2 Zn2 1_555 1_555
O8_2 Zn1 1_555 1_555
N2_2 Zn2 1_555 1_555
N3A C33A 1_555 1_555
O9A C33A 1_555 1_555
C34A C35 1_555 1_555
C35A C34 1_555 1_555
O6 C15 1_555 1_555
C5 C6 1_555 1_555
C9 C15 1_555 1_555
C13 C14 1_555 1_555
C20 C21 1_555 1_555
C26 C27 1_555 1_555
C31 C32 1_555 1_555
N3A C34A 1_555 1_555
N3A C35A 1_555 1_555

#END
