
#######################################################################
#
#                 Cambridge Crystallographic Data Centre
#                                CCDC 
#
#######################################################################
#
# If this CIF has been generated from an entry in the Cambridge 
# Structural Database, then it will include bibliographic, chemical, 
# crystal, experimental, refinement or atomic coordinate data resulting 
# from the CCDC's data processing and validation procedures.
#
#######################################################################

data_KANDEK
_symmetry_cell_setting           triclinic
_symmetry_space_group_name_H-M   'P -1'
_symmetry_Int_Tables_number      2
_space_group_name_Hall           '-P 1'
loop_
_symmetry_equiv_pos_site_id
_symmetry_equiv_pos_as_xyz
1 x,y,z
2 -x,-y,-z
_cell_length_a                   10.865(2)
_cell_length_b                   10.960(2)
_cell_length_c                   15.272(3)
_cell_angle_alpha                79.28(3)
_cell_angle_beta                 83.75(3)
_cell_angle_gamma                84.50(3)
_cell_volume                     1770.91
loop_
_atom_site_label
_atom_site_type_symbol
_atom_site_fract_x
_atom_site_fract_y
_atom_site_fract_z
Zn1 Zn 0.04628(7) 0.15829(7) 1.30364(5)
Zn2 Zn 0.05462(7) 0.21235(7) 1.10297(5)
O1 O 0.0472(5) 0.3482(4) 1.2767(3)
O2 O 0.0549(4) 0.3884(4) 1.1248(3)
O3 O 0.0478(5) 1.0221(4) 1.1318(3)
O4 O 0.0465(4) 0.9802(4) 1.2835(3)
O5 O 0.2329(4) 0.1454(5) 1.3131(3)
O6 O 0.2251(4) 0.1786(5) 1.1641(3)
O7 O 0.8678(5) 0.2281(5) 1.0918(3)
O8 O 0.8749(4) 0.1918(5) 1.2402(3)
N1 N -0.8453(5) 0.2209(5) 1.9802(4)
N2 N -0.0605(5) 0.1451(5) 1.4236(4)
F1 F -0.5073(4) 0.1008(5) 1.5452(3)
F2 F -0.6945(4) 0.1245(4) 1.6710(3)
C1 C 0.0529(7) 0.5568(6) 1.2023(5)
C2 C 0.0967(7) 0.6372(7) 1.1269(5)
H1 H 0.1265 0.6061 1.0753
C3 C 0.0967(7) 0.7662(6) 1.1273(5)
H2 H 0.1272 0.8195 1.0765
C4 C 0.0505(7) 0.8133(7) 1.2048(5)
C5 C 0.0059(6) 0.7305(6) 1.2821(5)
H3 H -0.0233 0.7604 1.3342
C6 C 0.0061(7) 0.6046(7) 1.2793(5)
H4 H -0.0253 0.5509 1.3296
C7 C 0.0521(6) 0.4204(6) 1.2010(5)
C8 C 0.0487(6) 0.9475(6) 1.2084(5)
C9 C 0.4212(6) 0.1805(6) 1.2191(5)
C10 C 0.4802(7) 0.2022(7) 1.1291(5)
H5 H 0.4331 0.2080 1.0809
C11 C 0.6083(6) 0.2145(7) 1.1138(5)
H6 H 0.6466 0.2298 1.0558
C12 C 0.6789(7) 0.2033(7) 1.1887(5)
C13 C 0.6203(7) 0.1836(7) 1.2757(5)
H7 H 0.6667 0.1789 1.3241
C14 C 0.4931(6) 0.1710(7) 1.2904(5)
H8 H 0.4557 0.1561 1.3487
C15 C 0.2829(7) 0.1675(6) 1.2323(6)
C16 C 0.8169(6) 0.2085(6) 1.1734(5)
C17 C -0.7773(7) 0.3189(7) 1.9459(5)
H9 H -0.7907 0.3896 1.9722
C18 C -0.6884(8) 0.3187(8) 1.8735(5)
H10 H -0.6440 0.3881 1.8515
C19 C -0.6670(6) 0.2128(7) 1.8343(5)
C20 C -0.7397(7) 0.1120(7) 1.8683(5)
H11 H -0.7297 0.0407 1.8426
C21 C -0.8261(7) 0.1206(7) 1.9406(5)
H12 H -0.8733 0.0533 1.9630
C22 C -0.5650(7) 0.2032(7) 1.7615(5)
C23 C -0.4454(8) 0.2374(9) 1.7702(5)
H13 H -0.4318 0.2691 1.8204
C24 C -0.3465(8) 0.2241(9) 1.7040(5)
H14 H -0.2690 0.2488 1.7108
C25 C -0.3629(7) 0.1736(7) 1.6268(5)
C26 C -0.4842(7) 0.1419(7) 1.6191(5)
C27 C -0.5800(7) 0.1568(7) 1.6841(5)
C28 C -0.2595(7) 0.1607(8) 1.5569(5)
C29 C -0.1727(7) 0.2507(8) 1.5366(5)
H15 H -0.1794 0.3167 1.5677
C30 C -0.0762(7) 0.2412(8) 1.4694(5)
H16 H -0.0206 0.3029 1.4556
C31 C -0.1386(7) 0.0566(7) 1.4466(5)
H17 H -0.1254 -0.0123 1.4183
C32 C -0.2407(7) 0.0607(6) 1.5118(5)
H18 H -0.2946 -0.0026 1.5243
Zn1_2 Zn 0.04628(7) 1.15829(7) 1.30364(5)
Zn1_3 Zn 1.04628(7) 0.15829(7) 1.30364(5)
Zn2_2 Zn 0.05462(7) 1.21235(7) 1.10297(5)
Zn2_3 Zn 1.05462(7) 0.21235(7) 1.10297(5)
Zn2_4 Zn -0.94538(7) 0.21235(7) 2.10297(5)
O3_2 O 0.0478(5) 0.0221(4) 1.1318(3)
O4_2 O 0.0465(4) -0.0198(4) 1.2835(3)
O7_2 O -0.1322(5) 0.2281(5) 1.0918(3)
O8_2 O -0.1251(4) 0.1918(5) 1.2402(3)
N1_2 N 0.1547(5) 0.2209(5) 0.9802(4)
loop_
_geom_bond_atom_site_label_1
_geom_bond_atom_site_label_2
_geom_bond_site_symmetry_1
_geom_bond_site_symmetry_2
Zn1 O1 1_555 1_555
Zn2 O2 1_555 1_555
O1 C7 1_555 1_555
O2 C7 1_555 1_555
O3 C8 1_555 1_555
O4 C8 1_555 1_555
O5 Zn1 1_555 1_555
O6 Zn2 1_555 1_555
O7 C16 1_555 1_555
O8 C16 1_555 1_555
N1 C17 1_555 1_555
N2 Zn1 1_555 1_555
F1 C26 1_555 1_555
F2 C27 1_555 1_555
C1 C2 1_555 1_555
C2 H1 1_555 1_555
C3 C2 1_555 1_555
H2 C3 1_555 1_555
C4 C3 1_555 1_555
C5 C4 1_555 1_555
H3 C5 1_555 1_555
C6 C1 1_555 1_555
H4 C6 1_555 1_555
C7 C1 1_555 1_555
C8 C4 1_555 1_555
C9 C10 1_555 1_555
C10 H5 1_555 1_555
C11 C10 1_555 1_555
H6 C11 1_555 1_555
C12 C11 1_555 1_555
C13 C12 1_555 1_555
H7 C13 1_555 1_555
C14 C9 1_555 1_555
H8 C14 1_555 1_555
C15 O5 1_555 1_555
C16 C12 1_555 1_555
C17 H9 1_555 1_555
C18 C17 1_555 1_555
H10 C18 1_555 1_555
C19 C18 1_555 1_555
C20 C19 1_555 1_555
H11 C20 1_555 1_555
C21 N1 1_555 1_555
H12 C21 1_555 1_555
C22 C19 1_555 1_555
C23 C22 1_555 1_555
H13 C23 1_555 1_555
C24 C23 1_555 1_555
H14 C24 1_555 1_555
C25 C24 1_555 1_555
C26 C25 1_555 1_555
C27 C22 1_555 1_555
C28 C25 1_555 1_555
C29 C28 1_555 1_555
H15 C29 1_555 1_555
C30 N2 1_555 1_555
H16 C30 1_555 1_555
C31 N2 1_555 1_555
H17 C31 1_555 1_555
C32 C28 1_555 1_555
H18 C32 1_555 1_555
Zn1_2 O4 1_555 1_555
Zn1_3 O8 1_555 1_555
Zn2_2 O3 1_555 1_555
Zn2_3 O7 1_555 1_555
Zn2_4 N1 1_555 1_555
O3_2 Zn2 1_555 1_555
O4_2 Zn1 1_555 1_555
O7_2 Zn2 1_555 1_555
O8_2 Zn1 1_555 1_555
N1_2 Zn2 1_555 1_555
O6 C15 1_555 1_555
C5 C6 1_555 1_555
C9 C15 1_555 1_555
C13 C14 1_555 1_555
C20 C21 1_555 1_555
C26 C27 1_555 1_555
C29 C30 1_555 1_555
C31 C32 1_555 1_555

#END
