
#######################################################################
#
#                 Cambridge Crystallographic Data Centre
#                                CCDC 
#
#######################################################################
#
# If this CIF has been generated from an entry in the Cambridge 
# Structural Database, then it will include bibliographic, chemical, 
# crystal, experimental, refinement or atomic coordinate data resulting 
# from the CCDC's data processing and validation procedures.
#
#######################################################################

data_KAVGAQ
_symmetry_cell_setting           triclinic
_symmetry_space_group_name_H-M   'P -1'
_symmetry_Int_Tables_number      2
_space_group_name_Hall           '-P 1'
loop_
_symmetry_equiv_pos_site_id
_symmetry_equiv_pos_as_xyz
1 x,y,z
2 -x,-y,-z
_cell_length_a                   11.4932(2)
_cell_length_b                   11.61320(10)
_cell_length_c                   11.81820(10)
_cell_angle_alpha                65.275(8)
_cell_angle_beta                 81.174(12)
_cell_angle_gamma                72.752(10)
_cell_volume                     1367.58
loop_
_atom_site_label
_atom_site_type_symbol
_atom_site_fract_x
_atom_site_fract_y
_atom_site_fract_z
O5 O 0.0341(9) 0.3296(10) 0.1799(9)
O6 O 0.3875(10) 0.4266(11) -0.1401(11)
C21 C -0.5000 0.0000 0.5000
C22 C -0.3931(18) 0.117(2) 0.3008(19)
H14 H -0.3087 0.0731 0.3078
O8 O -0.4617(18) 0.226(2) 0.2060(19)
C23 C -0.6011(15) 0.178(2) 0.3227(18)
H15 H -0.6706 0.1622 0.3810
H16 H -0.6098 0.1612 0.2501
H17 H -0.5984 0.2693 0.2955
N6 N -0.4945(19) 0.095(3) 0.3811(16)
C22A C -0.6069(18) -0.117(2) 0.6992(19)
H14A H -0.6913 -0.0731 0.6922
O8A O -0.5383(18) -0.226(2) 0.7940(19)
C23A C -0.3989(15) -0.178(2) 0.6773(18)
H15A H -0.3294 -0.1622 0.6190
H16A H -0.3902 -0.1612 0.7499
H17A H -0.4016 -0.2693 0.7045
N6A N -0.5055(19) -0.095(3) 0.6189(16)
O7 O 0.1488(15) 0.4345(15) -0.0616(15)
Co1 Co 0.0000 0.0000 -0.5000
Co2 Co 0.0000 0.5000 -0.5000
Co3 Co 0.0000 0.0000 0.0000
O1 O 0.0418(4) -0.0753(3) -0.3138(3)
O2 O 0.0483(3) -0.1017(3) -0.1190(3)
O3 O 0.0814(3) 0.1510(3) -0.5458(3)
O4 O 0.0455(3) 0.3623(3) -0.5847(3)
N1 N -0.0057(4) 0.3302(4) -0.3480(4)
N2 N -0.0104(4) 0.1543(4) -0.1712(4)
N3 N 0.1742(4) -0.1250(4) -0.5276(4)
N4 N 0.8010(4) -0.4543(4) -0.5215(4)
N5 N 0.1898(4) -0.0025(5) 0.0106(4)
C1 C -0.0236(4) 0.2834(5) -0.2252(4)
H1 H -0.0440 0.3377 -0.1795
C2 C 0.0185(4) 0.1126(4) -0.2685(4)
C3 C 0.0216(4) 0.2220(4) -0.3781(4)
C4 C 0.0513(4) 0.2445(4) -0.5109(4)
C5 C 0.0381(4) -0.0292(4) -0.2352(4)
C6 C 0.2181(5) -0.2426(5) -0.4367(5)
H2 H 0.1649 -0.2756 -0.3682
C7 C 0.3364(5) -0.3185(6) -0.4374(6)
H3 H 0.3627 -0.4013 -0.3708
C8 C 0.4158(5) -0.2729(5) -0.5356(5)
C9 C 0.3703(5) -0.1524(6) -0.6322(5)
H4 H 0.4212 -0.1182 -0.7025
C10 C 0.2499(5) -0.0827(6) -0.6246(5)
H5 H 0.2201 -0.0013 -0.6915
C11 C 0.7466(5) -0.3822(6) -0.6299(6)
H6 H 0.7954 -0.3688 -0.7046
C12 C 0.6217(5) -0.3254(6) -0.6390(5)
H7 H 0.5872 -0.2746 -0.7186
C13 C 0.5477(5) -0.3428(5) -0.5326(5)
C14 C 0.6036(5) -0.4247(6) -0.4201(6)
H8 H 0.5563 -0.4447 -0.3443
C15 C 0.7288(5) -0.4768(6) -0.4193(6)
H9 H 0.7653 -0.5319 -0.3412
C16 C 0.2215(5) 0.1042(6) -0.0082(7)
H10 H 0.1583 0.1822 -0.0199
C17 C 0.3398(5) 0.1106(6) -0.0121(7)
H11 H 0.3564 0.1907 -0.0249
C18 C 0.4353(5) -0.0015(6) 0.0030(5)
C19 C 0.4025(6) -0.1146(7) 0.0262(8)
H12 H 0.4635 -0.1945 0.0399
C20 C 0.2800(5) -0.1116(7) 0.0294(7)
H13 H 0.2597 -0.1907 0.0457
Co2_2 Co 0.0000 -0.5000 -0.5000
Co2_3 Co 1.0000 -0.5000 -0.5000
Co2_4 Co -1.0000 0.5000 -0.5000
Co3_2 Co 0.0000 0.0000 -1.0000
Co3_3 Co 1.0000 0.0000 0.0000
O1A O -0.0418(4) 0.0753(3) -0.6862(3)
O2A O -0.0483(3) 0.1017(3) 0.1190(3)
O2A_2 O -0.0483(3) 0.1017(3) -0.8810(3)
O3A O -0.0814(3) -0.1510(3) -0.4542(3)
O4A O -0.0455(3) 0.6377(3) -0.4153(3)
O4A_2 O -0.0455(3) -0.3623(3) -0.4153(3)
N1A N 0.0057(4) 0.6698(4) -0.6520(4)
N1A_2 N 0.0057(4) -0.3302(4) -0.6520(4)
N2A N 0.0104(4) -0.1543(4) 0.1712(4)
N2A_2 N 0.0104(4) -0.1543(4) -0.8288(4)
N3A N -0.1742(4) 0.1250(4) -0.4724(4)
N4A N 0.1990(4) 0.4543(4) -0.4785(4)
N4_2 N -0.1990(4) 0.5457(4) -0.5215(4)
N4A_2 N -0.8010(4) 0.4543(4) -0.4785(4)
N5A N -0.1898(4) 0.0025(5) -0.0106(4)
N5A_2 N 0.8102(4) 0.0025(5) -0.0106(4)
C1A C 0.0236(4) -0.2834(5) -0.7748(4)
H1A H 0.0440 -0.3377 -0.8205
C2A C -0.0185(4) -0.1126(4) -0.7315(4)
C3A C -0.0216(4) -0.2220(4) -0.6219(4)
C4A C -0.0513(4) -0.2445(4) -0.4891(4)
C5A C -0.0381(4) 0.0292(4) -0.7648(4)
C6A C -0.2181(5) 0.2426(5) -0.5633(5)
H2A H -0.1649 0.2756 -0.6318
C7A C -0.3364(5) 0.3185(6) -0.5626(6)
H3A H -0.3627 0.4013 -0.6292
C8A C -0.4158(5) 0.2729(5) -0.4644(5)
C9A C -0.3703(5) 0.1524(6) -0.3678(5)
H4A H -0.4212 0.1182 -0.2975
C10A C -0.2499(5) 0.0827(6) -0.3754(5)
H5A H -0.2201 0.0013 -0.3085
C11A C -0.7466(5) 0.3822(6) -0.3701(6)
H6A H -0.7954 0.3688 -0.2954
C12A C -0.6217(5) 0.3254(6) -0.3610(5)
H7A H -0.5872 0.2746 -0.2814
C13A C -0.5477(5) 0.3428(5) -0.4674(5)
C14A C -0.6036(5) 0.4247(6) -0.5799(6)
H8A H -0.5563 0.4447 -0.6557
C15A C -0.7288(5) 0.4768(6) -0.5807(6)
H9A H -0.7653 0.5319 -0.6588
C16A C 0.7785(5) -0.1042(6) 0.0082(7)
H10A H 0.8417 -0.1822 0.0199
C17A C 0.6602(5) -0.1106(6) 0.0121(7)
H11A H 0.6436 -0.1907 0.0249
C18A C 0.5647(5) 0.0015(6) -0.0030(5)
C19A C 0.5975(6) 0.1146(7) -0.0262(8)
H12A H 0.5365 0.1945 -0.0399
C20A C 0.7200(5) 0.1116(7) -0.0294(7)
H13A H 0.7403 0.1907 -0.0457
loop_
_geom_bond_atom_site_label_1
_geom_bond_atom_site_label_2
_geom_bond_site_symmetry_1
_geom_bond_site_symmetry_2
Co1 O1 1_555 1_555
Co2 O4 1_555 1_555
Co3 O2 1_555 1_555
O1 C5 1_555 1_555
O2 C5 1_555 1_555
O3 Co1 1_555 1_555
O4 C4 1_555 1_555
N1 Co2 1_555 1_555
N2 Co3 1_555 1_555
N3 Co1 1_555 1_555
N4 C11 1_555 1_555
N5 Co3 1_555 1_555
C1 N1 1_555 1_555
H1 C1 1_555 1_555
C2 N2 1_555 1_555
C3 N1 1_555 1_555
C4 O3 1_555 1_555
C5 C2 1_555 1_555
C6 N3 1_555 1_555
H2 C6 1_555 1_555
C7 C6 1_555 1_555
H3 C7 1_555 1_555
C8 C7 1_555 1_555
C9 C8 1_555 1_555
H4 C9 1_555 1_555
C10 N3 1_555 1_555
H5 C10 1_555 1_555
C11 H6 1_555 1_555
C12 C11 1_555 1_555
H7 C12 1_555 1_555
C13 C8 1_555 1_555
C14 C13 1_555 1_555
H8 C14 1_555 1_555
C15 N4 1_555 1_555
H9 C15 1_555 1_555
C16 N5 1_555 1_555
H10 C16 1_555 1_555
C17 C16 1_555 1_555
H11 C17 1_555 1_555
C18 C17 1_555 1_555
C19 C18 1_555 1_555
H12 C19 1_555 1_555
C20 N5 1_555 1_555
H13 C20 1_555 1_555
C21 N6 1_555 1_555
C22 H14 1_555 1_555
O8 C22 1_555 1_555
C23 H15 1_555 1_555
H16 C23 1_555 1_555
H17 C23 1_555 1_555
N6 C22 1_555 1_555
Co2_2 O4A_2 1_555 1_555
Co2_3 N4 1_555 1_555
Co2_4 N4A_2 1_555 1_555
Co3_2 O2A_2 1_555 1_555
Co3_3 N5A_2 1_555 1_555
O1A Co1 1_555 1_555
O2A Co3 1_555 1_555
O2A_2 C5A 1_555 1_555
O3A Co1 1_555 1_555
O4A Co2 1_555 1_555
O4A_2 C4A 1_555 1_555
N1A Co2 1_555 1_555
N1A_2 Co2_2 1_555 1_555
N2A Co3 1_555 1_555
N2A_2 Co3_2 1_555 1_555
N3A Co1 1_555 1_555
N4A Co2 1_555 1_555
N4_2 Co2 1_555 1_555
N4A_2 C11A 1_555 1_555
N5A Co3 1_555 1_555
N5A_2 C16A 1_555 1_555
C1A N1A_2 1_555 1_555
H1A C1A 1_555 1_555
C2A N2A_2 1_555 1_555
C3A N1A_2 1_555 1_555
C4A O3A 1_555 1_555
C5A O1A 1_555 1_555
C6A N3A 1_555 1_555
H2A C6A 1_555 1_555
C7A C6A 1_555 1_555
H3A C7A 1_555 1_555
C8A C7A 1_555 1_555
C9A C8A 1_555 1_555
H4A C9A 1_555 1_555
C10A N3A 1_555 1_555
H5A C10A 1_555 1_555
C11A H6A 1_555 1_555
C12A C11A 1_555 1_555
H7A C12A 1_555 1_555
C13A C8A 1_555 1_555
C14A C13A 1_555 1_555
H8A C14A 1_555 1_555
C15A N4A_2 1_555 1_555
H9A C15A 1_555 1_555
C16A H10A 1_555 1_555
C17A C16A 1_555 1_555
H11A C17A 1_555 1_555
C18A C18 1_555 1_555
C19A C18A 1_555 1_555
H12A C19A 1_555 1_555
C20A N5A_2 1_555 1_555
H13A C20A 1_555 1_555
C22A H14A 1_555 1_555
O8A C22A 1_555 1_555
C23A H15A 1_555 1_555
H16A C23A 1_555 1_555
H17A C23A 1_555 1_555
N6A C21 1_555 1_555
N2 C1 1_555 1_555
C2 C3 1_555 1_555
C3 C4 1_555 1_555
C9 C10 1_555 1_555
C12 C13 1_555 1_555
C14 C15 1_555 1_555
C19 C20 1_555 1_555
C23 N6 1_555 1_555
N2A_2 C1A 1_555 1_555
C2A C3A 1_555 1_555
C2A C5A 1_555 1_555
C3A C4A 1_555 1_555
C9A C10A 1_555 1_555
C12A C13A 1_555 1_555
C14A C15A 1_555 1_555
C17A C18A 1_555 1_555
C19A C20A 1_555 1_555
C22A N6A 1_555 1_555
C23A N6A 1_555 1_555

#END
