
#######################################################################
#
#                 Cambridge Crystallographic Data Centre
#                                CCDC 
#
#######################################################################
#
# If this CIF has been generated from an entry in the Cambridge 
# Structural Database, then it will include bibliographic, chemical, 
# crystal, experimental, refinement or atomic coordinate data resulting 
# from the CCDC's data processing and validation procedures.
#
#######################################################################

data_KAVRIK
_symmetry_cell_setting           orthorhombic
_symmetry_space_group_name_H-M   'P b c n'
_symmetry_Int_Tables_number      60
_space_group_name_Hall           '-P 2n 2ab'
loop_
_symmetry_equiv_pos_site_id
_symmetry_equiv_pos_as_xyz
1 x,y,z
2 1/2-x,1/2-y,1/2+z
3 -x,y,1/2-z
4 1/2+x,1/2-y,-z
5 -x,-y,-z
6 1/2+x,1/2+y,1/2-z
7 x,-y,1/2+z
8 1/2-x,1/2+y,z
_cell_length_a                   9.8715(9)
_cell_length_b                   18.2678(15)
_cell_length_c                   18.1613(16)
_cell_angle_alpha                90
_cell_angle_beta                 90
_cell_angle_gamma                90
_cell_volume                     3275.04
loop_
_atom_site_label
_atom_site_type_symbol
_atom_site_fract_x
_atom_site_fract_y
_atom_site_fract_z
Mg1 Mg -0.07905(10) 0.31992(5) -0.06053(5)
Mg2 Mg 0.11130(9) 0.21687(5) 0.03545(5)
Mg3 Mg 0.0000 0.31223(8) -0.2500
Mg4 Mg 0.0000 0.5000 0.0000
O1 O -0.15281(19) 0.31303(11) -0.16782(10)
O2 O -0.3735(2) 0.29469(12) -0.14608(11)
O3 O -0.25585(19) 0.37100(11) -0.02240(11)
O4 O -0.2063(2) 0.48969(11) -0.00802(12)
O5 O -0.20014(19) 0.23023(11) -0.03133(11)
O6 O -0.0575(2) 0.15389(11) 0.02608(12)
O7 O 0.0030(2) 0.42815(12) 0.08680(11)
O8 O 0.0054(2) 0.31346(10) 0.04506(11)
O9 O 0.08166(19) 0.24740(11) -0.07548(10)
O10 O 0.1074(2) 0.23245(12) -0.19687(11)
O11 O 0.0261(2) 0.41571(11) -0.07917(10)
O12 O 0.1037(2) 0.38970(12) -0.19186(11)
C1 C -0.2763(3) 0.30614(18) -0.18731(18)
C2 C -0.2865(3) 0.43809(17) -0.01253(17)
C3 C -0.1691(3) 0.17038(18) -0.00021(18)
C4 C 0.0169(3) 0.36161(19) 0.09512(17)
C5 C 0.1338(3) 0.21842(19) -0.13216(18)
C6 C 0.0999(3) 0.42702(19) -0.13569(17)
H1 H -0.287(3) 0.3126(15) -0.2380(18)
H2 H -0.384(4) 0.4496(17) -0.0063(18)
H3 H -0.233(3) 0.1352(17) 0.0049(15)
H4 H 0.036(2) 0.3463(14) 0.1444(15)
H5 H 0.208(4) 0.1779(18) -0.1201(18)
H6 H 0.158(3) 0.471(2) -0.1317(18)
Mg1B Mg 0.07905(10) 0.31992(5) -0.43947(5)
Mg1D Mg 0.07905(10) 0.68008(5) 0.06053(5)
Mg1C Mg 0.42095(10) 0.18008(5) 0.06053(5)
Mg2A Mg 0.38870(9) 0.28313(5) -0.46455(5)
Mg2C Mg -0.38870(9) 0.28313(5) -0.03545(5)
Mg2B Mg -0.11130(9) 0.21687(5) -0.53545(5)
Mg2G Mg 0.38870(9) 0.71687(5) 0.03545(5)
Mg2C_2 Mg 0.61130(9) 0.28313(5) -0.03545(5)
Mg4B Mg 0.0000 0.5000 -0.5000
Mg4C Mg 0.5000 0.0000 0.0000
O1B O 0.15281(19) 0.31303(11) -0.33218(10)
O2B O 0.3735(2) 0.29469(12) -0.35392(11)
O2C O 0.1265(2) 0.20531(12) 0.14608(11)
O2A O -0.1265(2) 0.20531(12) -0.64608(11)
O3D O 0.25585(19) 0.62900(11) 0.02240(11)
O3B O 0.25585(19) 0.37100(11) -0.47760(11)
O3C O 0.24415(19) 0.12900(11) 0.02240(11)
O3A O -0.24415(19) 0.12900(11) -0.52240(11)
O4D O 0.2063(2) 0.51031(11) 0.00802(12)
O4C O 0.2937(2) 0.01031(11) 0.00802(12)
O5B O 0.20014(19) 0.23023(11) -0.46867(11)
O5C O 0.29986(19) 0.26977(11) 0.03133(11)
O5A O -0.29986(19) 0.26977(11) -0.53133(11)
O6B O 0.0575(2) 0.15389(11) -0.52608(12)
O6C O 0.4425(2) 0.34611(11) -0.02608(12)
O7D O -0.0030(2) 0.57185(12) -0.08680(11)
O8B O -0.0054(2) 0.31346(10) -0.54506(11)
O9B O -0.08166(19) 0.24740(11) -0.42452(10)
O10B O -0.1074(2) 0.23245(12) -0.30313(11)
O11B O -0.0261(2) 0.41571(11) -0.42083(10)
O11D O -0.0261(2) 0.58429(11) 0.07917(10)
O12B O -0.1037(2) 0.38970(12) -0.30814(11)
C1B C 0.2763(3) 0.30614(18) -0.31269(18)
C2D C 0.2865(3) 0.56191(17) 0.01253(17)
C2C C 0.2135(3) 0.06191(17) 0.01253(17)
C3C C 0.3309(3) 0.32962(18) 0.00021(18)
C5B C -0.1338(3) 0.21842(19) -0.36784(18)
C6B C -0.0999(3) 0.42702(19) -0.36431(17)
H1B H 0.287(3) 0.3126(15) -0.2620(18)
H2D H 0.384(4) 0.5504(17) 0.0063(18)
H2C H 0.116(4) 0.0504(17) 0.0063(18)
H3C H 0.267(3) 0.3648(17) -0.0049(15)
H5B H -0.208(4) 0.1779(18) -0.3799(18)
H6B H -0.158(3) 0.471(2) -0.3683(18)
loop_
_geom_bond_atom_site_label_1
_geom_bond_atom_site_label_2
_geom_bond_site_symmetry_1
_geom_bond_site_symmetry_2
Mg1 O1 1_555 1_555
Mg2 O6 1_555 1_555
Mg3 O1 1_555 1_555
Mg4 O4 1_555 1_555
O1 C1 1_555 1_555
O2 C1 1_555 1_555
O3 Mg1 1_555 1_555
O4 C2 1_555 1_555
O5 Mg1 1_555 1_555
O6 C3 1_555 1_555
O7 Mg4 1_555 1_555
O8 Mg1 1_555 1_555
O9 Mg1 1_555 1_555
O10 Mg3 1_555 1_555
O11 Mg1 1_555 1_555
O12 Mg3 1_555 1_555
C1 H1 1_555 1_555
C2 O3 1_555 1_555
C3 O5 1_555 1_555
C4 O7 1_555 1_555
C5 O9 1_555 1_555
C6 O11 1_555 1_555
H2 C2 1_555 1_555
H3 C3 1_555 1_555
H4 C4 1_555 1_555
H5 C5 1_555 1_555
H6 C6 1_555 1_555
Mg1B O1B 1_555 1_555
Mg1D O3D 1_555 1_555
Mg1C O3C 1_555 1_555
Mg2A O2B 1_555 1_555
Mg2C O2 1_555 1_555
Mg2B O2A 1_555 1_555
Mg2G O3D 1_555 1_555
Mg2C_2 O6C 1_555 1_555
Mg4B O11B 1_555 1_555
Mg4C O4C 1_555 1_555
O1B Mg3 1_555 1_555
O2B C1B 1_555 1_555
O2C Mg2 1_555 1_555
O3D C2D 1_555 1_555
O3B Mg1B 1_555 1_555
O3C Mg2 1_555 1_555
O3A Mg2B 1_555 1_555
O4D Mg4 1_555 1_555
O4C C2C 1_555 1_555
O5B Mg1B 1_555 1_555
O5C Mg2 1_555 1_555
O5A Mg2B 1_555 1_555
O6B Mg2B 1_555 1_555
O6C C3C 1_555 1_555
O7D Mg4 1_555 1_555
O8B Mg1B 1_555 1_555
O9B Mg1B 1_555 1_555
O10B Mg3 1_555 1_555
O11B Mg1B 1_555 1_555
O11D Mg4 1_555 1_555
O12B Mg3 1_555 1_555
C1B O1B 1_555 1_555
C2D O4D 1_555 1_555
C2C O3C 1_555 1_555
C3C O5C 1_555 1_555
C5B O9B 1_555 1_555
C6B O11B 1_555 1_555
H1B C1B 1_555 1_555
H2D C2D 1_555 1_555
H2C C2C 1_555 1_555
H3C C3C 1_555 1_555
H5B C5B 1_555 1_555
H6B C6B 1_555 1_555
Mg2 O8 1_555 1_555
Mg2 O9 1_555 1_555
Mg4 O11 1_555 1_555
O3 Mg2C 1_555 1_555
O5 Mg2C 1_555 1_555
O8 C4 1_555 1_555
O10 C5 1_555 1_555
O12 C6 1_555 1_555
Mg1D O11D 1_555 1_555
Mg1C O5C 1_555 1_555
Mg2A O3B 1_555 1_555
Mg2A O5B 1_555 1_555
Mg2B O8B 1_555 1_555
Mg2B O9B 1_555 1_555
O10B C5B 1_555 1_555
O12B C6B 1_555 1_555

#END
