
#######################################################################
#
#                 Cambridge Crystallographic Data Centre
#                                CCDC 
#
#######################################################################
#
# If this CIF has been generated from an entry in the Cambridge 
# Structural Database, then it will include bibliographic, chemical, 
# crystal, experimental, refinement or atomic coordinate data resulting 
# from the CCDC's data processing and validation procedures.
#
#######################################################################

data_KAXQOR
_symmetry_cell_setting           monoclinic
_symmetry_space_group_name_H-M   'P 21/n'
_symmetry_Int_Tables_number      14
_space_group_name_Hall           '-P 2yn'
loop_
_symmetry_equiv_pos_site_id
_symmetry_equiv_pos_as_xyz
1 x,y,z
2 1/2-x,1/2+y,1/2-z
3 -x,-y,-z
4 1/2+x,1/2-y,1/2+z
_cell_length_a                   11.8783(5)
_cell_length_b                   5.5485(2)
_cell_length_c                   22.7982(8)
_cell_angle_alpha                90
_cell_angle_beta                 101.535(4)
_cell_angle_gamma                90
_cell_volume                     1472.21
loop_
_atom_site_label
_atom_site_type_symbol
_atom_site_fract_x
_atom_site_fract_y
_atom_site_fract_z
C1 C 0.15720(19) 0.2285(4) 0.46549(9)
C2 C 0.26541(19) 0.2885(4) 0.44383(10)
C3 C 0.3541(2) 0.1226(4) 0.45165(11)
H1 H 0.3444 -0.0273 0.4682
C4 C 0.2785(2) 0.5081(4) 0.41688(12)
H2 H 0.2186 0.6189 0.4106
C5 C 0.4572(2) 0.1769(5) 0.43511(12)
H3 H 0.5169 0.0656 0.4409
C6 C 0.3806(2) 0.5630(4) 0.39929(12)
H4 H 0.3891 0.7088 0.3805
C7 C 0.46975(18) 0.3985(4) 0.40994(10)
C8 C 0.59822(19) 0.4051(4) 0.31770(10)
C9 C 0.6438(2) 0.1896(4) 0.30285(10)
H5 H 0.6747 0.0789 0.3323
C10 C 0.5509(2) 0.5710(4) 0.27457(11)
H6 H 0.5187 0.7131 0.2853
C11 C 0.6424(2) 0.1421(4) 0.24285(10)
H7 H 0.6716 -0.0032 0.2320
C12 C 0.5521(2) 0.5222(4) 0.21490(11)
H8 H 0.5218 0.6336 0.1855
C13 C 0.59815(19) 0.3087(4) 0.19904(10)
C14 C 0.60598(19) 0.2616(4) 0.13440(10)
O1 O 0.13574(15) 0.0116(3) 0.47262(8)
O2 O 0.68850(13) 0.3225(3) 0.42994(7)
O3 O 0.61667(15) 0.7347(3) 0.39984(8)
O4 O 0.60486(16) 0.4416(3) 0.10211(8)
O5 O 0.61505(16) 0.0477(3) 0.11950(8)
S1 S 0.60435(5) 0.47838(10) 0.39360(2)
Ca1 Ca 0.10347(4) -0.27084(8) 0.543170(19)
O6 O 0.09323(13) 0.4010(3) 0.47421(7)
O2B O 0.31150(13) -0.3225(3) 0.57006(7)
O4C O 0.10486(16) 0.0584(3) 0.60211(8)
O5C O 0.11505(16) -0.5477(3) 0.61950(8)
Ca1B Ca 0.89653(4) 0.27084(8) 0.456830(19)
Ca1C Ca 0.60347(4) 0.77084(8) 0.043170(19)
Ca1C_2 Ca 0.60347(4) -0.22916(8) 0.043170(19)
Ca1B_2 Ca -0.10347(4) 0.27084(8) 0.456830(19)
Ca1_2 Ca 0.10347(4) 0.72916(8) 0.543170(19)
O6B O -0.09323(13) -0.4010(3) 0.52579(7)
O6_2 O 0.09323(13) -0.5990(3) 0.47421(7)
loop_
_geom_bond_atom_site_label_1
_geom_bond_atom_site_label_2
_geom_bond_site_symmetry_1
_geom_bond_site_symmetry_2
C1 C2 1_555 1_555
C2 C3 1_555 1_555
C3 H1 1_555 1_555
C4 C2 1_555 1_555
H2 C4 1_555 1_555
C5 C3 1_555 1_555
H3 C5 1_555 1_555
C6 C4 1_555 1_555
H4 C6 1_555 1_555
C7 C5 1_555 1_555
C8 C9 1_555 1_555
C9 H5 1_555 1_555
C10 C8 1_555 1_555
H6 C10 1_555 1_555
C11 C9 1_555 1_555
H7 C11 1_555 1_555
C12 C10 1_555 1_555
H8 C12 1_555 1_555
C13 C11 1_555 1_555
C14 C13 1_555 1_555
O1 C1 1_555 1_555
O2 S1 1_555 1_555
O3 S1 1_555 1_555
O4 C14 1_555 1_555
O5 C14 1_555 1_555
S1 C7 1_555 1_555
Ca1 O1 1_555 1_555
O6 C1 1_555 1_555
O2B Ca1 1_555 1_555
O4C Ca1 1_555 1_555
O5C Ca1 1_555 1_555
Ca1B O2 1_555 1_555
Ca1C O4 1_555 1_555
Ca1C_2 O5 1_555 1_555
Ca1B_2 O6 1_555 1_555
Ca1_2 O6 1_555 1_555
O6B Ca1 1_555 1_555
O6_2 Ca1 1_555 1_555
C6 C7 1_555 1_555
C8 S1 1_555 1_555
C12 C13 1_555 1_555

#END
