
#######################################################################
#
#                 Cambridge Crystallographic Data Centre
#                                CCDC 
#
#######################################################################
#
# If this CIF has been generated from an entry in the Cambridge 
# Structural Database, then it will include bibliographic, chemical, 
# crystal, experimental, refinement or atomic coordinate data resulting 
# from the CCDC's data processing and validation procedures.
#
#######################################################################

data_KEFZOM
_symmetry_cell_setting           tetragonal
_symmetry_space_group_name_H-M   'P -4'
_symmetry_Int_Tables_number      81
_space_group_name_Hall           'P -4'
loop_
_symmetry_equiv_pos_site_id
_symmetry_equiv_pos_as_xyz
1 x,y,z
2 -x,-y,z
3 y,-x,-z
4 -y,x,-z
_cell_length_a                   14.3520(3)
_cell_length_b                   14.3520(3)
_cell_length_c                   6.2985(3)
_cell_angle_alpha                90
_cell_angle_beta                 90
_cell_angle_gamma                90
_cell_volume                     1297.36
loop_
_atom_site_label
_atom_site_type_symbol
_atom_site_fract_x
_atom_site_fract_y
_atom_site_fract_z
Co1 Co 0.5000 0.5000 0.0000
Co2 Co 1.0000 1.0000 -1.5000
C1 C 0.5387(2) 0.6879(2) -0.1703(6)
H1 H 0.4947 0.7142 -0.0798
C2 C 0.6471(2) 0.6736(2) -0.4148(6)
C3 C 0.6287(2) 0.5893(2) -0.3286(6)
H2 H 0.6573 0.5337 -0.3669
C4 C 0.7075(2) 0.7045(2) -0.5890(6)
C5 C 0.6770(2) 0.7736(2) -0.7291(6)
H3 H 0.6185 0.8003 -0.7111
C6 C 0.7336(2) 0.8027(2) -0.8945(6)
H4 H 0.7122 0.8481 -0.9878
C7 C 0.8224(2) 0.7646(2) -0.9233(6)
C8 C 0.8514(2) 0.6954(2) -0.7852(7)
H5 H 0.9098 0.6686 -0.8038
C9 C 0.7954(2) 0.6653(2) -0.6201(7)
H6 H 0.8165 0.6187 -0.5295
C10 C 0.8821(2) 0.8017(2) -1.0926(6)
C11 C 0.8875(2) 0.8875(2) -1.1784(6)
H7 H 0.8498 0.9376 -1.1410
C12 C 0.9933(2) 0.8054(2) -1.3318(6)
H8 H 1.0419 0.7863 -1.4194
N1 N 0.56058(19) 0.59859(18) -0.1746(5)
N2 N 0.58833(19) 0.73542(18) -0.3133(5)
H9 H 0.5844 0.7942 -0.3380
N3 N 0.95729(18) 0.89052(18) -1.3305(5)
N4 N 0.9506(2) 0.75102(18) -1.1907(6)
H10 H 0.9638 0.6936 -1.1653
Co2_2 Co 0.0000 0.0000 -1.5000
Co2_3 Co 1.0000 0.0000 1.5000
Co2_4 Co 0.0000 1.0000 1.5000
C1A C 0.4613(2) 0.3121(2) -0.1703(6)
C1B C 0.6879(2) 0.4613(2) 0.1703(6)
C1C C 0.3121(2) 0.5387(2) 0.1703(6)
H1A H 0.5053 0.2858 -0.0798
H1B H 0.7142 0.5053 0.0798
H1C H 0.2858 0.4947 0.0798
C2A C 0.3529(2) 0.3264(2) -0.4148(6)
C2B C 0.6736(2) 0.3529(2) 0.4148(6)
C2C C 0.3264(2) 0.6471(2) 0.4148(6)
C3A C 0.3713(2) 0.4107(2) -0.3286(6)
C3B C 0.5893(2) 0.3713(2) 0.3286(6)
C3C C 0.4107(2) 0.6287(2) 0.3286(6)
H2A H 0.3427 0.4663 -0.3669
H2B H 0.5337 0.3427 0.3669
H2C H 0.4663 0.6573 0.3669
C4A C 0.2925(2) 0.2955(2) -0.5890(6)
C4B C 0.7045(2) 0.2925(2) 0.5890(6)
C4C C 0.2955(2) 0.7075(2) 0.5890(6)
C5A C 0.3230(2) 0.2264(2) -0.7291(6)
C5B C 0.7736(2) 0.3230(2) 0.7291(6)
C5C C 0.2264(2) 0.6770(2) 0.7291(6)
H3A H 0.3815 0.1997 -0.7111
H3B H 0.8003 0.3815 0.7111
H3C H 0.1997 0.6185 0.7111
C6A C 0.2664(2) 0.1973(2) -0.8945(6)
C6B C 0.8027(2) 0.2664(2) 0.8945(6)
C6C C 0.1973(2) 0.7336(2) 0.8945(6)
H4A H 0.2878 0.1519 -0.9878
H4B H 0.8481 0.2878 0.9878
H4C H 0.1519 0.7122 0.9878
C7A C 0.1776(2) 0.2354(2) -0.9233(6)
C7B C 0.7646(2) 0.1776(2) 0.9233(6)
C7C C 0.2354(2) 0.8224(2) 0.9233(6)
C8A C 0.1486(2) 0.3046(2) -0.7852(7)
C8B C 0.6954(2) 0.1486(2) 0.7852(7)
C8C C 0.3046(2) 0.8514(2) 0.7852(7)
H5A H 0.0902 0.3314 -0.8038
H5B H 0.6686 0.0902 0.8038
H5C H 0.3314 0.9098 0.8038
C9A C 0.2046(2) 0.3347(2) -0.6201(7)
C9B C 0.6653(2) 0.2046(2) 0.6201(7)
C9C C 0.3347(2) 0.7954(2) 0.6201(7)
H6A H 0.1835 0.3813 -0.5295
H6B H 0.6187 0.1835 0.5295
H6C H 0.3813 0.8165 0.5295
C10A C 0.1179(2) 0.1983(2) -1.0926(6)
C10B C 0.8017(2) 0.1179(2) 1.0926(6)
C10C C 0.1983(2) 0.8821(2) 1.0926(6)
C11A C 0.1125(2) 0.1125(2) -1.1784(6)
C11B C 0.8875(2) 0.1125(2) 1.1784(6)
C11C C 0.1125(2) 0.8875(2) 1.1784(6)
H7A H 0.1502 0.0624 -1.1410
H7B H 0.9376 0.1502 1.1410
H7C H 0.0624 0.8498 1.1410
C12A C 0.0067(2) 0.1946(2) -1.3318(6)
C12B C 0.8054(2) 0.0067(2) 1.3318(6)
C12C C 0.1946(2) 0.9933(2) 1.3318(6)
H8A H -0.0419 0.2137 -1.4194
H8B H 0.7863 -0.0419 1.4194
H8C H 0.2137 1.0419 1.4194
N1A N 0.43942(19) 0.40141(18) -0.1746(5)
N1B N 0.59859(18) 0.43942(19) 0.1746(5)
N1C N 0.40141(18) 0.56058(19) 0.1746(5)
N2A N 0.41167(19) 0.26458(18) -0.3133(5)
N2B N 0.73542(18) 0.41167(19) 0.3133(5)
N2C N 0.26458(18) 0.58833(19) 0.3133(5)
H9A H 0.4156 0.2058 -0.3380
H9B H 0.7942 0.4156 0.3380
H9C H 0.2058 0.5844 0.3380
N3A N 0.04271(18) 0.10948(18) -1.3305(5)
N3B N 0.89052(18) 0.04271(18) 1.3305(5)
N3C N 0.10948(18) 0.95729(18) 1.3305(5)
N3A_2 N 1.04271(18) 1.10948(18) -1.3305(5)
N3B_2 N 0.89052(18) 1.04271(18) -1.6695(5)
N3C_2 N 1.10948(18) 0.95729(18) -1.6695(5)
N4A N 0.0494(2) 0.24898(18) -1.1907(6)
N4B N 0.75102(18) 0.0494(2) 1.1907(6)
N4C N 0.24898(18) 0.9506(2) 1.1907(6)
H10A H 0.0362 0.3064 -1.1653
H10B H 0.6936 0.0362 1.1653
H10C H 0.3064 0.9638 1.1653
S1 S 0.5000 1.0000 0.1828(3)
O1 O 0.5816(2) 0.9781(3) 0.0680(6)
O3 O 0.5273(6) 1.1172(6) 0.2309(16)
O1A O 0.4184(2) 1.0219(3) 0.0680(6)
O3A O 0.4727(6) 0.8828(6) 0.2309(16)
O4 O 0.92043(18) 0.3904(2) 0.3311(5)
O2? O 0.4742(5) 0.9701(5) 0.3853(12)
loop_
_geom_bond_atom_site_label_1
_geom_bond_atom_site_label_2
_geom_bond_site_symmetry_1
_geom_bond_site_symmetry_2
Co1 N1 1_555 1_555
Co2 N3 1_555 1_555
C1 H1 1_555 1_555
C2 C3 1_555 1_555
C3 H2 1_555 1_555
C4 C2 1_555 1_555
C5 C4 1_555 1_555
H3 C5 1_555 1_555
C6 C5 1_555 1_555
H4 C6 1_555 1_555
C7 C6 1_555 1_555
C8 C7 1_555 1_555
H5 C8 1_555 1_555
C9 C4 1_555 1_555
H6 C9 1_555 1_555
C10 C7 1_555 1_555
C11 C10 1_555 1_555
H7 C11 1_555 1_555
C12 H8 1_555 1_555
N1 C1 1_555 1_555
N2 C1 1_555 1_555
H9 N2 1_555 1_555
N3 C11 1_555 1_555
N4 C10 1_555 1_555
H10 N4 1_555 1_555
S1 O1 1_555 1_555
O3 S1 1_555 1_555
Co2_2 N3A 1_555 1_555
Co2_3 N3B 1_555 1_555
Co2_4 N3C 1_555 1_555
C1A H1A 1_555 1_555
C1B H1B 1_555 1_555
C1C H1C 1_555 1_555
C2A C3A 1_555 1_555
C2B C3B 1_555 1_555
C2C C3C 1_555 1_555
C3A H2A 1_555 1_555
C3B H2B 1_555 1_555
C3C H2C 1_555 1_555
C4A C2A 1_555 1_555
C4B C2B 1_555 1_555
C4C C2C 1_555 1_555
C5A C4A 1_555 1_555
C5B C4B 1_555 1_555
C5C C4C 1_555 1_555
H3A C5A 1_555 1_555
H3B C5B 1_555 1_555
H3C C5C 1_555 1_555
C6A C5A 1_555 1_555
C6B C5B 1_555 1_555
C6C C5C 1_555 1_555
H4A C6A 1_555 1_555
H4B C6B 1_555 1_555
H4C C6C 1_555 1_555
C7A C6A 1_555 1_555
C7B C6B 1_555 1_555
C7C C6C 1_555 1_555
C8A C7A 1_555 1_555
C8B C7B 1_555 1_555
C8C C7C 1_555 1_555
H5A C8A 1_555 1_555
H5B C8B 1_555 1_555
H5C C8C 1_555 1_555
C9A C4A 1_555 1_555
C9B C4B 1_555 1_555
C9C C4C 1_555 1_555
H6A C9A 1_555 1_555
H6B C9B 1_555 1_555
H6C C9C 1_555 1_555
C10A C7A 1_555 1_555
C10B C7B 1_555 1_555
C10C C7C 1_555 1_555
C11A C10A 1_555 1_555
C11B C10B 1_555 1_555
C11C C10C 1_555 1_555
H7A C11A 1_555 1_555
H7B C11B 1_555 1_555
H7C C11C 1_555 1_555
C12A H8A 1_555 1_555
C12B H8B 1_555 1_555
C12C H8C 1_555 1_555
N1A Co1 1_555 1_555
N1B Co1 1_555 1_555
N1C Co1 1_555 1_555
N2A C1A 1_555 1_555
N2B C1B 1_555 1_555
N2C C1C 1_555 1_555
H9A N2A 1_555 1_555
H9B N2B 1_555 1_555
H9C N2C 1_555 1_555
N3A C11A 1_555 1_555
N3B C11B 1_555 1_555
N3C C11C 1_555 1_555
N3A_2 Co2 1_555 1_555
N3B_2 Co2 1_555 1_555
N3C_2 Co2 1_555 1_555
N4A C10A 1_555 1_555
N4B C10B 1_555 1_555
N4C C10C 1_555 1_555
H10A N4A 1_555 1_555
H10B N4B 1_555 1_555
H10C N4C 1_555 1_555
O1A S1 1_555 1_555
O3A S1 1_555 1_555
C2 N2 1_555 1_555
C3 N1 1_555 1_555
C8 C9 1_555 1_555
C12 N3 1_555 1_555
C12 N4 1_555 1_555
C1A N1A 1_555 1_555
C1B N1B 1_555 1_555
C1C N1C 1_555 1_555
C2A N2A 1_555 1_555
C2B N2B 1_555 1_555
C2C N2C 1_555 1_555
C3A N1A 1_555 1_555
C3B N1B 1_555 1_555
C3C N1C 1_555 1_555
C8A C9A 1_555 1_555
C8B C9B 1_555 1_555
C8C C9C 1_555 1_555
C12A N3A 1_555 1_555
C12A N4A 1_555 1_555
C12B N3B 1_555 1_555
C12B N4B 1_555 1_555
C12C N3C 1_555 1_555
C12C N4C 1_555 1_555

#END
