
#######################################################################
#
#                 Cambridge Crystallographic Data Centre
#                                CCDC 
#
#######################################################################
#
# If this CIF has been generated from an entry in the Cambridge 
# Structural Database, then it will include bibliographic, chemical, 
# crystal, experimental, refinement or atomic coordinate data resulting 
# from the CCDC's data processing and validation procedures.
#
#######################################################################

data_KEHDOS
_symmetry_cell_setting           triclinic
_symmetry_space_group_name_H-M   'P -1'
_symmetry_Int_Tables_number      2
_space_group_name_Hall           '-P 1'
loop_
_symmetry_equiv_pos_site_id
_symmetry_equiv_pos_as_xyz
1 x,y,z
2 -x,-y,-z
_cell_length_a                   6.5192(6)
_cell_length_b                   15.4818(11)
_cell_length_c                   16.9913(12)
_cell_angle_alpha                89.230(9)
_cell_angle_beta                 84.607(10)
_cell_angle_gamma                85.574(9)
_cell_volume                     1702.2
loop_
_atom_site_label
_atom_site_type_symbol
_atom_site_fract_x
_atom_site_fract_y
_atom_site_fract_z
Ag1 Ag 0.72880(8) 0.02035(4) 0.05761(2)
Ag2 Ag 0.74721(8) 0.53013(4) 0.43691(2)
N1 N 0.4399(9) 0.1034(4) 0.0728(3)
N2 N 0.3047(9) 0.1097(4) 0.0146(3)
N3 N 0.2371(8) 0.2213(3) 0.0946(2)
N4 N 0.4837(8) 0.4864(4) 0.3821(2)
N5 N 0.3736(9) 0.4228(4) 0.4234(3)
N6 N 0.2755(8) 0.4340(3) 0.3039(2)
N7 N 0.8551(9) 0.3950(4) -0.4934(3)
N8 N 0.9764(9) 0.3967(4) -0.4291(2)
N9 N 0.7865(8) 0.2862(3) -0.4140(2)
N10 N 0.8420(10) 0.0797(4) -0.0758(3)
N11 N 0.9925(9) 0.0221(4) -0.1139(3)
N12 N 0.7842(8) 0.0707(3) -0.2002(2)
C1 C 0.3947(11) 0.1696(4) 0.1195(3)
H1 H 0.4627 0.1799 0.1645
C2 C 0.1857(11) 0.1813(4) 0.0291(3)
H2 H 0.0794 0.2020 -0.0016
C3 C 0.4170(10) 0.4915(4) 0.3110(3)
H3 H 0.4620 0.5300 0.2710
C4 C 0.2538(11) 0.3931(4) 0.3756(3)
H4 H 0.1638 0.3494 0.3884
C5 C 0.1457(10) 0.3062(4) 0.1269(3)
C6 C 0.2568(10) 0.3260(4) 0.2005(3)
H5 H 0.2353 0.2809 0.2409
H6 H 0.4057 0.3272 0.1860
C7 C 0.1673(10) 0.4144(4) 0.2329(3)
C8 C 0.2022(11) 0.4849(4) 0.1702(3)
H7 H 0.3503 0.4869 0.1546
H8 H 0.1490 0.5416 0.1917
C9 C 0.0891(13) 0.4644(5) 0.0981(3)
H9 H 0.1085 0.5103 0.0575
C10 C 0.1845(11) 0.3764(4) 0.0642(3)
H10 H 0.1209 0.3631 0.0162
H11 H 0.3333 0.3791 0.0505
C11 C -0.0829(10) 0.3003(5) 0.1506(4)
H12 H -0.1032 0.2556 0.1913
H13 H -0.1532 0.2852 0.1047
C12 C -0.1719(12) 0.3901(6) 0.1830(4)
H14 H -0.3218 0.3884 0.1984
C13 C -0.0598(11) 0.4108(5) 0.2570(4)
H15 H -0.1170 0.4665 0.2794
H16 H -0.0810 0.3658 0.2975
C14 C -0.1379(13) 0.4589(5) 0.1213(4)
H17 H -0.1984 0.5150 0.1420
H18 H -0.2072 0.4457 0.0747
C15 C 0.7477(11) 0.3281(4) -0.4824(3)
H19 H 0.6550 0.3109 -0.5172
C16 C 0.9300(10) 0.3306(4) -0.3832(3)
H20 H 0.9883 0.3164 -0.3357
C17 C 0.7212(10) 0.1072(4) -0.1295(3)
H21 H 0.6056 0.1471 -0.1201
C18 C 0.9519(10) 0.0173(4) -0.1877(3)
H22 H 1.0282 -0.0180 -0.2263
C19 C 0.7053(10) 0.2031(4) -0.3862(3)
C20 C 0.7783(10) 0.1802(4) -0.3044(3)
H23 H 0.9295 0.1770 -0.3073
H24 H 0.7236 0.2250 -0.2662
C21 C 0.7003(10) 0.0926(4) -0.2780(3)
C22 C 0.7843(10) 0.0218(4) -0.3371(3)
H25 H 0.9356 0.0170 -0.3412
H26 H 0.7358 -0.0341 -0.3189
C23 C 0.7088(11) 0.0449(4) -0.4177(3)
H27 H 0.7618 -0.0007 -0.4563
C24 C 0.7901(11) 0.1324(4) -0.4455(3)
H28 H 0.9415 0.1278 -0.4495
H29 H 0.7460 0.1473 -0.4979
C25 C 0.4686(10) 0.2108(4) -0.3790(3)
H30 H 0.4188 0.2267 -0.4303
H31 H 0.4156 0.2559 -0.3409
C26 C 0.3917(11) 0.1227(5) -0.3512(3)
H32 H 0.2388 0.1266 -0.3468
C27 C 0.4674(10) 0.0977(5) -0.2705(3)
H33 H 0.4125 0.1412 -0.2311
H34 H 0.4187 0.0416 -0.2533
C28 C 0.4757(11) 0.0530(4) -0.4116(3)
H35 H 0.4230 -0.0027 -0.3952
H36 H 0.4283 0.0684 -0.4633
Ag1A Ag 0.27120(8) -0.02035(4) -0.05761(2)
Ag1A_2 Ag 1.27120(8) -0.02035(4) -0.05761(2)
Ag2A Ag 0.25279(8) 0.46987(4) 0.56309(2)
Ag2_2 Ag 0.74721(8) 0.53013(4) -0.56309(2)
Ag2A_2 Ag 1.25279(8) 0.46987(4) -0.43691(2)
N2A N 0.6953(9) -0.1097(4) -0.0146(3)
N5A N 0.6264(9) 0.5772(4) 0.5766(3)
N7_2 N 0.8551(9) 0.3950(4) 0.5066(3)
N8A N 1.0236(9) 0.6033(4) 0.4291(2)
N11A N 1.0075(9) -0.0221(4) 0.1139(3)
N13 N 0.7092(13) 0.1698(5) 0.3194(3)
O1 O 0.8892(14) 0.1475(7) 0.3213(4)
O2 O 0.6247(13) 0.2244(6) 0.3628(4)
O3 O 0.6150(15) 0.1326(5) 0.2732(4)
O4 O 0.1901(12) 0.1947(4) 0.4283(3)
H37 H 0.1119 0.1812 0.3938
H38 H 0.3089 0.2022 0.4052
O5 O 0.7744(13) 0.3151(5) 0.9352(4)
H39 H 0.8845 0.3062 0.9045
H40 H 0.6716 0.3131 0.9082
N14 N 0.7144(12) 0.6843(4) 0.1847(3)
O6 O 0.606(2) 0.6461(9) 0.2297(7)
O7 O 0.8903(16) 0.6997(11) 0.1991(7)
O8 O 0.655(2) 0.7189(9) 0.1249(6)
O9? O 0.800(2) 0.6480(8) 0.2390(6)
O10? O 0.793(2) 0.7292(10) 0.1377(8)
O11? O 0.5319(16) 0.6657(10) 0.1837(7)
loop_
_geom_bond_atom_site_label_1
_geom_bond_atom_site_label_2
_geom_bond_site_symmetry_1
_geom_bond_site_symmetry_2
Ag1 N1 1_555 1_555
Ag2 N4 1_555 1_555
N1 N2 1_555 1_555
N2 C2 1_555 1_555
N3 C1 1_555 1_555
N4 N5 1_555 1_555
N5 C4 1_555 1_555
N6 C3 1_555 1_555
N7 N8 1_555 1_555
N8 C16 1_555 1_555
N9 C15 1_555 1_555
N10 Ag1 1_555 1_555
N11 N10 1_555 1_555
N12 C17 1_555 1_555
C1 N1 1_555 1_555
H1 C1 1_555 1_555
C2 N3 1_555 1_555
H2 C2 1_555 1_555
C3 N4 1_555 1_555
H3 C3 1_555 1_555
C4 N6 1_555 1_555
H4 C4 1_555 1_555
C5 N3 1_555 1_555
C6 C5 1_555 1_555
H5 C6 1_555 1_555
H6 C6 1_555 1_555
C7 N6 1_555 1_555
C8 C7 1_555 1_555
H7 C8 1_555 1_555
H8 C8 1_555 1_555
C9 C8 1_555 1_555
H9 C9 1_555 1_555
C10 C5 1_555 1_555
H10 C10 1_555 1_555
H11 C10 1_555 1_555
C11 C5 1_555 1_555
H12 C11 1_555 1_555
H13 C11 1_555 1_555
C12 C11 1_555 1_555
H14 C12 1_555 1_555
C13 C7 1_555 1_555
H15 C13 1_555 1_555
H16 C13 1_555 1_555
C14 C9 1_555 1_555
H17 C14 1_555 1_555
H18 C14 1_555 1_555
C15 N7 1_555 1_555
H19 C15 1_555 1_555
C16 N9 1_555 1_555
H20 C16 1_555 1_555
C17 N10 1_555 1_555
H21 C17 1_555 1_555
C18 N11 1_555 1_555
H22 C18 1_555 1_555
C19 N9 1_555 1_555
C20 C19 1_555 1_555
H23 C20 1_555 1_555
H24 C20 1_555 1_555
C21 N12 1_555 1_555
C22 C21 1_555 1_555
H25 C22 1_555 1_555
H26 C22 1_555 1_555
C23 C22 1_555 1_555
H27 C23 1_555 1_555
C24 C19 1_555 1_555
H28 C24 1_555 1_555
H29 C24 1_555 1_555
C25 C19 1_555 1_555
H30 C25 1_555 1_555
H31 C25 1_555 1_555
C26 C25 1_555 1_555
H32 C26 1_555 1_555
C27 C21 1_555 1_555
H33 C27 1_555 1_555
H34 C27 1_555 1_555
C28 C23 1_555 1_555
H35 C28 1_555 1_555
H36 C28 1_555 1_555
N13 O1 1_555 1_555
O2 N13 1_555 1_555
O3 N13 1_555 1_555
O4 H37 1_555 1_555
H38 O4 1_555 1_555
O5 H39 1_555 1_555
H40 O5 1_555 1_555
N14 O6 1_555 1_555
O7 N14 1_555 1_555
O8 N14 1_555 1_555
Ag1A N2 1_555 1_555
Ag1A_2 N11 1_555 1_555
Ag2A N5 1_555 1_555
Ag2_2 N7 1_555 1_555
Ag2A_2 N8 1_555 1_555
N2A Ag1 1_555 1_555
N5A Ag2 1_555 1_555
N7_2 Ag2 1_555 1_555
N8A Ag2 1_555 1_555
N11A Ag1 1_555 1_555
N12 C18 1_555 1_555
C6 C7 1_555 1_555
C9 C10 1_555 1_555
C12 C13 1_555 1_555
C12 C14 1_555 1_555
C20 C21 1_555 1_555
C23 C24 1_555 1_555
C26 C27 1_555 1_555
C26 C28 1_555 1_555

#END
