
#######################################################################
#
#                 Cambridge Crystallographic Data Centre
#                                CCDC 
#
#######################################################################
#
# If this CIF has been generated from an entry in the Cambridge 
# Structural Database, then it will include bibliographic, chemical, 
# crystal, experimental, refinement or atomic coordinate data resulting 
# from the CCDC's data processing and validation procedures.
#
#######################################################################

data_KEHGEL
_symmetry_cell_setting           orthorhombic
_symmetry_space_group_name_H-M   'P b c n'
_symmetry_Int_Tables_number      60
_space_group_name_Hall           '-P 2n 2ab'
loop_
_symmetry_equiv_pos_site_id
_symmetry_equiv_pos_as_xyz
1 x,y,z
2 1/2-x,1/2-y,1/2+z
3 -x,y,1/2-z
4 1/2+x,1/2-y,-z
5 -x,-y,-z
6 1/2+x,1/2+y,1/2-z
7 x,-y,1/2+z
8 1/2-x,1/2+y,z
_cell_length_a                   11.9308(12)
_cell_length_b                   18.9239(12)
_cell_length_c                   22.4189(15)
_cell_angle_alpha                90
_cell_angle_beta                 90
_cell_angle_gamma                90
_cell_volume                     5061.68
loop_
_atom_site_label
_atom_site_type_symbol
_atom_site_fract_x
_atom_site_fract_y
_atom_site_fract_z
Ag1 Ag 0.27978(4) 0.19757(2) 0.698250(18)
N1 N 0.3934(4) 0.2914(2) 0.6784(2)
N2 N 0.3694(5) 0.3601(3) 0.6834(3)
N3 N 0.5429(4) 0.3507(2) 0.65378(18)
N4 N 1.0148(4) 0.1746(2) 0.6681(3)
N5 N 1.0917(4) 0.2267(3) 0.6830(2)
N6 N 0.9374(3) 0.2791(2) 0.65630(18)
N7 N 0.9088(7) 0.6335(3) 0.6871(3)
N8 N 0.8224(4) 0.6264(2) 0.7243(2)
N9 N 0.8325(4) 0.5305(2) 0.67067(19)
N10 N 0.7895(4) 0.3730(3) 0.3887(2)
N11 N 0.8180(5) 0.4433(3) 0.3926(2)
N12 N 0.7887(4) 0.4025(2) 0.48274(17)
C1 C 0.4975(5) 0.2865(3) 0.6624(3)
H1 H 0.5358 0.2441 0.6574
C2 C 0.4594(6) 0.3931(3) 0.6689(4)
H2 H 0.4653 0.4421 0.6691
C3 C 0.9253(6) 0.2085(3) 0.6523(3)
H3 H 0.8599 0.1865 0.6395
C4 C 1.0438(5) 0.2864(3) 0.6744(3)
H4 H 1.0788 0.3298 0.6801
C5 C 0.9137(7) 0.5760(4) 0.6564(4)
H5 H 0.9678 0.5672 0.6275
C6 C 0.7773(5) 0.5658(3) 0.7134(3)
H6 H 0.7141 0.5487 0.7329
C7 C 0.7731(5) 0.3504(3) 0.4430(2)
H7 H 0.7532 0.3043 0.4528
C8 C 0.8179(5) 0.4592(3) 0.4495(3)
H8 H 0.8355 0.5035 0.4649
C9 C 0.6572(4) 0.3698(2) 0.6346(2)
C10 C 0.7390(4) 0.3128(2) 0.6564(2)
H9 H 0.7355 0.3089 0.6995
H10 H 0.7193 0.2674 0.6393
C11 C 0.8564(4) 0.3339(3) 0.6371(2)
C12 C 0.8885(4) 0.4057(2) 0.6654(2)
H11 H 0.8864 0.4021 0.7085
H12 H 0.9640 0.4187 0.6536
C13 C 0.8066(4) 0.4609(3) 0.6445(2)
C14 C 0.6870(4) 0.4412(3) 0.6630(2)
H13 H 0.6349 0.4772 0.6497
H14 H 0.6821 0.4378 0.7061
C15 C 0.6623(4) 0.3758(3) 0.5664(2)
H15 H 0.6427 0.3309 0.5483
H16 H 0.6096 0.4112 0.5526
C16 C 0.7817(4) 0.3967(3) 0.5487(2)
C17 C 0.8629(4) 0.3396(3) 0.5683(2)
H17 H 0.9385 0.3517 0.5561
H18 H 0.8430 0.2948 0.5502
C18 C 0.8122(4) 0.4675(3) 0.5764(2)
H19 H 0.7603 0.5036 0.5629
H20 H 0.8872 0.4812 0.5643
Ag1_2 Ag 1.27978(4) 0.19757(2) 0.698250(18)
Ag1E Ag 0.77978(4) 0.69757(2) 0.801750(18)
Ag1C Ag 0.77978(4) 0.30243(2) 0.301750(18)
N5_2 N 0.0917(4) 0.2267(3) 0.6830(2)
N8E N 0.3224(4) 0.1264(2) 0.7757(2)
N10C N 0.2895(4) 0.1270(3) 0.6113(2)
O1 O 0.1660(4) 0.4385(2) 0.68867(17)
H21 H 0.2255 0.4144 0.6841
H22 H 0.1685 0.4738 0.6653
O2 O 1.0000 0.0495(3) 0.7500
H23 H 1.0181 0.0757 0.7208
H23B H 0.9819 0.0757 0.7792
O3 O 1.0251(5) 0.0422(3) 0.5874(3)
H24 H 1.0640 0.0685 0.6101
H25 H 1.0196 0.0620 0.5535
O4 O 0.8928(5) 0.0665(4) 0.4907(4)
H26 H 0.8774 0.0332 0.4665
H27 H 0.8422 0.0979 0.4879
N13 N 0.8655(9) 0.6645(5) 0.5256(3)
O5 O 0.9035(8) 0.6093(4) 0.5053(4)
O6 O 0.7667(9) 0.6733(7) 0.5398(7)
O7 O 0.9335(10) 0.7145(6) 0.5328(6)
N14? N 0.8310(12) 0.6720(7) 0.4919(5)
O8? O 0.8655(12) 0.6117(6) 0.4826(6)
O9? O 0.7303(12) 0.6825(10) 0.5041(12)
O10? O 0.8967(14) 0.7234(7) 0.4891(8)
loop_
_geom_bond_atom_site_label_1
_geom_bond_atom_site_label_2
_geom_bond_site_symmetry_1
_geom_bond_site_symmetry_2
Ag1 N1 1_555 1_555
N1 N2 1_555 1_555
N2 C2 1_555 1_555
N3 C1 1_555 1_555
N4 N5 1_555 1_555
N5 C4 1_555 1_555
N6 C3 1_555 1_555
N7 N8 1_555 1_555
N8 C6 1_555 1_555
N9 C5 1_555 1_555
N10 N11 1_555 1_555
N11 C8 1_555 1_555
N12 C7 1_555 1_555
C1 N1 1_555 1_555
H1 C1 1_555 1_555
C2 N3 1_555 1_555
H2 C2 1_555 1_555
C3 N4 1_555 1_555
H3 C3 1_555 1_555
C4 N6 1_555 1_555
H4 C4 1_555 1_555
C5 N7 1_555 1_555
H5 C5 1_555 1_555
C6 N9 1_555 1_555
H6 C6 1_555 1_555
C7 N10 1_555 1_555
H7 C7 1_555 1_555
C8 N12 1_555 1_555
H8 C8 1_555 1_555
C9 N3 1_555 1_555
C10 C9 1_555 1_555
H9 C10 1_555 1_555
H10 C10 1_555 1_555
C11 N6 1_555 1_555
C12 C11 1_555 1_555
H11 C12 1_555 1_555
H12 C12 1_555 1_555
C13 N9 1_555 1_555
C14 C9 1_555 1_555
H13 C14 1_555 1_555
H14 C14 1_555 1_555
C15 C9 1_555 1_555
H15 C15 1_555 1_555
H16 C15 1_555 1_555
C16 N12 1_555 1_555
C17 C11 1_555 1_555
H17 C17 1_555 1_555
H18 C17 1_555 1_555
C18 C13 1_555 1_555
H19 C18 1_555 1_555
H20 C18 1_555 1_555
O1 H21 1_555 1_555
H22 O1 1_555 1_555
O2 H23 1_555 1_555
O3 H24 1_555 1_555
H25 O3 1_555 1_555
O4 H26 1_555 1_555
H27 O4 1_555 1_555
N13 O5 1_555 1_555
O6 N13 1_555 1_555
O7 N13 1_555 1_555
Ag1_2 N5 1_555 1_555
Ag1E N8 1_555 1_555
Ag1C N10 1_555 1_555
N5_2 Ag1 1_555 1_555
N8E Ag1 1_555 1_555
N10C Ag1 1_555 1_555
H23B O2 1_555 1_555
C10 C11 1_555 1_555
C12 C13 1_555 1_555
C13 C14 1_555 1_555
C15 C16 1_555 1_555
C16 C17 1_555 1_555
C16 C18 1_555 1_555

#END
