
#######################################################################
#
#                 Cambridge Crystallographic Data Centre
#                                CCDC 
#
#######################################################################
#
# If this CIF has been generated from an entry in the Cambridge 
# Structural Database, then it will include bibliographic, chemical, 
# crystal, experimental, refinement or atomic coordinate data resulting 
# from the CCDC's data processing and validation procedures.
#
#######################################################################

data_KEVFUO
_symmetry_cell_setting           tetragonal
_symmetry_space_group_name_H-M   'I 4/m m m'
_symmetry_Int_Tables_number      139
_space_group_name_Hall           '-I 4 2'
loop_
_symmetry_equiv_pos_site_id
_symmetry_equiv_pos_as_xyz
1 x,y,z
2 -x,-y,z
3 -y,x,z
4 y,-x,z
5 -x,y,-z
6 x,-y,-z
7 y,x,-z
8 -y,-x,-z
9 1/2+x,1/2+y,1/2+z
10 1/2-x,1/2-y,1/2+z
11 1/2-y,1/2+x,1/2+z
12 1/2+y,1/2-x,1/2+z
13 1/2-x,1/2+y,1/2-z
14 1/2+x,1/2-y,1/2-z
15 1/2+y,1/2+x,1/2-z
16 1/2-y,1/2-x,1/2-z
17 -x,-y,-z
18 x,y,-z
19 y,-x,-z
20 -y,x,-z
21 x,-y,z
22 -x,y,z
23 -y,-x,z
24 y,x,z
25 1/2-x,1/2-y,1/2-z
26 1/2+x,1/2+y,1/2-z
27 1/2+y,1/2-x,1/2-z
28 1/2-y,1/2+x,1/2-z
29 1/2+x,1/2-y,1/2+z
30 1/2-x,1/2+y,1/2+z
31 1/2-y,1/2-x,1/2+z
32 1/2+y,1/2+x,1/2+z
_cell_length_a                   11.5921(9)
_cell_length_b                   11.5921(9)
_cell_length_c                   7.5262(12)
_cell_angle_alpha                90
_cell_angle_beta                 90
_cell_angle_gamma                90
_cell_volume                     1011.35
loop_
_atom_site_label
_atom_site_type_symbol
_atom_site_fract_x
_atom_site_fract_y
_atom_site_fract_z
Zn1 Zn 0.5000 0.5000 0.5000
Zn2 Zn 0.5000 0.0000 0.7500
Si1 Si 0.5000 0.5000 0.0000
C1 C 0.5000 0.24585(19) 0.6381(3)
H1 H 0.5000 0.2705 0.7557
N1 N 0.5000 0.3176(3) 0.5000
N2 N 0.5000 0.13701(18) 0.5914(2)
F1 F 0.5000 0.5000 0.2263(4)
F2 F 0.5729(5) 0.6203(5) 0.0000
F2A F 0.4271(5) 0.3797(5) 0.0000
F2B F 0.3797(5) 0.5729(5) 0.0000
F2C F 0.6203(5) 0.4271(5) 0.0000
F1D F 0.5000 0.5000 -0.2263(4)
F2D F 0.4271(5) 0.6203(5) 0.0000
F2E F 0.5729(5) 0.3797(5) 0.0000
F2F F 0.6203(5) 0.5729(5) 0.0000
F2G F 0.3797(5) 0.4271(5) 0.0000
C1D C 0.5000 0.24585(19) 0.3619(3)
H1D H 0.5000 0.2705 0.2443
N2D N 0.5000 0.13701(18) 0.4086(2)
C1A C 0.5000 -0.24585(19) 0.6381(3)
H1A H 0.5000 -0.2705 0.7557
N1A N 0.5000 -0.3176(3) 0.5000
N2A N 0.5000 -0.13701(18) 0.5914(2)
C1E C 0.5000 -0.24585(19) 0.3619(3)
H1E H 0.5000 -0.2705 0.2443
N2E N 0.5000 -0.13701(18) 0.4086(2)
Zn2B Zn 1.0000 0.5000 0.7500
C1B C 0.75415(19) 0.5000 0.6381(3)
H1B H 0.7295 0.5000 0.7557
N1B N 0.6824(3) 0.5000 0.5000
N2B N 0.86299(18) 0.5000 0.5914(2)
C1G C 0.75415(19) 0.5000 0.3619(3)
H1G H 0.7295 0.5000 0.2443
N2G N 0.86299(18) 0.5000 0.4086(2)
C1C C 0.24585(19) 0.5000 0.6381(3)
H1C H 0.2705 0.5000 0.7557
N1C N 0.3176(3) 0.5000 0.5000
N2C N 0.13701(18) 0.5000 0.5914(2)
C1F C 0.24585(19) 0.5000 0.3619(3)
H1F H 0.2705 0.5000 0.2443
N2F N 0.13701(18) 0.5000 0.4086(2)
Zn1_2 Zn 0.5000 -0.5000 0.5000
Zn1_3 Zn 0.5000 0.5000 -0.5000
Zn2B_2 Zn 0.0000 0.5000 0.7500
Zn2D Zn 0.5000 0.0000 0.2500
Zn2F Zn 0.0000 0.5000 0.2500
Zn2F_2 Zn 1.0000 0.5000 0.2500
N1A_2 N 0.5000 0.6824(3) 0.5000
N2C_2 N 1.13701(18) 0.5000 0.5914(2)
N2L N 1.0000 0.63701(18) 0.9086(2)
N2M N 1.0000 0.36299(18) 0.9086(2)
N2N N 0.63701(18) 0.0000 0.9086(2)
N2O N 0.36299(18) 0.0000 0.9086(2)
F1D_2 F 0.5000 0.5000 0.7737(4)
loop_
_geom_bond_atom_site_label_1
_geom_bond_atom_site_label_2
_geom_bond_site_symmetry_1
_geom_bond_site_symmetry_2
Zn1 N1 1_555 1_555
Zn2 N2 1_555 1_555
Si1 F1 1_555 1_555
C1 H1 1_555 1_555
N1 C1 1_555 1_555
N2 C1 1_555 1_555
F1 Zn1 1_555 1_555
F2 Si1 1_555 1_555
F2A Si1 1_555 1_555
F2B Si1 1_555 1_555
F2C Si1 1_555 1_555
F1D Si1 1_555 1_555
F2D Si1 1_555 1_555
F2E Si1 1_555 1_555
F2F Si1 1_555 1_555
F2G Si1 1_555 1_555
C1D N1 1_555 1_555
H1D C1D 1_555 1_555
N2D N2 1_555 1_555
C1A H1A 1_555 1_555
N1A C1A 1_555 1_555
N2A Zn2 1_555 1_555
C1E N1A 1_555 1_555
H1E C1E 1_555 1_555
N2E N2A 1_555 1_555
Zn2B N2B 1_555 1_555
C1B H1B 1_555 1_555
N1B Zn1 1_555 1_555
N2B C1B 1_555 1_555
C1G N1B 1_555 1_555
H1G C1G 1_555 1_555
N2G N2B 1_555 1_555
C1C H1C 1_555 1_555
N1C Zn1 1_555 1_555
N2C C1C 1_555 1_555
C1F N1C 1_555 1_555
H1F C1F 1_555 1_555
N2F N2C 1_555 1_555
Zn1_2 N1A 1_555 1_555
Zn1_3 F1D 1_555 1_555
Zn2B_2 N2C 1_555 1_555
Zn2D N2D 1_555 1_555
Zn2F N2F 1_555 1_555
Zn2F_2 N2G 1_555 1_555
N1A_2 Zn1 1_555 1_555
N2C_2 Zn2B 1_555 1_555
N2L Zn2B 1_555 1_555
N2M Zn2B 1_555 1_555
N2N Zn2 1_555 1_555
N2O Zn2 1_555 1_555
F1D_2 Zn1 1_555 1_555
F2 F2F 1_555 1_555
F2A F2G 1_555 1_555
F2B F2D 1_555 1_555
F2C F2E 1_555 1_555
C1D N2D 1_555 1_555
C1A N2A 1_555 1_555
C1E N2E 1_555 1_555
N2E Zn2D 1_555 1_555
C1B N1B 1_555 1_555
C1G N2G 1_555 1_555
C1C N1C 1_555 1_555
C1F N2F 1_555 1_555

#END
