
#######################################################################
#
#                 Cambridge Crystallographic Data Centre
#                                CCDC 
#
#######################################################################
#
# If this CIF has been generated from an entry in the Cambridge 
# Structural Database, then it will include bibliographic, chemical, 
# crystal, experimental, refinement or atomic coordinate data resulting 
# from the CCDC's data processing and validation procedures.
#
#######################################################################

data_KEWZOD
_symmetry_cell_setting           orthorhombic
_symmetry_space_group_name_H-M   'P b a m'
_symmetry_Int_Tables_number      55
_space_group_name_Hall           '-P 2 2ab'
loop_
_symmetry_equiv_pos_site_id
_symmetry_equiv_pos_as_xyz
1 x,y,z
2 -x,-y,z
3 1/2-x,1/2+y,-z
4 1/2+x,1/2-y,-z
5 -x,-y,-z
6 x,y,-z
7 1/2+x,1/2-y,z
8 1/2-x,1/2+y,z
_cell_length_a                   15.1309(8)
_cell_length_b                   18.0855(9)
_cell_length_c                   11.4414(6)
_cell_angle_alpha                90
_cell_angle_beta                 90
_cell_angle_gamma                90
_cell_volume                     3130.94
loop_
_atom_site_label
_atom_site_type_symbol
_atom_site_fract_x
_atom_site_fract_y
_atom_site_fract_z
Zn1 Zn 0.44787(5) -0.09842(4) 0.5000
O1 O 0.3641(4) -0.0135(3) 0.5000
O2 O 0.4196(4) 0.1002(3) 0.5000
O3 O 0.0718(5) 0.2936(3) 0.5000
O4 O 0.2116(6) 0.3158(4) 0.5000
N1 N 0.4473(3) -0.0945(3) 0.3092(5)
C1 C 0.1661(5) 0.1916(4) 0.5000
C2 C 0.0952(5) 0.1443(5) 0.5000
H1 H 0.0382 0.1635 0.5000
C3 C 0.1075(5) 0.0661(5) 0.5000
C4 C 0.1940(5) 0.0386(4) 0.5000
H2 H 0.2034 -0.0122 0.5000
C5 C 0.2651(5) 0.0858(4) 0.5000
C6 C 0.2521(5) 0.1632(4) 0.5000
H3 H 0.3004 0.1950 0.5000
C7 C 0.1510(6) 0.2738(5) 0.5000
C8 C 0.3569(4) 0.0553(4) 0.5000
C9 C 0.0328(6) 0.0187(6) 0.5000
C10 C 0.3811(6) -0.0697(6) 0.2492(7)
H4 H 0.3330 -0.0503 0.2894
C11 C 0.3783(6) -0.0705(6) 0.1263(7)
H5 H 0.3290 -0.0516 0.0880
C12 C 0.4444(6) -0.0977(6) 0.0646(8)
C13 C 0.5133(7) -0.1204(7) 0.1296(7)
H6 H 0.5642 -0.1369 0.0920
C14 C 0.5113(7) -0.1202(7) 0.2464(8)
H7 H 0.5596 -0.1401 0.2855
O1A O -0.3641(4) 0.0135(3) 0.5000
O2A O -0.4196(4) -0.1002(3) 0.5000
O3A O -0.0718(5) -0.2936(3) 0.5000
O4A O -0.2116(6) -0.3158(4) 0.5000
C1A C -0.1661(5) -0.1916(4) 0.5000
C2A C -0.0952(5) -0.1443(5) 0.5000
H1A H -0.0382 -0.1635 0.5000
C3A C -0.1075(5) -0.0661(5) 0.5000
C4A C -0.1940(5) -0.0386(4) 0.5000
H2A H -0.2034 0.0122 0.5000
C5A C -0.2651(5) -0.0858(4) 0.5000
C6A C -0.2521(5) -0.1632(4) 0.5000
H3A H -0.3004 -0.1950 0.5000
C7A C -0.1510(6) -0.2738(5) 0.5000
C8A C -0.3569(4) -0.0553(4) 0.5000
C9A C -0.0328(6) -0.0187(6) 0.5000
N1E N 0.4473(3) -0.0945(3) -0.3092(5)
C10E C 0.3811(6) -0.0697(6) -0.2492(7)
H4E H 0.3330 -0.0503 -0.2894
C11E C 0.3783(6) -0.0705(6) -0.1263(7)
H5E H 0.3290 -0.0516 -0.0880
C12E C 0.4444(6) -0.0977(6) -0.0646(8)
C13E C 0.5133(7) -0.1204(7) -0.1296(7)
H6E H 0.5642 -0.1369 -0.0920
C14E C 0.5113(7) -0.1202(7) -0.2464(8)
H7E H 0.5596 -0.1401 -0.2855
Zn1A Zn -0.44787(5) 0.09842(4) 0.5000
N1A N -0.4473(3) 0.0945(3) 0.3092(5)
C10A C -0.3811(6) 0.0697(6) 0.2492(7)
H4A H -0.3330 0.0503 0.2894
C11A C -0.3783(6) 0.0705(6) 0.1263(7)
H5A H -0.3290 0.0516 0.0880
C12A C -0.4444(6) 0.0977(6) 0.0646(8)
C13A C -0.5133(7) 0.1204(7) 0.1296(7)
H6A H -0.5642 0.1369 0.0920
C14A C -0.5113(7) 0.1202(7) 0.2464(8)
H7A H -0.5596 0.1401 0.2855
N1D N -0.4473(3) 0.0945(3) -0.3092(5)
C10D C -0.3811(6) 0.0697(6) -0.2492(7)
H4D H -0.3330 0.0503 -0.2894
C11D C -0.3783(6) 0.0705(6) -0.1263(7)
H5D H -0.3290 0.0516 -0.0880
C12D C -0.4444(6) 0.0977(6) -0.0646(8)
C13D C -0.5133(7) 0.1204(7) -0.1296(7)
H6D H -0.5642 0.1369 -0.0920
C14D C -0.5113(7) 0.1202(7) -0.2464(8)
H7D H -0.5596 0.1401 -0.2855
Zn1_2 Zn -0.55213(5) -0.09842(4) 0.5000
Zn1_3 Zn 0.44787(5) -0.09842(4) -0.5000
Zn1A_2 Zn -0.44787(5) 0.09842(4) -0.5000
Zn1A_3 Zn 0.55213(5) 0.09842(4) 0.5000
Zn1B Zn 0.05213(5) 0.40158(4) 0.5000
Zn1C Zn -0.05213(5) -0.40158(4) 0.5000
O2_2 O -0.5804(4) 0.1002(3) 0.5000
O2A_2 O 0.5804(4) -0.1002(3) 0.5000
O3B O 0.4282(5) -0.2064(3) 0.5000
O3C O -0.4282(5) 0.2064(3) 0.5000
N1D_2 N -0.4473(3) 0.0945(3) 0.6908(5)
N1E_2 N 0.4473(3) -0.0945(3) 0.6908(5)
loop_
_geom_bond_atom_site_label_1
_geom_bond_atom_site_label_2
_geom_bond_site_symmetry_1
_geom_bond_site_symmetry_2
Zn1 O1 1_555 1_555
O1 C8 1_555 1_555
O2 C8 1_555 1_555
O3 C7 1_555 1_555
O4 C7 1_555 1_555
N1 Zn1 1_555 1_555
C1 C2 1_555 1_555
C2 H1 1_555 1_555
C3 C2 1_555 1_555
C4 C3 1_555 1_555
H2 C4 1_555 1_555
C5 C4 1_555 1_555
C6 C1 1_555 1_555
H3 C6 1_555 1_555
C7 C1 1_555 1_555
C8 C5 1_555 1_555
C9 C3 1_555 1_555
C10 N1 1_555 1_555
H4 C10 1_555 1_555
C11 C10 1_555 1_555
H5 C11 1_555 1_555
C12 C11 1_555 1_555
C13 C12 1_555 1_555
H6 C13 1_555 1_555
C14 N1 1_555 1_555
H7 C14 1_555 1_555
O1A C8A 1_555 1_555
O2A C8A 1_555 1_555
O3A C7A 1_555 1_555
O4A C7A 1_555 1_555
C1A C2A 1_555 1_555
C2A H1A 1_555 1_555
C3A C2A 1_555 1_555
C4A C3A 1_555 1_555
H2A C4A 1_555 1_555
C5A C4A 1_555 1_555
C6A C1A 1_555 1_555
H3A C6A 1_555 1_555
C7A C1A 1_555 1_555
C8A C5A 1_555 1_555
C9A C9 1_555 1_555
N1E C10E 1_555 1_555
C10E H4E 1_555 1_555
C11E C10E 1_555 1_555
H5E C11E 1_555 1_555
C12E C12 1_555 1_555
C13E C12E 1_555 1_555
H6E C13E 1_555 1_555
C14E N1E 1_555 1_555
H7E C14E 1_555 1_555
Zn1A O1A 1_555 1_555
N1A Zn1A 1_555 1_555
C10A N1A 1_555 1_555
H4A C10A 1_555 1_555
C11A C10A 1_555 1_555
H5A C11A 1_555 1_555
C12A C11A 1_555 1_555
C13A C12A 1_555 1_555
H6A C13A 1_555 1_555
C14A N1A 1_555 1_555
H7A C14A 1_555 1_555
N1D C10D 1_555 1_555
C10D H4D 1_555 1_555
C11D C10D 1_555 1_555
H5D C11D 1_555 1_555
C12D C12A 1_555 1_555
C13D C12D 1_555 1_555
H6D C13D 1_555 1_555
C14D N1D 1_555 1_555
H7D C14D 1_555 1_555
Zn1_2 O2A 1_555 1_555
Zn1_3 N1E 1_555 1_555
Zn1A_2 N1D 1_555 1_555
Zn1A_3 O2 1_555 1_555
Zn1B O3 1_555 1_555
Zn1C O3A 1_555 1_555
O2_2 Zn1A 1_555 1_555
O2A_2 Zn1 1_555 1_555
O3B Zn1 1_555 1_555
O3C Zn1A 1_555 1_555
N1D_2 Zn1A 1_555 1_555
N1E_2 Zn1 1_555 1_555
C5 C6 1_555 1_555
C13 C14 1_555 1_555
C3A C9A 1_555 1_555
C5A C6A 1_555 1_555
C11E C12E 1_555 1_555
C13E C14E 1_555 1_555
C13A C14A 1_555 1_555
C11D C12D 1_555 1_555
C13D C14D 1_555 1_555

#END
