
#######################################################################
#
#                 Cambridge Crystallographic Data Centre
#                                CCDC 
#
#######################################################################
#
# If this CIF has been generated from an entry in the Cambridge 
# Structural Database, then it will include bibliographic, chemical, 
# crystal, experimental, refinement or atomic coordinate data resulting 
# from the CCDC's data processing and validation procedures.
#
#######################################################################

data_KIDVIE
_symmetry_cell_setting           triclinic
_symmetry_space_group_name_H-M   'P -1'
_symmetry_Int_Tables_number      2
_space_group_name_Hall           '-P 1'
loop_
_symmetry_equiv_pos_site_id
_symmetry_equiv_pos_as_xyz
1 x,y,z
2 -x,-y,-z
_cell_length_a                   10.016(2)
_cell_length_b                   11.380(2)
_cell_length_c                   12.821(3)
_cell_angle_alpha                80.39(3)
_cell_angle_beta                 80.65(3)
_cell_angle_gamma                66.34(3)
_cell_volume                     1312.35
loop_
_atom_site_label
_atom_site_type_symbol
_atom_site_fract_x
_atom_site_fract_y
_atom_site_fract_z
La1 La 0.30138(10) 0.10814(9) 0.21182(7)
La2 La 0.61975(10) 0.48789(9) 0.25039(8)
C1 C 0.4530(17) 0.3234(17) 0.1735(13)
C2 C 0.4804(19) 0.2602(17) 0.2838(14)
O1 O 0.5494(12) 0.3017(10) 0.3324(8)
O2 O 0.4347(13) 0.1735(11) 0.3184(9)
O3 O 0.3924(12) 0.2830(11) 0.1190(9)
O4 O 0.4909(11) 0.4189(11) 0.1378(8)
C3 C 0.3999(19) -0.2061(19) 0.2107(14)
C4 C 0.492(2) -0.2018(19) 0.2863(14)
O5 O 0.6018(12) -0.3001(11) 0.3038(10)
O6 O 0.4200(13) -0.3105(12) 0.1736(10)
O7 O 0.4585(9) -0.0928(9) 0.3109(7)
O8 O 0.2888(12) -0.1003(11) 0.1816(10)
C5 C -0.0567(19) 0.2631(18) 0.1966(14)
C6 C -0.020(3) 0.3621(18) 0.2408(12)
O9 O 0.0486(11) 0.1598(10) 0.1709(9)
O10 O 0.1117(13) 0.3281(11) 0.2519(9)
O11 O -0.1222(11) 0.4637(10) 0.2583(9)
O12 O -0.1867(13) 0.2835(10) 0.1934(9)
C7 C 0.420(2) 0.5343(14) 0.4902(17)
O13 O 0.4006(10) 0.5606(10) 0.3903(10)
O14 O 0.3223(12) 0.5656(11) 0.5645(9)
C8 C 0.5678(16) -0.0298(16) 0.0332(15)
O15 O 0.5523(12) -0.0087(11) 0.1251(10)
O16 O 0.6843(12) -0.1034(11) -0.0159(9)
O17 O 0.1653(13) 0.0773(11) 0.3904(9)
O18 O 0.7189(12) 0.5568(11) 0.0620(8)
C7A C 0.580(2) 0.4657(14) 0.5098(17)
O13A O 0.5994(10) 0.4394(10) 0.6097(10)
O14A O 0.6777(12) 0.4344(11) 0.4355(9)
C8A C 0.4322(16) 0.0298(16) -0.0332(15)
O15A O 0.4477(12) 0.0087(11) -0.1251(10)
O16A O 0.3157(12) 0.1034(11) 0.0159(9)
La1A La 0.69862(10) -0.10814(9) -0.21182(7)
La2A La 0.38025(10) -0.48789(9) -0.25039(8)
C1A C 0.5470(17) -0.3234(17) -0.1735(13)
C2A C 0.5196(19) -0.2602(17) -0.2838(14)
O1A O 0.4506(12) -0.3017(10) -0.3324(8)
O2A O 0.5653(13) -0.1735(11) -0.3184(9)
O3A O 0.6076(12) -0.2830(11) -0.1190(9)
O4A O 0.5091(11) -0.4189(11) -0.1378(8)
C3A C 0.6001(19) 0.2061(19) -0.2107(14)
C4A C 0.508(2) 0.2018(19) -0.2863(14)
O5A O 0.3982(12) 0.3001(11) -0.3038(10)
O6A O 0.5800(13) 0.3105(12) -0.1736(10)
O7A O 0.5415(9) 0.0928(9) -0.3109(7)
O8A O 0.7112(12) 0.1003(11) -0.1816(10)
C5A C 1.0567(19) -0.2631(18) -0.1966(14)
C6A C 1.020(3) -0.3621(18) -0.2408(12)
O9A O 0.9514(11) -0.1598(10) -0.1709(9)
O10A O 0.8883(13) -0.3281(11) -0.2519(9)
O11A O 1.1222(11) -0.4637(10) -0.2583(9)
O12A O 1.1867(13) -0.2835(10) -0.1934(9)
O17A O 0.8347(13) -0.0773(11) -0.3904(9)
O18A O 0.2811(12) -0.5568(11) -0.0620(8)
La2_2 La -0.38025(10) 0.48789(9) 0.25039(8)
La2_3 La 0.61975(10) -0.51211(9) 0.25039(8)
La2A_2 La 0.38025(10) 0.51211(9) -0.25039(8)
La2A_3 La 0.38025(10) 0.51211(9) 0.74961(8)
La2A_4 La 1.38025(10) -0.48789(9) -0.25039(8)
O5_2 O 0.6018(12) 0.6999(11) 0.3038(10)
O5A_2 O 0.3982(12) -0.6999(11) -0.3038(10)
O6_2 O 0.4200(13) 0.6895(12) 0.1736(10)
O6A_2 O 0.5800(13) -0.6895(12) -0.1736(10)
O11_2 O 0.8778(11) 0.4637(10) 0.2583(9)
O11A_2 O 0.1222(11) -0.4637(10) -0.2583(9)
O12_2 O 0.8133(13) 0.2835(10) 0.1934(9)
O12A_2 O 0.1867(13) -0.2835(10) -0.1934(9)
O13A_2 O 0.5994(10) -0.5606(10) -0.3903(10)
O14_2 O 0.3223(12) -0.4344(11) -0.4355(9)
loop_
_geom_bond_atom_site_label_1
_geom_bond_atom_site_label_2
_geom_bond_site_symmetry_1
_geom_bond_site_symmetry_2
La1 O2 1_555 1_555
La2 O1 1_555 1_555
C1 C2 1_555 1_555
C2 O1 1_555 1_555
O2 C2 1_555 1_555
O3 La1 1_555 1_555
O4 La2 1_555 1_555
C3 C4 1_555 1_555
C4 O5 1_555 1_555
O5 La2_3 1_555 1_555
O6 C3 1_555 1_555
O7 La1 1_555 1_555
O8 La1 1_555 1_555
C5 C6 1_555 1_555
C6 O10 1_555 1_555
O9 La1 1_555 1_555
O10 La1 1_555 1_555
O11 C6 1_555 1_555
O12 C5 1_555 1_555
C7 O13 1_555 1_555
O13 La2 1_555 1_555
O14 C7 1_555 1_555
C8 O15 1_555 1_555
O15 La1 1_555 1_555
O16 C8 1_555 1_555
O17 La1 1_555 1_555
O18 La2 1_555 1_555
C7A C7 1_555 1_555
O13A C7A 1_555 1_555
O14A La2 1_555 1_555
C8A C8 1_555 1_555
O15A C8A 1_555 1_555
O16A La1 1_555 1_555
La1A O16 1_555 1_555
La2A O1A 1_555 1_555
C1A C2A 1_555 1_555
C2A O1A 1_555 1_555
O2A La1A 1_555 1_555
O3A La1A 1_555 1_555
O4A La2A 1_555 1_555
C3A C4A 1_555 1_555
C4A O5A 1_555 1_555
O5A La2A_2 1_555 1_555
O6A C3A 1_555 1_555
O7A La1A 1_555 1_555
O8A La1A 1_555 1_555
C5A C6A 1_555 1_555
C6A O10A 1_555 1_555
O9A La1A 1_555 1_555
O10A La1A 1_555 1_555
O11A C6A 1_555 1_555
O12A C5A 1_555 1_555
O17A La1A 1_555 1_555
O18A La2A 1_555 1_555
La2_2 O11 1_555 1_555
La2_3 O6 1_555 1_555
La2A_2 O6A 1_555 1_555
La2A_3 O14 1_555 1_555
La2A_4 O11A 1_555 1_555
O5_2 La2 1_555 1_555
O5A_2 La2A 1_555 1_555
O6_2 La2 1_555 1_555
O6A_2 La2A 1_555 1_555
O11_2 La2 1_555 1_555
O11A_2 La2A 1_555 1_555
O12_2 La2 1_555 1_555
O12A_2 La2A 1_555 1_555
O13A_2 La2A 1_555 1_555
O14_2 La2A 1_555 1_555
C1 O3 1_555 1_555
C1 O4 1_555 1_555
C3 O8 1_555 1_555
C4 O7 1_555 1_555
C5 O9 1_555 1_555
O12 La2_2 1_555 1_555
C7A O14A 1_555 1_555
O13A La2A_3 1_555 1_555
C8A O16A 1_555 1_555
O15A La1A 1_555 1_555
C1A O3A 1_555 1_555
C1A O4A 1_555 1_555
C2A O2A 1_555 1_555
C3A O8A 1_555 1_555
C4A O7A 1_555 1_555
C5A O9A 1_555 1_555
O12A La2A_4 1_555 1_555

#END
