
#######################################################################
#
#                 Cambridge Crystallographic Data Centre
#                                CCDC 
#
#######################################################################
#
# If this CIF has been generated from an entry in the Cambridge 
# Structural Database, then it will include bibliographic, chemical, 
# crystal, experimental, refinement or atomic coordinate data resulting 
# from the CCDC's data processing and validation procedures.
#
#######################################################################

data_KIGMEU
_symmetry_cell_setting           orthorhombic
_symmetry_space_group_name_H-M   'P 21 21 21'
_symmetry_Int_Tables_number      19
_space_group_name_Hall           'P 2ac 2ab'
loop_
_symmetry_equiv_pos_site_id
_symmetry_equiv_pos_as_xyz
1 x,y,z
2 1/2-x,-y,1/2+z
3 -x,1/2+y,1/2-z
4 1/2+x,1/2-y,-z
_cell_length_a                   11.359(2)
_cell_length_b                   14.395(3)
_cell_length_c                   14.726(3)
_cell_angle_alpha                90
_cell_angle_beta                 90
_cell_angle_gamma                90
_cell_volume                     2407.89
loop_
_atom_site_label
_atom_site_type_symbol
_atom_site_fract_x
_atom_site_fract_y
_atom_site_fract_z
Co1 Co 0.41643(3) 0.84290(2) 0.82329(2)
P1 P 0.41828(6) 1.06077(4) 0.74616(4)
C1 C -0.1679(2) 1.11580(18) 0.84817(18)
C2 C -0.1728(2) 1.08995(18) 0.68466(18)
C3 C -0.0462(2) 1.09452(19) 0.68414(19)
H1 H -0.0046 1.0852 0.6305
C4 C 0.0112(2) 1.11237(17) 0.76208(18)
H2 H 0.0929 1.1167 0.7612
C5 C 0.0141(2) 1.15127(18) 0.92690(16)
H3 H -0.0329 1.1984 0.9584
C6 C 0.0373(2) 1.07056(18) 0.99146(16)
H4 H -0.0178 1.0191 0.9821
C7 C 0.1634(2) 1.04422(17) 0.96628(16)
H5 H 0.1628 1.0090 0.9093
C8 C 0.2176(2) 1.13974(17) 0.94934(16)
H6 H 0.2335 1.1696 1.0079
C9 C 0.1699(2) 0.8612(2) 0.74887(19)
H7 H 0.2125 0.8768 0.6971
C10 C 0.0486(2) 0.8632(2) 0.74470(18)
H8 H 0.0110 0.8792 0.6908
C11 C -0.0177(2) 0.84095(18) 0.82184(18)
C12 C 0.0440(2) 0.81714(19) 0.89971(18)
H9 H 0.0039 0.8017 0.9527
C13 C 0.1663(2) 0.81649(18) 0.89791(19)
H10 H 0.2061 0.8003 0.9508
C14 C -0.1484(2) 0.84338(18) 0.82152(18)
C15 C -0.2135(2) 0.8567(2) 0.74174(18)
H11 H -0.1749 0.8641 0.6865
C16 C -0.2126(2) 0.8326(2) 0.90069(19)
H12 H -0.1739 0.8244 0.9558
C17 C 0.3281(2) 1.14235(18) 0.89234(16)
H13 H 0.3496 1.2064 0.8802
H14 H 0.3923 1.1133 0.9252
C18 C -0.3340(2) 0.8587(2) 0.74522(19)
H15 H -0.3752 0.8687 0.6915
C19 C -0.3340(2) 0.8341(2) 0.89773(19)
H16 H -0.3747 0.8256 0.9518
N1 N -0.04689(17) 1.12426(15) 0.84264(13)
N2 N -0.22459(18) 1.09763(15) 0.76888(14)
H17 H -0.2996 1.0902 0.7715
N3 N 0.22967(17) 0.83760(14) 0.82526(15)
N4 N -0.39597(16) 0.84701(15) 0.82272(14)
O1 O -0.21961(16) 1.12614(14) 0.92076(12)
O2 O -0.23572(16) 1.08110(14) 0.61585(12)
O3 O 0.12427(15) 1.18975(12) 0.90377(12)
O4 O 0.22876(16) 0.99422(13) 1.03247(12)
H18 H 0.1842 0.9604 1.0612
O5 O 0.02805(16) 1.10886(13) 1.07930(11)
H19 H 0.0523 1.0713 1.1167
O6 O 0.30936(15) 1.09477(13) 0.80894(12)
O7 O 0.53058(15) 1.09201(12) 0.79173(11)
O8 O 0.39868(15) 1.10219(11) 0.65259(11)
O9 O 0.40687(17) 0.95565(11) 0.73887(11)
O10 O 0.40592(17) 0.76417(11) 0.70265(11)
H20 H 0.4309 0.7087 0.6984
H21 H 0.4279 0.7958 0.6596
O11 O 0.42604(16) 0.71246(11) 0.89220(11)
H22 H 0.4892 0.6831 0.8807
H23 H 0.3706 0.6796 0.8766
O12 O 0.42028(16) 0.91394(12) 0.94821(11)
H24 H 0.4506 0.9425 0.9930
H25 H 0.3535 0.9306 0.9616
Co1_2 Co -0.58357(3) 0.84290(2) 0.82329(2)
N4_2 N 0.60403(16) 0.84701(15) 0.82272(14)
O13 O 0.58949(19) 0.03464(14) 1.00430(13)
H26 H 0.6409 0.0659 0.9756
H27 H 0.6251 -0.0024 1.0399
loop_
_geom_bond_atom_site_label_1
_geom_bond_atom_site_label_2
_geom_bond_site_symmetry_1
_geom_bond_site_symmetry_2
Co1 N3 1_555 1_555
P1 O6 1_555 1_555
C1 N1 1_555 1_555
C2 C3 1_555 1_555
C3 H1 1_555 1_555
C4 C3 1_555 1_555
H2 C4 1_555 1_555
C5 H3 1_555 1_555
C6 C5 1_555 1_555
H4 C6 1_555 1_555
C7 C6 1_555 1_555
H5 C7 1_555 1_555
C8 C7 1_555 1_555
H6 C8 1_555 1_555
C9 H7 1_555 1_555
C10 C9 1_555 1_555
H8 C10 1_555 1_555
C11 C10 1_555 1_555
C12 C11 1_555 1_555
H9 C12 1_555 1_555
C13 C12 1_555 1_555
H10 C13 1_555 1_555
C14 C11 1_555 1_555
C15 C14 1_555 1_555
H11 C15 1_555 1_555
C16 C14 1_555 1_555
H12 C16 1_555 1_555
C17 C8 1_555 1_555
H13 C17 1_555 1_555
H14 C17 1_555 1_555
C18 C15 1_555 1_555
H15 C18 1_555 1_555
C19 C16 1_555 1_555
H16 C19 1_555 1_555
N1 C4 1_555 1_555
N2 C1 1_555 1_555
H17 N2 1_555 1_555
N3 C9 1_555 1_555
N4 C18 1_555 1_555
O1 C1 1_555 1_555
O2 C2 1_555 1_555
O3 C5 1_555 1_555
O4 C7 1_555 1_555
H18 O4 1_555 1_555
O5 C6 1_555 1_555
H19 O5 1_555 1_555
O6 C17 1_555 1_555
O7 P1 1_555 1_555
O8 P1 1_555 1_555
O9 Co1 1_555 1_555
O10 Co1 1_555 1_555
H20 O10 1_555 1_555
H21 O10 1_555 1_555
O11 Co1 1_555 1_555
H22 O11 1_555 1_555
H23 O11 1_555 1_555
O12 Co1 1_555 1_555
H24 O12 1_555 1_555
H25 O12 1_555 1_555
O13 H26 1_555 1_555
H27 O13 1_555 1_555
Co1_2 N4 1_555 1_555
N4_2 Co1 1_555 1_555
P1 O9 1_555 1_555
C2 N2 1_555 1_555
C5 N1 1_555 1_555
C8 O3 1_555 1_555
C13 N3 1_555 1_555
C19 N4 1_555 1_555

#END
