
#######################################################################
#
#                 Cambridge Crystallographic Data Centre
#                                CCDC 
#
#######################################################################
#
# If this CIF has been generated from an entry in the Cambridge 
# Structural Database, then it will include bibliographic, chemical, 
# crystal, experimental, refinement or atomic coordinate data resulting 
# from the CCDC's data processing and validation procedures.
#
#######################################################################

data_KINFEU
_symmetry_cell_setting           triclinic
_symmetry_space_group_name_H-M   'P -1'
_symmetry_Int_Tables_number      2
_space_group_name_Hall           '-P 1'
loop_
_symmetry_equiv_pos_site_id
_symmetry_equiv_pos_as_xyz
1 x,y,z
2 -x,-y,-z
_cell_length_a                   10.8639(15)
_cell_length_b                   18.667(3)
_cell_length_c                   19.840(3)
_cell_angle_alpha                98.035(2)
_cell_angle_beta                 96.535(2)
_cell_angle_gamma                106.185(2)
_cell_volume                     3776.39
loop_
_atom_site_label
_atom_site_type_symbol
_atom_site_fract_x
_atom_site_fract_y
_atom_site_fract_z
C1 C 0.940(3) 0.1247(17) 0.0715(18)
H1 H 1.0030 0.1112 0.0985
C2 C 0.5515(11) -0.0034(7) 0.2491(6)
C3 C 1.021(3) 0.386(2) -0.0480(19)
H2 H 0.9286 0.3737 -0.0616
H3 H 1.0521 0.3491 -0.0736
H4 H 1.0626 0.4354 -0.0571
C4 C 0.4122(10) -0.0001(6) 0.2438(6)
N1 N 0.967(3) 0.1221(17) 0.0016(17)
C5 C 0.9565(19) 0.3810(11) 0.0666(11)
H5 H 0.8762 0.3789 0.0429
C6 C 0.3796(11) 0.0576(7) 0.2196(6)
H6 H 0.4438 0.0956 0.2070
C7 C 0.2563(10) 0.0615(6) 0.2132(6)
H7 H 0.2361 0.1013 0.1957
C8 C 0.1592(9) 0.0051(6) 0.2332(5)
C9 C 1.179(2) 0.3895(15) 0.0601(13)
H8 H 1.2184 0.3611 0.0297
H9 H 1.1719 0.3687 0.1016
H10 H 1.2324 0.4415 0.0714
C10 C 0.0237(11) 0.0097(8) 0.2294(6)
C11 C 0.1938(10) -0.0535(7) 0.2576(7)
H11 H 0.1314 -0.0912 0.2718
C12 C 0.3151(11) -0.0570(7) 0.2611(7)
H12 H 0.3350 -0.0983 0.2755
C13 C 0.8639(11) 0.0782(7) 0.3653(6)
C14 C 0.9090(10) 0.1112(6) 0.4405(6)
C15 C 0.9520(12) 0.1889(7) 0.4611(6)
H13 H 0.9469 0.2202 0.4289
C16 C 1.0025(11) 0.2204(6) 0.5292(6)
H14 H 1.0278 0.2727 0.5436
C17 C 1.0151(10) 0.1729(6) 0.5759(5)
C18 C 1.0863(10) 0.2062(6) 0.6494(6)
C19 C 0.9620(11) 0.0952(6) 0.5558(6)
H15 H 0.9599 0.0635 0.5882
C20 C 0.9142(12) 0.0664(6) 0.4903(6)
H16 H 0.8828 0.0139 0.4770
C21 C 0.6618(11) 0.2160(7) 0.1346(6)
C22 C 0.5642(11) 0.1790(6) 0.0710(6)
C23 C 0.5321(15) 0.2197(7) 0.0222(8)
H17 H 0.5667 0.2723 0.0316
C24 C 0.4508(13) 0.1860(8) -0.0402(7)
H18 H 0.4378 0.2147 -0.0735
C25 C 0.3910(11) 0.1107(6) -0.0512(6)
C26 C 0.3106(12) 0.0704(9) -0.1162(7)
C27 C 0.4192(12) 0.0683(7) -0.0025(6)
H19 H 0.3800 0.0161 -0.0109
C28 C 0.5045(11) 0.1025(6) 0.0580(6)
H20 H 0.5214 0.0732 0.0902
C29 C 1.0143(10) 0.2910(6) 0.2416(6)
C30 C 1.1570(10) 0.3277(6) 0.2470(6)
C31 C 1.2135(10) 0.4024(6) 0.2780(6)
H21 H 1.1638 0.4306 0.2974
C32 C 1.3444(10) 0.4348(6) 0.2800(7)
H22 H 1.3829 0.4851 0.3013
C33 C 1.4202(9) 0.3944(7) 0.2509(6)
C34 C 1.5661(11) 0.4371(8) 0.2560(6)
C35 C 1.3649(10) 0.3196(6) 0.2218(7)
H23 H 1.4158 0.2913 0.2041
C36 C 1.2355(10) 0.2869(6) 0.2189(7)
H24 H 1.1982 0.2364 0.1978
C37 C 1.0193(10) 0.5836(8) 0.2170(6)
C38 C 1.1568(10) 0.6151(6) 0.2065(6)
C39 C 1.2123(10) 0.6946(7) 0.2120(7)
H25 H 1.1602 0.7264 0.2163
C40 C 1.3440(10) 0.7249(7) 0.2111(6)
H26 H 1.3786 0.7763 0.2105
C41 C 1.4231(10) 0.6792(6) 0.2110(6)
C42 C 1.5681(10) 0.7126(6) 0.2222(5)
C43 C 1.3701(10) 0.6017(6) 0.2040(6)
H27 H 1.4230 0.5702 0.2010
C44 C 1.2358(11) 0.5706(7) 0.2015(6)
H28 H 1.2004 0.5183 0.1963
C45 C 0.6844(10) 0.4910(7) 0.1145(6)
C46 C 0.5899(10) 0.4952(7) 0.0544(6)
C47 C 0.5409(10) 0.5576(6) 0.0560(6)
H29 H 0.5678 0.5965 0.0942
C48 C 0.5460(11) 0.4383(7) -0.0018(6)
H30 H 0.5756 0.3960 -0.0034
C49 C 0.8899(10) 0.5037(7) 0.3613(6)
C50 C 0.9463(9) 0.5017(6) 0.4343(5)
C51 C 0.9448(11) 0.5544(7) 0.4875(5)
H31 H 0.9074 0.5922 0.4793
C52 C 1.0014(11) 0.4462(6) 0.4447(5)
H32 H 1.0034 0.4098 0.4081
N2 N 1.0496(19) 0.3854(10) 0.0261(10)
O1 O 0.6319(7) 0.0525(5) 0.2394(5)
O2 O 0.5700(7) -0.0625(5) 0.2622(6)
O3 O -0.0008(7) 0.0654(5) 0.2089(5)
O4 O -0.0584(7) -0.0430(6) 0.2462(5)
O5 O 0.8715(7) 0.1213(5) 0.3216(4)
O6 O 0.8168(10) 0.0072(5) 0.3491(4)
O7 O 1.1087(7) 0.2756(4) 0.6670(4)
O8 O 1.1165(7) 0.1619(4) 0.6853(4)
O9 O 0.6936(7) 0.1751(4) 0.1717(4)
O10 O 0.7031(8) 0.2870(4) 0.1466(4)
O11 O 0.2861(10) 0.1103(6) -0.1590(5)
O12 O 0.2660(8) 0.0005(5) -0.1275(4)
O13 O 0.9772(7) 0.2211(4) 0.2351(5)
O14 O 0.9428(6) 0.3329(4) 0.2473(4)
O15 O 1.6017(7) 0.5054(5) 0.2759(5)
O16 O 1.6297(7) 0.3961(5) 0.2314(5)
O17 O 0.9738(7) 0.5152(4) 0.2090(4)
O18 O 0.9583(8) 0.6299(5) 0.2315(5)
O19 O 1.6112(7) 0.7805(4) 0.2314(5)
O20 O 1.6363(7) 0.6692(4) 0.2204(4)
O21 O 0.7292(8) 0.4363(4) 0.1090(4)
O22 O 0.7142(7) 0.5431(5) 0.1633(4)
O23 O 0.8726(8) 0.4454(5) 0.3169(4)
O24 O 0.8691(7) 0.5645(5) 0.3519(4)
O25 O 0.8768(13) 0.1360(7) 0.0997(6)
O26 O 1.6591(8) 0.6391(5) 0.3632(4)
H33 H 1.6440 0.6027 0.3864
H34 H 1.7080 0.6799 0.3901
O27 O 1.6597(9) 0.8645(5) 0.3696(5)
H35 H 1.7168 0.8571 0.3996
H36 H 1.6313 0.9000 0.3883
O28 O 0.9563(10) 0.3795(6) 0.1216(5)
C53 C 1.071(3) 0.099(2) -0.036(2)
H37 H 1.1508 0.1395 -0.0252
H38 H 1.0418 0.0879 -0.0848
H39 H 1.0848 0.0545 -0.0210
C54 C 0.863(3) 0.1330(19) -0.0296(17)
H40 H 0.8222 0.0916 -0.0671
H41 H 0.8870 0.1796 -0.0470
H42 H 0.8042 0.1358 0.0025
Tm1 Tm 0.82337(4) 0.10802(3) 0.20515(2)
Tm2 Tm 0.82746(4) 0.40084(3) 0.20225(2)
Tm3 Tm 1.76366(4) 0.61027(3) 0.27155(2)
Tm4 Tm 1.75087(4) 0.89848(3) 0.27409(2)
C45A C 0.3156(10) 0.5090(7) -0.1145(6)
C46A C 0.4101(10) 0.5048(7) -0.0544(6)
C47A C 0.4591(10) 0.4424(6) -0.0560(6)
H29A H 0.4322 0.4035 -0.0942
C48A C 0.4540(11) 0.5617(7) 0.0018(6)
H30A H 0.4244 0.6040 0.0034
O21A O 0.2708(8) 0.5637(4) -0.1090(4)
O22A O 0.2858(7) 0.4569(5) -0.1633(4)
C49A C 1.1101(10) 0.4963(7) 0.6387(6)
C50A C 1.0537(9) 0.4983(6) 0.5657(5)
C51A C 1.0552(11) 0.4456(7) 0.5125(5)
H31A H 1.0926 0.4078 0.5207
C52A C 0.9986(11) 0.5538(6) 0.5553(5)
H32A H 0.9966 0.5902 0.5919
O23A O 1.1274(8) 0.5546(5) 0.6831(4)
O24A O 1.1309(7) 0.4355(5) 0.6481(4)
C1A C 0.060(3) -0.1247(17) -0.0715(18)
H1A H -0.0030 -0.1112 -0.0985
C2A C 0.4485(11) 0.0034(7) -0.2491(6)
C3A C -0.021(3) -0.386(2) 0.0480(19)
H2A H 0.0714 -0.3737 0.0616
H3A H -0.0521 -0.3491 0.0736
H4A H -0.0626 -0.4354 0.0571
C4A C 0.5878(10) 0.0001(6) -0.2438(6)
N1A N 0.033(3) -0.1221(17) -0.0016(17)
C5A C 0.0435(19) -0.3810(11) -0.0666(11)
H5A H 0.1238 -0.3789 -0.0429
C6A C 0.6204(11) -0.0576(7) -0.2196(6)
H6A H 0.5562 -0.0956 -0.2070
C7A C 0.7437(10) -0.0615(6) -0.2132(6)
H7A H 0.7639 -0.1013 -0.1957
C8A C 0.8408(9) -0.0051(6) -0.2332(5)
C9A C -0.179(2) -0.3895(15) -0.0601(13)
H8A H -0.2184 -0.3611 -0.0297
H9A H -0.1719 -0.3687 -0.1016
H10A H -0.2324 -0.4415 -0.0714
C10A C 0.9763(11) -0.0097(8) -0.2294(6)
C11A C 0.8062(10) 0.0535(7) -0.2576(7)
H11A H 0.8686 0.0912 -0.2718
C12A C 0.6849(11) 0.0570(7) -0.2611(7)
H12A H 0.6650 0.0983 -0.2755
C13A C 0.1361(11) -0.0782(7) -0.3653(6)
C14A C 0.0910(10) -0.1112(6) -0.4405(6)
C15A C 0.0480(12) -0.1889(7) -0.4611(6)
H13A H 0.0531 -0.2202 -0.4289
C16A C -0.0025(11) -0.2204(6) -0.5292(6)
H14A H -0.0278 -0.2727 -0.5436
C17A C -0.0151(10) -0.1729(6) -0.5759(5)
C18A C -0.0863(10) -0.2062(6) -0.6494(6)
C19A C 0.0380(11) -0.0952(6) -0.5558(6)
H15A H 0.0401 -0.0635 -0.5882
C20A C 0.0858(12) -0.0664(6) -0.4903(6)
H16A H 0.1172 -0.0139 -0.4770
C21A C 0.3382(11) -0.2160(7) -0.1346(6)
C22A C 0.4358(11) -0.1790(6) -0.0710(6)
C23A C 0.4679(15) -0.2197(7) -0.0222(8)
H17A H 0.4333 -0.2723 -0.0316
C24A C 0.5492(13) -0.1860(8) 0.0402(7)
H18A H 0.5622 -0.2147 0.0735
C25A C 0.6090(11) -0.1107(6) 0.0512(6)
C26A C 0.6894(12) -0.0704(9) 0.1162(7)
C27A C 0.5808(12) -0.0683(7) 0.0025(6)
H19A H 0.6200 -0.0161 0.0109
C28A C 0.4955(11) -0.1025(6) -0.0580(6)
H20A H 0.4786 -0.0732 -0.0902
C29A C -0.0143(10) -0.2910(6) -0.2416(6)
C30A C -0.1570(10) -0.3277(6) -0.2470(6)
C31A C -0.2135(10) -0.4024(6) -0.2780(6)
H21A H -0.1638 -0.4306 -0.2974
C32A C -0.3444(10) -0.4348(6) -0.2800(7)
H22A H -0.3829 -0.4851 -0.3013
C33A C -0.4202(9) -0.3944(7) -0.2509(6)
C34A C -0.5661(11) -0.4371(8) -0.2560(6)
C35A C -0.3649(10) -0.3196(6) -0.2218(7)
H23A H -0.4158 -0.2913 -0.2041
C36A C -0.2355(10) -0.2869(6) -0.2189(7)
H24A H -0.1982 -0.2364 -0.1978
C37A C -0.0193(10) -0.5836(8) -0.2170(6)
C38A C -0.1568(10) -0.6151(6) -0.2065(6)
C39A C -0.2123(10) -0.6946(7) -0.2120(7)
H25A H -0.1602 -0.7264 -0.2163
C40A C -0.3440(10) -0.7249(7) -0.2111(6)
H26A H -0.3786 -0.7763 -0.2105
C41A C -0.4231(10) -0.6792(6) -0.2110(6)
C42A C -0.5681(10) -0.7126(6) -0.2222(5)
C43A C -0.3701(10) -0.6017(6) -0.2040(6)
H27A H -0.4230 -0.5702 -0.2010
C44A C -0.2358(11) -0.5706(7) -0.2015(6)
H28A H -0.2004 -0.5183 -0.1963
N2A N -0.0496(19) -0.3854(10) -0.0261(10)
O1A O 0.3681(7) -0.0525(5) -0.2394(5)
O2A O 0.4300(7) 0.0625(5) -0.2622(6)
O3A O 1.0008(7) -0.0654(5) -0.2089(5)
O4A O 1.0584(7) 0.0430(6) -0.2462(5)
O5A O 0.1285(7) -0.1213(5) -0.3216(4)
O6A O 0.1832(10) -0.0072(5) -0.3491(4)
O7A O -0.1087(7) -0.2756(4) -0.6670(4)
O8A O -0.1165(7) -0.1619(4) -0.6853(4)
O9A O 0.3064(7) -0.1751(4) -0.1717(4)
O10A O 0.2969(8) -0.2870(4) -0.1466(4)
O11A O 0.7139(10) -0.1103(6) 0.1590(5)
O12A O 0.7340(8) -0.0005(5) 0.1275(4)
O13A O 0.0228(7) -0.2211(4) -0.2351(5)
O14A O 0.0572(6) -0.3329(4) -0.2473(4)
O15A O -0.6017(7) -0.5054(5) -0.2759(5)
O16A O -0.6297(7) -0.3961(5) -0.2314(5)
O17A O 0.0262(7) -0.5152(4) -0.2090(4)
O18A O 0.0417(8) -0.6299(5) -0.2315(5)
O19A O -0.6112(7) -0.7805(4) -0.2314(5)
O20A O -0.6363(7) -0.6692(4) -0.2204(4)
O25A O 0.1232(13) -0.1360(7) -0.0997(6)
O26A O -0.6591(8) -0.6391(5) -0.3632(4)
H33A H -0.6440 -0.6027 -0.3864
H34A H -0.7080 -0.6799 -0.3901
O27A O -0.6597(9) -0.8645(5) -0.3696(5)
H35A H -0.7168 -0.8571 -0.3996
H36A H -0.6313 -0.9000 -0.3883
O28A O 0.0437(10) -0.3795(6) -0.1216(5)
C53A C -0.071(3) -0.099(2) 0.036(2)
H37A H -0.1508 -0.1395 0.0252
H38A H -0.0418 -0.0879 0.0848
H39A H -0.0848 -0.0545 0.0210
C54A C 0.137(3) -0.1330(19) 0.0296(17)
H40A H 0.1778 -0.0916 0.0671
H41A H 0.1130 -0.1796 0.0470
H42A H 0.1958 -0.1358 -0.0025
Tm1A Tm 0.17663(4) -0.10802(3) -0.20515(2)
Tm2A Tm 0.17254(4) -0.40084(3) -0.20225(2)
Tm3A Tm -0.76366(4) -0.61027(3) -0.27155(2)
Tm4A Tm -0.75087(4) -0.89848(3) -0.27409(2)
O2_2 O 1.5700(7) 0.9375(5) 0.2622(6)
O2A_2 O -0.5700(7) -0.9375(5) -0.2622(6)
O3_2 O 0.9992(7) 0.0654(5) 0.2089(5)
O3A_2 O 0.0008(7) -0.0654(5) -0.2089(5)
O4_2 O 1.9416(7) 0.9570(6) 0.2462(5)
O4A_2 O -0.9416(7) -0.9570(6) -0.2462(5)
O6_2 O 1.8168(10) 1.0072(5) 0.3491(4)
O6A_2 O -0.8168(10) -1.0072(5) -0.3491(4)
O7_2 O -0.8913(7) -0.7244(4) -0.3330(4)
O7A_2 O 1.8913(7) 0.7244(4) 0.3330(4)
O8_2 O -0.8835(7) -0.8381(4) -0.3147(4)
O8A_2 O 1.8835(7) 0.8381(4) 0.3147(4)
O11_2 O -0.7139(10) -0.8897(6) -0.1590(5)
O11A_2 O 1.7139(10) 0.8897(6) 0.1590(5)
O16_2 O 0.6297(7) 0.3961(5) 0.2314(5)
O16A_2 O 0.3703(7) -0.3961(5) -0.2314(5)
O18_2 O 1.9583(8) 0.6299(5) 0.2315(5)
O18A_2 O -0.9583(8) -0.6299(5) -0.2315(5)
O21A_2 O 0.2708(8) -0.4363(4) -0.1090(4)
O22_2 O 1.7142(7) 0.5431(5) 0.1633(4)
O22A_2 O -0.7142(7) -0.5431(5) -0.1633(4)
O23A_2 O 0.1274(8) -0.4454(5) -0.3169(4)
O24_2 O 1.8691(7) 0.5645(5) 0.3519(4)
O24A_2 O -0.8691(7) -0.5645(5) -0.3519(4)
Tm1_2 Tm -0.17663(4) 0.10802(3) 0.20515(2)
Tm1A_2 Tm 1.17663(4) -0.10802(3) -0.20515(2)
Tm2_2 Tm 1.82746(4) 0.40084(3) 0.20225(2)
Tm2A_2 Tm -0.82746(4) -0.40084(3) -0.20225(2)
Tm2A_3 Tm 0.17254(4) 0.59916(3) -0.20225(2)
Tm2A_4 Tm 1.17254(4) 0.59916(3) 0.79775(2)
Tm3_2 Tm -0.23634(4) -0.38973(3) -0.72845(2)
Tm3_3 Tm 0.76366(4) 0.61027(3) 0.27155(2)
Tm3A_2 Tm 0.23634(4) -0.61027(3) -0.27155(2)
Tm3A_3 Tm 0.23634(4) 0.38973(3) -0.27155(2)
Tm3A_4 Tm 1.23634(4) 0.38973(3) 0.72845(2)
Tm4_2 Tm -0.24913(4) -0.10152(3) -0.72591(2)
Tm4_3 Tm -0.24913(4) -0.10152(3) 0.27409(2)
Tm4_4 Tm 0.75087(4) -0.10152(3) 0.27409(2)
Tm4A_2 Tm 0.24913(4) 0.10152(3) -0.27409(2)
Tm4A_3 Tm 1.24913(4) 0.10152(3) -0.27409(2)
Tm4A_4 Tm 1.24913(4) 0.10152(3) 0.72591(2)
loop_
_geom_bond_atom_site_label_1
_geom_bond_atom_site_label_2
_geom_bond_site_symmetry_1
_geom_bond_site_symmetry_2
C1 H1 1_555 1_555
C2 C4 1_555 1_555
C3 H2 1_555 1_555
H3 C3 1_555 1_555
H4 C3 1_555 1_555
C4 C6 1_555 1_555
N1 C1 1_555 1_555
C5 H5 1_555 1_555
C6 H6 1_555 1_555
C7 C6 1_555 1_555
H7 C7 1_555 1_555
C8 C7 1_555 1_555
C9 H8 1_555 1_555
H9 C9 1_555 1_555
H10 C9 1_555 1_555
C10 C8 1_555 1_555
C11 C8 1_555 1_555
H11 C11 1_555 1_555
C12 C4 1_555 1_555
H12 C12 1_555 1_555
C13 C14 1_555 1_555
C14 C15 1_555 1_555
C15 H13 1_555 1_555
C16 C15 1_555 1_555
H14 C16 1_555 1_555
C17 C16 1_555 1_555
C18 C17 1_555 1_555
C19 C17 1_555 1_555
H15 C19 1_555 1_555
C20 C14 1_555 1_555
H16 C20 1_555 1_555
C21 C22 1_555 1_555
C22 C23 1_555 1_555
C23 H17 1_555 1_555
C24 C23 1_555 1_555
H18 C24 1_555 1_555
C25 C24 1_555 1_555
C26 C25 1_555 1_555
C27 C25 1_555 1_555
H19 C27 1_555 1_555
C28 C22 1_555 1_555
H20 C28 1_555 1_555
C29 C30 1_555 1_555
C30 C31 1_555 1_555
C31 H21 1_555 1_555
C32 C31 1_555 1_555
H22 C32 1_555 1_555
C33 C32 1_555 1_555
C34 C33 1_555 1_555
C35 C33 1_555 1_555
H23 C35 1_555 1_555
C36 C30 1_555 1_555
H24 C36 1_555 1_555
C37 C38 1_555 1_555
C38 C39 1_555 1_555
C39 H25 1_555 1_555
C40 C39 1_555 1_555
H26 C40 1_555 1_555
C41 C40 1_555 1_555
C42 C41 1_555 1_555
C43 C41 1_555 1_555
H27 C43 1_555 1_555
C44 C38 1_555 1_555
H28 C44 1_555 1_555
C45 C46 1_555 1_555
C46 C47 1_555 1_555
C47 H29 1_555 1_555
C48 C46 1_555 1_555
H30 C48 1_555 1_555
C49 C50 1_555 1_555
C50 C51 1_555 1_555
C51 H31 1_555 1_555
C52 C50 1_555 1_555
H32 C52 1_555 1_555
N2 C3 1_555 1_555
O1 C2 1_555 1_555
O2 C2 1_555 1_555
O3 C10 1_555 1_555
O4 C10 1_555 1_555
O5 C13 1_555 1_555
O6 C13 1_555 1_555
O7 C18 1_555 1_555
O8 C18 1_555 1_555
O9 C21 1_555 1_555
O10 C21 1_555 1_555
O11 C26 1_555 1_555
O12 C26 1_555 1_555
O13 C29 1_555 1_555
O14 C29 1_555 1_555
O15 C34 1_555 1_555
O16 C34 1_555 1_555
O17 C37 1_555 1_555
O18 C37 1_555 1_555
O19 C42 1_555 1_555
O20 C42 1_555 1_555
O21 C45 1_555 1_555
O22 C45 1_555 1_555
O23 C49 1_555 1_555
O24 C49 1_555 1_555
O25 C1 1_555 1_555
O26 H33 1_555 1_555
H34 O26 1_555 1_555
O27 H35 1_555 1_555
H36 O27 1_555 1_555
O28 C5 1_555 1_555
C53 N1 1_555 1_555
H37 C53 1_555 1_555
H38 C53 1_555 1_555
H39 C53 1_555 1_555
C54 N1 1_555 1_555
H40 C54 1_555 1_555
H41 C54 1_555 1_555
H42 C54 1_555 1_555
Tm1 O1 1_555 1_555
Tm2 O10 1_555 1_555
Tm3 O15 1_555 1_555
Tm4 O19 1_555 1_555
C45A C46A 1_555 1_555
C46A C47A 1_555 1_555
C47A C48 1_555 1_555
H29A C47A 1_555 1_555
C48A C47 1_555 1_555
H30A C48A 1_555 1_555
O21A C45A 1_555 1_555
O22A C45A 1_555 1_555
C49A C50A 1_555 1_555
C50A C51A 1_555 1_555
C51A C52 1_555 1_555
H31A C51A 1_555 1_555
C52A C51 1_555 1_555
H32A C52A 1_555 1_555
O23A C49A 1_555 1_555
O24A C49A 1_555 1_555
C1A H1A 1_555 1_555
C2A C4A 1_555 1_555
C3A H2A 1_555 1_555
H3A C3A 1_555 1_555
H4A C3A 1_555 1_555
C4A C6A 1_555 1_555
N1A C1A 1_555 1_555
C5A H5A 1_555 1_555
C6A H6A 1_555 1_555
C7A C6A 1_555 1_555
H7A C7A 1_555 1_555
C8A C7A 1_555 1_555
C9A H8A 1_555 1_555
H9A C9A 1_555 1_555
H10A C9A 1_555 1_555
C10A C8A 1_555 1_555
C11A C8A 1_555 1_555
H11A C11A 1_555 1_555
C12A C4A 1_555 1_555
H12A C12A 1_555 1_555
C13A C14A 1_555 1_555
C14A C15A 1_555 1_555
C15A H13A 1_555 1_555
C16A C15A 1_555 1_555
H14A C16A 1_555 1_555
C17A C16A 1_555 1_555
C18A C17A 1_555 1_555
C19A C17A 1_555 1_555
H15A C19A 1_555 1_555
C20A C14A 1_555 1_555
H16A C20A 1_555 1_555
C21A C22A 1_555 1_555
C22A C23A 1_555 1_555
C23A H17A 1_555 1_555
C24A C23A 1_555 1_555
H18A C24A 1_555 1_555
C25A C24A 1_555 1_555
C26A C25A 1_555 1_555
C27A C25A 1_555 1_555
H19A C27A 1_555 1_555
C28A C22A 1_555 1_555
H20A C28A 1_555 1_555
C29A C30A 1_555 1_555
C30A C31A 1_555 1_555
C31A H21A 1_555 1_555
C32A C31A 1_555 1_555
H22A C32A 1_555 1_555
C33A C32A 1_555 1_555
C34A C33A 1_555 1_555
C35A C33A 1_555 1_555
H23A C35A 1_555 1_555
C36A C30A 1_555 1_555
H24A C36A 1_555 1_555
C37A C38A 1_555 1_555
C38A C39A 1_555 1_555
C39A H25A 1_555 1_555
C40A C39A 1_555 1_555
H26A C40A 1_555 1_555
C41A C40A 1_555 1_555
C42A C41A 1_555 1_555
C43A C41A 1_555 1_555
H27A C43A 1_555 1_555
C44A C38A 1_555 1_555
H28A C44A 1_555 1_555
N2A C3A 1_555 1_555
O1A C2A 1_555 1_555
O2A C2A 1_555 1_555
O3A C10A 1_555 1_555
O4A C10A 1_555 1_555
O5A C13A 1_555 1_555
O6A C13A 1_555 1_555
O7A C18A 1_555 1_555
O8A C18A 1_555 1_555
O9A C21A 1_555 1_555
O10A C21A 1_555 1_555
O11A C26A 1_555 1_555
O12A Tm1 1_555 1_555
O13A C29A 1_555 1_555
O14A C29A 1_555 1_555
O15A C34A 1_555 1_555
O16A C34A 1_555 1_555
O17A C37A 1_555 1_555
O18A C37A 1_555 1_555
O19A C42A 1_555 1_555
O20A C42A 1_555 1_555
O25A C1A 1_555 1_555
O26A H33A 1_555 1_555
H34A O26A 1_555 1_555
O27A H35A 1_555 1_555
H36A O27A 1_555 1_555
O28A C5A 1_555 1_555
C53A N1A 1_555 1_555
H37A C53A 1_555 1_555
H38A C53A 1_555 1_555
H39A C53A 1_555 1_555
C54A N1A 1_555 1_555
H40A C54A 1_555 1_555
H41A C54A 1_555 1_555
H42A C54A 1_555 1_555
Tm1A O12 1_555 1_555
Tm2A O10A 1_555 1_555
Tm3A O15A 1_555 1_555
Tm4A O19A 1_555 1_555
O2_2 Tm4 1_555 1_555
O2A_2 Tm4A 1_555 1_555
O3_2 Tm1 1_555 1_555
O3A_2 Tm1A 1_555 1_555
O4_2 Tm4 1_555 1_555
O4A_2 Tm4A 1_555 1_555
O6_2 Tm4 1_555 1_555
O6A_2 Tm4A 1_555 1_555
O7_2 Tm3A 1_555 1_555
O7A_2 Tm3 1_555 1_555
O8_2 Tm4A 1_555 1_555
O8A_2 Tm4 1_555 1_555
O11_2 Tm4A 1_555 1_555
O11A_2 Tm4 1_555 1_555
O16_2 Tm2 1_555 1_555
O16A_2 Tm2A 1_555 1_555
O18_2 Tm3 1_555 1_555
O18A_2 Tm3A 1_555 1_555
O21A_2 Tm2A 1_555 1_555
O22_2 Tm3 1_555 1_555
O22A_2 Tm3A 1_555 1_555
O23A_2 Tm2A 1_555 1_555
O24_2 Tm3 1_555 1_555
O24A_2 Tm3A 1_555 1_555
Tm1_2 O3 1_555 1_555
Tm1A_2 O3A 1_555 1_555
Tm2_2 O16 1_555 1_555
Tm2A_2 O16A 1_555 1_555
Tm2A_3 O21A 1_555 1_555
Tm2A_4 O23A 1_555 1_555
Tm3_2 O7A 1_555 1_555
Tm3_3 O18 1_555 1_555
Tm3A_2 O18A 1_555 1_555
Tm3A_3 O22A 1_555 1_555
Tm3A_4 O7 1_555 1_555
Tm4_2 O8A 1_555 1_555
Tm4_3 O4 1_555 1_555
Tm4_4 O2 1_555 1_555
Tm4A_2 O11 1_555 1_555
Tm4A_3 O4A 1_555 1_555
Tm4A_4 O8 1_555 1_555
C5 N2 1_555 1_555
C9 N2 1_555 1_555
C11 C12 1_555 1_555
C19 C20 1_555 1_555
C27 C28 1_555 1_555
C35 C36 1_555 1_555
C43 C44 1_555 1_555
O5 Tm1 1_555 1_555
O6 Tm4_4 1_555 1_555
O9 Tm1 1_555 1_555
O13 Tm1 1_555 1_555
O14 Tm2 1_555 1_555
O17 Tm2 1_555 1_555
O20 Tm3 1_555 1_555
O21 Tm2 1_555 1_555
O22 Tm3_3 1_555 1_555
O23 Tm2 1_555 1_555
O24 Tm3_3 1_555 1_555
O25 Tm1 1_555 1_555
O26 Tm3 1_555 1_555
O27 Tm4 1_555 1_555
O28 Tm2 1_555 1_555
C46A C48A 1_555 1_555
C50A C52A 1_555 1_555
O24A Tm3A_4 1_555 1_555
C5A N2A 1_555 1_555
C9A N2A 1_555 1_555
C11A C12A 1_555 1_555
C19A C20A 1_555 1_555
C26A O12A 1_555 1_555
C27A C28A 1_555 1_555
C35A C36A 1_555 1_555
C43A C44A 1_555 1_555
O1A Tm1A 1_555 1_555
O2A Tm4A_2 1_555 1_555
O5A Tm1A 1_555 1_555
O6A Tm4A_2 1_555 1_555
O9A Tm1A 1_555 1_555
O11A Tm4_4 1_555 1_555
O13A Tm1A 1_555 1_555
O14A Tm2A 1_555 1_555
O17A Tm2A 1_555 1_555
O20A Tm3A 1_555 1_555
O25A Tm1A 1_555 1_555
O26A Tm3A 1_555 1_555
O27A Tm4A 1_555 1_555
O28A Tm2A 1_555 1_555

#END
