
#######################################################################
#
#                 Cambridge Crystallographic Data Centre
#                                CCDC 
#
#######################################################################
#
# If this CIF has been generated from an entry in the Cambridge 
# Structural Database, then it will include bibliographic, chemical, 
# crystal, experimental, refinement or atomic coordinate data resulting 
# from the CCDC's data processing and validation procedures.
#
#######################################################################

data_KINJUO
_symmetry_cell_setting           monoclinic
_symmetry_space_group_name_H-M   'P 21/c'
_symmetry_Int_Tables_number      14
_space_group_name_Hall           '-P 2ybc'
loop_
_symmetry_equiv_pos_site_id
_symmetry_equiv_pos_as_xyz
1 x,y,z
2 -x,1/2+y,1/2-z
3 -x,-y,-z
4 x,1/2-y,1/2+z
_cell_length_a                   16.023(5)
_cell_length_b                   24.182(6)
_cell_length_c                   10.566(5)
_cell_angle_alpha                90
_cell_angle_beta                 104.666(5)
_cell_angle_gamma                90
_cell_volume                     3960.6
loop_
_atom_site_label
_atom_site_type_symbol
_atom_site_fract_x
_atom_site_fract_y
_atom_site_fract_z
Cd1 Cd 0.039080(19) 0.090556(14) 0.69975(3)
O1 O -0.0338(2) 0.12089(15) 0.8525(3)
O2 O -0.0734(2) 0.15988(14) 0.6557(4)
O3 O -0.8337(2) 0.35389(14) 1.2504(3)
O4 O -0.8844(2) 0.38752(15) 1.0521(3)
N1 N 0.1161(2) 0.03041(16) 0.8475(4)
N2 N 0.2062(2) 0.00067(16) 1.0289(3)
N3 N 0.4854(3) -0.02196(18) 1.4724(4)
N4 N -0.4717(2) 0.01816(17) 0.0051(4)
N5 N -0.1951(2) 0.01454(16) 0.4564(3)
N6 N -0.0701(2) 0.03340(17) 0.5952(3)
C1 C 0.1899(3) 0.0399(2) 0.9347(4)
H1 H 0.2259 0.0698 0.9316
C2 C 0.0848(3) -0.0175(2) 0.8880(5)
H2 H 0.0335 -0.0348 0.8454
C3 C 0.1397(3) -0.0356(2) 0.9989(5)
H3 H 0.1332 -0.0671 1.0459
C4 C 0.2792(3) -0.0033(2) 1.1381(4)
C5 C 0.3226(3) 0.0443(2) 1.1912(5)
H4 H 0.3053 0.0787 1.1545
C6 C 0.3930(3) 0.0398(2) 1.3013(5)
H5 H 0.4235 0.0711 1.3375
C7 C 0.4170(3) -0.0127(2) 1.3564(5)
C8 C 0.3747(3) -0.0595(2) 1.2995(4)
H6 H 0.3924 -0.0942 1.3341
C9 C 0.3053(3) -0.0548(2) 1.1900(5)
H7 H 0.2764 -0.0863 1.1517
C10 C -0.1155(3) 0.0372(2) 0.4724(4)
H8 H -0.0956 0.0532 0.4056
C11 C -0.1237(3) 0.0079(2) 0.6615(5)
H9 H -0.1092 0.0002 0.7506
C12 C -0.1998(3) -0.0041(2) 0.5779(5)
H10 H -0.2466 -0.0215 0.5980
C13 C -0.2644(3) 0.0131(2) 0.3406(4)
C14 C -0.2688(3) 0.0529(2) 0.2445(4)
H11 H -0.2259 0.0796 0.2532
C15 C -0.3383(3) 0.0520(2) 0.1353(5)
H12 H -0.3416 0.0784 0.0703
C16 C -0.4020(3) 0.0132(2) 0.1208(4)
C17 C -0.3958(3) -0.0268(2) 0.2143(5)
H13 H -0.4379 -0.0541 0.2036
C18 C -0.3269(3) -0.0269(2) 0.3253(5)
H14 H -0.3232 -0.0540 0.3889
C19 C -0.0850(3) 0.1516(2) 0.7694(5)
C20 C -0.1603(3) 0.17624(19) 0.8035(5)
C21 C -0.2305(3) 0.1944(2) 0.7084(5)
H15 H -0.2287 0.1933 0.6212
C22 C -0.3048(3) 0.2144(2) 0.7404(5)
H16 H -0.3512 0.2273 0.6754
C23 C -0.3080(3) 0.21450(19) 0.8717(5)
C24 C -0.2377(3) 0.1965(2) 0.9674(5)
H17 H -0.2396 0.1974 1.0546
C25 C -0.1645(3) 0.1770(2) 0.9359(5)
H18 H -0.1180 0.1645 1.0014
C26 C -0.3874(3) 0.2346(2) 0.9071(4)
C27 C -0.4125(3) 0.2902(2) 0.8941(4)
C28 C -0.4862(3) 0.30507(19) 0.9344(4)
H19 H -0.5034 0.3419 0.9265
C29 C -0.5345(3) 0.26794(19) 0.9850(4)
C30 C -0.5105(3) 0.2121(2) 0.9974(4)
C31 C -0.4371(3) 0.1972(2) 0.9572(4)
H20 H -0.4203 0.1603 0.9642
C32 C -0.3624(3) 0.3334(2) 0.8421(5)
H21 H -0.3902 0.3687 0.8408
H22 H -0.3602 0.3237 0.7549
H23 H -0.3048 0.3355 0.8973
C33 C -0.5602(3) 0.1685(2) 1.0492(5)
H24 H -0.6089 0.1851 1.0715
H25 H -0.5235 0.1518 1.1256
H26 H -0.5798 0.1407 0.9834
C34 C -0.6127(3) 0.2897(2) 1.0228(4)
C35 C -0.6762(3) 0.3177(2) 0.9321(4)
H27 H -0.6720 0.3207 0.8462
C36 C -0.7449(3) 0.3410(2) 0.9665(4)
H28 H -0.7862 0.3605 0.9048
C37 C -0.7532(3) 0.3357(2) 1.0946(4)
C38 C -0.6897(3) 0.3070(2) 1.1867(5)
H29 H -0.6943 0.3031 1.2723
C39 C -0.6198(3) 0.2845(2) 1.1490(5)
H30 H -0.5773 0.2656 1.2101
C40 C -0.8282(3) 0.36068(19) 1.1360(5)
N1B N 0.8839(2) -0.03041(16) 2.1525(4)
N2B N 0.7938(2) -0.00067(16) 1.9711(3)
N3B N 0.5146(3) 0.02196(18) 1.5276(4)
C1B C 0.8101(3) -0.0399(2) 2.0653(4)
H1B H 0.7741 -0.0698 2.0684
C2B C 0.9152(3) 0.0175(2) 2.1120(5)
H2B H 0.9665 0.0348 2.1546
C3B C 0.8603(3) 0.0356(2) 2.0011(5)
H3B H 0.8668 0.0671 1.9541
C4B C 0.7208(3) 0.0033(2) 1.8619(4)
C5B C 0.6774(3) -0.0443(2) 1.8088(5)
H4B H 0.6947 -0.0787 1.8455
C6B C 0.6070(3) -0.0398(2) 1.6987(5)
H5B H 0.5765 -0.0711 1.6625
C7B C 0.5830(3) 0.0127(2) 1.6436(5)
C8B C 0.6253(3) 0.0595(2) 1.7005(4)
H6B H 0.6076 0.0942 1.6659
C9B C 0.6947(3) 0.0548(2) 1.8100(5)
H7B H 0.7236 0.0863 1.8483
N4B N -0.5283(2) -0.01816(17) -0.0051(4)
N5B N -0.8049(2) -0.01454(16) -0.4564(3)
N6B N -0.9299(2) -0.03340(17) -0.5952(3)
C10B C -0.8845(3) -0.0372(2) -0.4724(4)
H8B H -0.9044 -0.0532 -0.4056
C11B C -0.8763(3) -0.0079(2) -0.6615(5)
H9B H -0.8908 -0.0002 -0.7506
C12B C -0.8002(3) 0.0041(2) -0.5779(5)
H10B H -0.7534 0.0215 -0.5980
C13B C -0.7356(3) -0.0131(2) -0.3406(4)
C14B C -0.7312(3) -0.0529(2) -0.2445(4)
H11B H -0.7741 -0.0796 -0.2532
C15B C -0.6617(3) -0.0520(2) -0.1353(5)
H12B H -0.6584 -0.0784 -0.0703
C16B C -0.5980(3) -0.0132(2) -0.1208(4)
C17B C -0.6042(3) 0.0268(2) -0.2143(5)
H13B H -0.5621 0.0541 -0.2036
C18B C -0.6731(3) 0.0269(2) -0.3253(5)
H14B H -0.6768 0.0540 -0.3889
Cd1B Cd -1.039080(19) -0.090556(14) -0.69975(3)
O1B O -0.9662(2) -0.12089(15) -0.8525(3)
O2B O -0.9266(2) -0.15988(14) -0.6557(4)
O3B O -0.1663(2) -0.35389(14) -1.2504(3)
O4B O -0.1156(2) -0.38752(15) -1.0521(3)
C19B C -0.9150(3) -0.1516(2) -0.7694(5)
C20B C -0.8397(3) -0.17624(19) -0.8035(5)
C21B C -0.7695(3) -0.1944(2) -0.7084(5)
H15B H -0.7713 -0.1933 -0.6212
C22B C -0.6952(3) -0.2144(2) -0.7404(5)
H16B H -0.6488 -0.2273 -0.6754
C23B C -0.6920(3) -0.21450(19) -0.8717(5)
C24B C -0.7623(3) -0.1965(2) -0.9674(5)
H17B H -0.7604 -0.1974 -1.0546
C25B C -0.8355(3) -0.1770(2) -0.9359(5)
H18B H -0.8820 -0.1645 -1.0014
C26B C -0.6126(3) -0.2346(2) -0.9071(4)
C27B C -0.5875(3) -0.2902(2) -0.8941(4)
C28B C -0.5138(3) -0.30507(19) -0.9344(4)
H19B H -0.4966 -0.3419 -0.9265
C29B C -0.4655(3) -0.26794(19) -0.9850(4)
C30B C -0.4895(3) -0.2121(2) -0.9974(4)
C31B C -0.5629(3) -0.1972(2) -0.9572(4)
H20B H -0.5797 -0.1603 -0.9642
C32B C -0.6376(3) -0.3334(2) -0.8421(5)
H21B H -0.6098 -0.3687 -0.8408
H22B H -0.6398 -0.3237 -0.7549
H23B H -0.6952 -0.3355 -0.8973
C33B C -0.4398(3) -0.1685(2) -1.0492(5)
H24B H -0.3911 -0.1851 -1.0715
H25B H -0.4765 -0.1518 -1.1256
H26B H -0.4202 -0.1407 -0.9834
C34B C -0.3873(3) -0.2897(2) -1.0228(4)
C35B C -0.3238(3) -0.3177(2) -0.9321(4)
H27B H -0.3280 -0.3207 -0.8462
C36B C -0.2551(3) -0.3410(2) -0.9665(4)
H28B H -0.2138 -0.3605 -0.9048
C37B C -0.2468(3) -0.3357(2) -1.0946(4)
C38B C -0.3103(3) -0.3070(2) -1.1867(5)
H29B H -0.3057 -0.3031 -1.2723
C39B C -0.3802(3) -0.2845(2) -1.1490(5)
H30B H -0.4227 -0.2656 -1.2101
C40B C -0.1718(3) -0.36068(19) -1.1360(5)
Cd1A Cd -0.039080(19) -0.409444(14) -1.19975(3)
Cd1B_2 Cd 0.960920(19) -0.090556(14) 2.30025(3)
Cd1C Cd -0.960920(19) 0.409444(14) 1.19975(3)
O3A O -1.1663(2) -0.14611(14) -0.7504(3)
O3C O 0.1663(2) 0.14611(14) 0.7504(3)
O4A O -1.1156(2) -0.11248(15) -0.5521(3)
O4C O 0.1156(2) 0.11248(15) 0.5521(3)
N1B_2 N -1.1161(2) -0.03041(16) -0.8475(4)
loop_
_geom_bond_atom_site_label_1
_geom_bond_atom_site_label_2
_geom_bond_site_symmetry_1
_geom_bond_site_symmetry_2
Cd1 O1 1_555 1_555
O1 C19 1_555 1_555
O2 Cd1 1_555 1_555
O3 C40 1_555 1_555
O4 C40 1_555 1_555
N1 Cd1 1_555 1_555
N2 C1 1_555 1_555
N3 C7 1_555 1_555
N4 C16 1_555 1_555
N5 C10 1_555 1_555
N6 Cd1 1_555 1_555
C1 N1 1_555 1_555
H1 C1 1_555 1_555
C2 N1 1_555 1_555
H2 C2 1_555 1_555
C3 N2 1_555 1_555
H3 C3 1_555 1_555
C4 N2 1_555 1_555
C5 C4 1_555 1_555
H4 C5 1_555 1_555
C6 C5 1_555 1_555
H5 C6 1_555 1_555
C7 C6 1_555 1_555
C8 C7 1_555 1_555
H6 C8 1_555 1_555
C9 C4 1_555 1_555
H7 C9 1_555 1_555
C10 N6 1_555 1_555
H8 C10 1_555 1_555
C11 N6 1_555 1_555
H9 C11 1_555 1_555
C12 N5 1_555 1_555
H10 C12 1_555 1_555
C13 N5 1_555 1_555
C14 C13 1_555 1_555
H11 C14 1_555 1_555
C15 C14 1_555 1_555
H12 C15 1_555 1_555
C16 C15 1_555 1_555
C17 C16 1_555 1_555
H13 C17 1_555 1_555
C18 C13 1_555 1_555
H14 C18 1_555 1_555
C19 O2 1_555 1_555
C20 C19 1_555 1_555
C21 C20 1_555 1_555
H15 C21 1_555 1_555
C22 C21 1_555 1_555
H16 C22 1_555 1_555
C23 C22 1_555 1_555
C24 C23 1_555 1_555
H17 C24 1_555 1_555
C25 C20 1_555 1_555
H18 C25 1_555 1_555
C26 C23 1_555 1_555
C27 C26 1_555 1_555
C28 C27 1_555 1_555
H19 C28 1_555 1_555
C29 C28 1_555 1_555
C30 C29 1_555 1_555
C31 C26 1_555 1_555
H20 C31 1_555 1_555
C32 C27 1_555 1_555
H21 C32 1_555 1_555
H22 C32 1_555 1_555
H23 C32 1_555 1_555
C33 C30 1_555 1_555
H24 C33 1_555 1_555
H25 C33 1_555 1_555
H26 C33 1_555 1_555
C34 C29 1_555 1_555
C35 C34 1_555 1_555
H27 C35 1_555 1_555
C36 C35 1_555 1_555
H28 C36 1_555 1_555
C37 C36 1_555 1_555
C38 C37 1_555 1_555
H29 C38 1_555 1_555
C39 C34 1_555 1_555
H30 C39 1_555 1_555
C40 C37 1_555 1_555
N1B C1B 1_555 1_555
N2B C1B 1_555 1_555
N3B N3 1_555 1_555
C1B H1B 1_555 1_555
C2B N1B 1_555 1_555
H2B C2B 1_555 1_555
C3B N2B 1_555 1_555
H3B C3B 1_555 1_555
C4B N2B 1_555 1_555
C5B C4B 1_555 1_555
H4B C5B 1_555 1_555
C6B C5B 1_555 1_555
H5B C6B 1_555 1_555
C7B N3B 1_555 1_555
C8B C7B 1_555 1_555
H6B C8B 1_555 1_555
C9B C4B 1_555 1_555
H7B C9B 1_555 1_555
N4B N4 1_555 1_555
N5B C10B 1_555 1_555
N6B C10B 1_555 1_555
C10B H8B 1_555 1_555
C11B N6B 1_555 1_555
H9B C11B 1_555 1_555
C12B N5B 1_555 1_555
H10B C12B 1_555 1_555
C13B N5B 1_555 1_555
C14B C13B 1_555 1_555
H11B C14B 1_555 1_555
C15B C14B 1_555 1_555
H12B C15B 1_555 1_555
C16B N4B 1_555 1_555
C17B C16B 1_555 1_555
H13B C17B 1_555 1_555
C18B C13B 1_555 1_555
H14B C18B 1_555 1_555
Cd1B N6B 1_555 1_555
O1B Cd1B 1_555 1_555
O2B Cd1B 1_555 1_555
O3B C40B 1_555 1_555
O4B C40B 1_555 1_555
C19B O1B 1_555 1_555
C20B C19B 1_555 1_555
C21B C20B 1_555 1_555
H15B C21B 1_555 1_555
C22B C21B 1_555 1_555
H16B C22B 1_555 1_555
C23B C22B 1_555 1_555
C24B C23B 1_555 1_555
H17B C24B 1_555 1_555
C25B C20B 1_555 1_555
H18B C25B 1_555 1_555
C26B C23B 1_555 1_555
C27B C26B 1_555 1_555
C28B C27B 1_555 1_555
H19B C28B 1_555 1_555
C29B C28B 1_555 1_555
C30B C29B 1_555 1_555
C31B C26B 1_555 1_555
H20B C31B 1_555 1_555
C32B C27B 1_555 1_555
H21B C32B 1_555 1_555
H22B C32B 1_555 1_555
H23B C32B 1_555 1_555
C33B C30B 1_555 1_555
H24B C33B 1_555 1_555
H25B C33B 1_555 1_555
H26B C33B 1_555 1_555
C34B C29B 1_555 1_555
C35B C34B 1_555 1_555
H27B C35B 1_555 1_555
C36B C35B 1_555 1_555
H28B C36B 1_555 1_555
C37B C36B 1_555 1_555
C38B C37B 1_555 1_555
H29B C38B 1_555 1_555
C39B C34B 1_555 1_555
H30B C39B 1_555 1_555
C40B C37B 1_555 1_555
Cd1A O3B 1_555 1_555
Cd1B_2 N1B 1_555 1_555
Cd1C O3 1_555 1_555
O3A Cd1B 1_555 1_555
O3C Cd1 1_555 1_555
O4A Cd1B 1_555 1_555
O4C Cd1 1_555 1_555
N1B_2 Cd1B 1_555 1_555
O4 Cd1C 1_555 1_555
C2 C3 1_555 1_555
C8 C9 1_555 1_555
C11 C12 1_555 1_555
C17 C18 1_555 1_555
C24 C25 1_555 1_555
C30 C31 1_555 1_555
C38 C39 1_555 1_555
C2B C3B 1_555 1_555
C6B C7B 1_555 1_555
C8B C9B 1_555 1_555
C11B C12B 1_555 1_555
C15B C16B 1_555 1_555
C17B C18B 1_555 1_555
O2B C19B 1_555 1_555
O4B Cd1A 1_555 1_555
C24B C25B 1_555 1_555
C30B C31B 1_555 1_555
C38B C39B 1_555 1_555

#END
