
#######################################################################
#
#                 Cambridge Crystallographic Data Centre
#                                CCDC 
#
#######################################################################
#
# If this CIF has been generated from an entry in the Cambridge 
# Structural Database, then it will include bibliographic, chemical, 
# crystal, experimental, refinement or atomic coordinate data resulting 
# from the CCDC's data processing and validation procedures.
#
#######################################################################

data_KINKAV
_symmetry_cell_setting           monoclinic
_symmetry_space_group_name_H-M   'P 2/c'
_symmetry_Int_Tables_number      13
_space_group_name_Hall           '-P 2yc'
loop_
_symmetry_equiv_pos_site_id
_symmetry_equiv_pos_as_xyz
1 x,y,z
2 -x,y,1/2-z
3 -x,-y,-z
4 x,-y,1/2+z
_cell_length_a                   15.526(4)
_cell_length_b                   12.813(3)
_cell_length_c                   10.324(2)
_cell_angle_alpha                90
_cell_angle_beta                 104.633(4)
_cell_angle_gamma                90
_cell_volume                     1987.18
loop_
_atom_site_label
_atom_site_type_symbol
_atom_site_fract_x
_atom_site_fract_y
_atom_site_fract_z
Zn1 Zn 0.5000 0.18768(6) 0.2500
O1 O 0.6116(2) 0.3095(2) 0.3124(3)
O2 O 0.56694(19) 0.2383(2) 0.1142(3)
N1 N 0.5904(2) 0.0819(3) 0.3578(4)
N2 N 0.7034(3) 0.0157(3) 0.5094(4)
N3 N 0.9842(3) -0.0401(4) 0.9728(6)
C1 C 0.6525(3) 0.0986(4) 0.4670(5)
H1 H 0.6605 0.1625 0.5112
C2 C 0.6120(4) -0.0166(4) 0.3133(6)
H2 H 0.5824 -0.0477 0.2331
C3 C 0.6815(4) -0.0595(5) 0.4033(6)
H3 H 0.7089 -0.1233 0.3978
C4 C 0.7757(3) 0.0046(5) 0.6249(6)
C5 C 0.8179(4) 0.0918(5) 0.6886(7)
H4 H 0.7987 0.1581 0.6574
C6 C 0.8898(4) 0.0801(5) 0.8003(7)
H5 H 0.9211 0.1383 0.8410
C7 C 0.9140(4) -0.0175(5) 0.8494(6)
C8 C 0.8732(4) -0.1025(5) 0.7858(6)
H6 H 0.8921 -0.1686 0.8182
C9 C 0.8038(4) -0.0925(5) 0.6732(6)
H7 H 0.7760 -0.1517 0.6299
C10 C 0.6205(3) 0.2966(3) 0.1967(4)
C11 C 0.6964(3) 0.3462(3) 0.1546(4)
C12 C 0.7023(3) 0.3375(4) 0.0212(5)
H8 H 0.6576 0.3042 -0.0424
C13 C 0.7754(3) 0.3790(3) -0.0143(4)
H9 H 0.7791 0.3733 -0.1025
C14 C 0.8437(3) 0.4292(3) 0.0791(4)
C15 C 0.8359(3) 0.4387(4) 0.2095(4)
H10 H 0.8802 0.4730 0.2728
C16 C 0.7633(3) 0.3979(3) 0.2470(4)
H11 H 0.7593 0.4052 0.3349
C17 C 0.9243(3) 0.4685(3) 0.0402(4)
C18 C 0.9500(3) 0.5732(4) 0.0534(4)
C19 C 0.8990(3) 0.6568(4) 0.1054(5)
H12 H 0.8488 0.6261 0.1293
H13 H 0.8786 0.7085 0.0371
H14 H 0.9372 0.6891 0.1828
C20 C 0.9745(3) 0.3971(3) -0.0125(4)
H15 H 0.9571 0.3275 -0.0205
O1B O 1.3884(2) 0.6905(2) -0.3124(3)
O2B O 1.43306(19) 0.7617(2) -0.1142(3)
C10B C 1.3795(3) 0.7034(3) -0.1967(4)
C11B C 1.3036(3) 0.6538(3) -0.1546(4)
C12B C 1.2977(3) 0.6625(4) -0.0212(5)
H8B H 1.3424 0.6958 0.0424
C13B C 1.2246(3) 0.6210(3) 0.0143(4)
H9B H 1.2209 0.6267 0.1025
C14B C 1.1563(3) 0.5708(3) -0.0791(4)
C15B C 1.1641(3) 0.5613(4) -0.2095(4)
H10B H 1.1198 0.5270 -0.2728
C16B C 1.2367(3) 0.6021(3) -0.2470(4)
H11B H 1.2407 0.5948 -0.3349
C17B C 1.0757(3) 0.5315(3) -0.0402(4)
C18B C 1.0500(3) 0.4268(4) -0.0534(4)
C19B C 1.1010(3) 0.3432(4) -0.1054(5)
H12B H 1.1512 0.3739 -0.1293
H13B H 1.1214 0.2915 -0.0371
H14B H 1.0628 0.3109 -0.1828
C20B C 1.0255(3) 0.6029(3) 0.0125(4)
H15B H 1.0429 0.6725 0.0205
N1B N 1.4096(2) -0.0819(3) 1.6422(4)
N2B N 1.2966(3) -0.0157(3) 1.4906(4)
N3B N 1.0158(3) 0.0401(4) 1.0272(6)
C1B C 1.3475(3) -0.0986(4) 1.5330(5)
H1B H 1.3395 -0.1625 1.4888
C2B C 1.3880(4) 0.0166(4) 1.6867(6)
H2B H 1.4176 0.0477 1.7669
C3B C 1.3185(4) 0.0595(5) 1.5967(6)
H3B H 1.2911 0.1233 1.6022
C4B C 1.2243(3) -0.0046(5) 1.3751(6)
C5B C 1.1821(4) -0.0918(5) 1.3114(7)
H4B H 1.2013 -0.1581 1.3426
C6B C 1.1102(4) -0.0801(5) 1.1997(7)
H5B H 1.0789 -0.1383 1.1590
C7B C 1.0860(4) 0.0175(5) 1.1506(6)
C8B C 1.1268(4) 0.1025(5) 1.2142(6)
H6B H 1.1079 0.1686 1.1818
C9B C 1.1962(4) 0.0925(5) 1.3268(6)
H7B H 1.2240 0.1517 1.3701
Zn1B Zn 1.5000 -0.18768(6) 1.7500
Zn1B_2 Zn 1.5000 0.81232(6) -0.2500
O1A O 0.3884(2) 0.3095(2) 0.1876(3)
O2A O 0.43306(19) 0.2383(2) 0.3858(3)
N1A N 0.4096(2) 0.0819(3) 0.1422(4)
loop_
_geom_bond_atom_site_label_1
_geom_bond_atom_site_label_2
_geom_bond_site_symmetry_1
_geom_bond_site_symmetry_2
Zn1 O1 1_555 1_555
O1 C10 1_555 1_555
O2 Zn1 1_555 1_555
N1 Zn1 1_555 1_555
N2 C1 1_555 1_555
N3 C7 1_555 1_555
C1 N1 1_555 1_555
H1 C1 1_555 1_555
C2 N1 1_555 1_555
H2 C2 1_555 1_555
C3 N2 1_555 1_555
H3 C3 1_555 1_555
C4 N2 1_555 1_555
C5 C4 1_555 1_555
H4 C5 1_555 1_555
C6 C5 1_555 1_555
H5 C6 1_555 1_555
C7 C6 1_555 1_555
C8 C7 1_555 1_555
H6 C8 1_555 1_555
C9 C4 1_555 1_555
H7 C9 1_555 1_555
C10 O2 1_555 1_555
C11 C10 1_555 1_555
C12 C11 1_555 1_555
H8 C12 1_555 1_555
C13 C12 1_555 1_555
H9 C13 1_555 1_555
C14 C13 1_555 1_555
C15 C14 1_555 1_555
H10 C15 1_555 1_555
C16 C11 1_555 1_555
H11 C16 1_555 1_555
C17 C14 1_555 1_555
C18 C17 1_555 1_555
C19 C18 1_555 1_555
H12 C19 1_555 1_555
H13 C19 1_555 1_555
H14 C19 1_555 1_555
C20 C17 1_555 1_555
H15 C20 1_555 1_555
O1B C10B 1_555 1_555
O2B C10B 1_555 1_555
C10B C11B 1_555 1_555
C11B C12B 1_555 1_555
C12B H8B 1_555 1_555
C13B C12B 1_555 1_555
H9B C13B 1_555 1_555
C14B C13B 1_555 1_555
C15B C14B 1_555 1_555
H10B C15B 1_555 1_555
C16B C11B 1_555 1_555
H11B C16B 1_555 1_555
C17B C14B 1_555 1_555
C18B C20 1_555 1_555
C19B C18B 1_555 1_555
H12B C19B 1_555 1_555
H13B C19B 1_555 1_555
H14B C19B 1_555 1_555
C20B C18 1_555 1_555
H15B C20B 1_555 1_555
N1B C1B 1_555 1_555
N2B C1B 1_555 1_555
N3B N3 1_555 1_555
C1B H1B 1_555 1_555
C2B N1B 1_555 1_555
H2B C2B 1_555 1_555
C3B N2B 1_555 1_555
H3B C3B 1_555 1_555
C4B N2B 1_555 1_555
C5B C4B 1_555 1_555
H4B C5B 1_555 1_555
C6B C5B 1_555 1_555
H5B C6B 1_555 1_555
C7B N3B 1_555 1_555
C8B C7B 1_555 1_555
H6B C8B 1_555 1_555
C9B C4B 1_555 1_555
H7B C9B 1_555 1_555
Zn1B N1B 1_555 1_555
Zn1B_2 O1B 1_555 1_555
O1A Zn1 1_555 1_555
O2A Zn1 1_555 1_555
N1A Zn1 1_555 1_555
C2 C3 1_555 1_555
C8 C9 1_555 1_555
C15 C16 1_555 1_555
O2B Zn1B_2 1_555 1_555
C15B C16B 1_555 1_555
C17B C18B 1_555 1_555
C17B C20B 1_555 1_555
C2B C3B 1_555 1_555
C6B C7B 1_555 1_555
C8B C9B 1_555 1_555

#END
