
#######################################################################
#
#                 Cambridge Crystallographic Data Centre
#                                CCDC 
#
#######################################################################
#
# If this CIF has been generated from an entry in the Cambridge 
# Structural Database, then it will include bibliographic, chemical, 
# crystal, experimental, refinement or atomic coordinate data resulting 
# from the CCDC's data processing and validation procedures.
#
#######################################################################

data_KINROQ
_symmetry_cell_setting           rhombohedral
_symmetry_space_group_name_H-M   'R -3'
_symmetry_Int_Tables_number      148
_space_group_name_Hall           '-R 3'
loop_
_symmetry_equiv_pos_site_id
_symmetry_equiv_pos_as_xyz
1 x,y,z
2 -y,x-y,z
3 -x+y,-x,z
4 2/3+x,1/3+y,1/3+z
5 2/3-y,1/3+x-y,1/3+z
6 2/3-x+y,1/3-x,1/3+z
7 1/3+x,2/3+y,2/3+z
8 1/3-y,2/3+x-y,2/3+z
9 1/3-x+y,2/3-x,2/3+z
10 -x,-y,-z
11 y,-x+y,-z
12 x-y,x,-z
13 1/3-x,2/3-y,2/3-z
14 1/3+y,2/3-x+y,2/3-z
15 1/3+x-y,2/3+x,2/3-z
16 2/3-x,1/3-y,1/3-z
17 2/3+y,1/3-x+y,1/3-z
18 2/3+x-y,1/3+x,1/3-z
_cell_length_a                   38.002(5)
_cell_length_b                   38.002(5)
_cell_length_c                   24.348(6)
_cell_angle_alpha                90
_cell_angle_beta                 90
_cell_angle_gamma                120
_cell_volume                     30451.4
loop_
_atom_site_label
_atom_site_type_symbol
_atom_site_fract_x
_atom_site_fract_y
_atom_site_fract_z
Tb1 Tb 0.217790(11) 0.431270(11) 1.008169(13)
Tb2 Tb 0.103536(12) 0.208090(12) 1.166988(16)
Cu1 Cu 0.14078(3) 0.33418(3) 1.04339(4)
Cu2 Cu 0.29850(3) 0.43601(3) 1.08276(4)
Cu3 Cu 0.19177(3) 0.48678(3) 1.09446(4)
Cu4 Cu 0.15418(3) 0.35940(3) 0.91416(3)
Cu5 Cu 0.31345(3) 0.46019(3) 0.95224(4)
Cu6 Cu 0.20492(3) 0.51091(3) 0.96599(4)
O1 O 0.15879(14) 0.39044(14) 1.06876(18)
O2 O 0.14834(18) 0.42434(19) 1.1347(2)
O3 O 0.24008(13) 0.39617(14) 1.07124(19)
O4 O 0.19269(17) 0.33348(16) 1.0938(2)
O5 O 0.23479(13) 0.47214(14) 1.09208(17)
O6 O 0.28267(17) 0.47195(17) 1.1434(2)
O7 O 0.17183(14) 0.41671(14) 0.92834(18)
O8 O 0.16439(18) 0.46727(17) 0.8971(2)
O9 O 0.25525(14) 0.42151(13) 0.93382(18)
O10 O 0.21604(16) 0.38270(15) 0.86646(18)
O11 O 0.24685(15) 0.49455(14) 0.95698(19)
O12 O 0.30596(17) 0.51236(16) 0.9169(2)
O13 O 0.17978(14) 0.36047(13) 0.98380(17)
O14 O 0.29147(13) 0.46514(13) 1.02253(17)
O15 O 0.18092(14) 0.46659(14) 1.01955(17)
O16 O 0.09336(18) 0.34107(18) 0.9760(3)
O17 O 0.3122(2) 0.3982(2) 1.0080(3)
O18 O 0.24475(19) 0.55342(17) 1.0482(2)
O19 O 0.13749(17) 0.30227(14) 0.9042(2)
O20 O 0.35773(15) 0.47551(16) 1.0907(2)
O21 O 0.14839(18) 0.50040(19) 1.0906(2)
O22 O 0.12269(17) 0.28077(15) 1.01065(19)
O23 O 0.10917(17) 0.24717(16) 1.0900(2)
O24 O 0.36852(16) 0.48632(17) 0.9810(2)
O25 O 0.39898(15) 0.51945(16) 0.9066(3)
O26 O 0.16448(18) 0.52570(18) 0.9882(2)
O27 O 0.1555(2) 0.54605(18) 0.9064(2)
O28 O 0.0968(2) 0.14072(18) 1.1887(3)
O29 O 0.17284(17) 0.26867(18) 1.1590(3)
O30 O 0.1089(2) 0.26766(19) 1.2168(3)
O31 O 0.03908(18) 0.2106(2) 1.1567(3)
O32 O 0.0573(2) 0.1559(2) 1.1042(3)
O33 O 0.1478(2) 0.1946(2) 1.1098(3)
N1 N 0.1029(2) 0.3189(2) 1.1058(3)
H1 H 0.0772 0.3048 1.0934
H2 H 0.1069 0.3027 1.1288
N2 N 0.2955(2) 0.3969(2) 1.1381(3)
H3 H 0.3158 0.3915 1.1328
H4 H 0.2982 0.4074 1.1720
N3 N 0.2153(2) 0.5123(2) 1.1654(3)
H5 H 0.2296 0.5395 1.1618
H6 H 0.1955 0.5059 1.1903
N4 N 0.1278(2) 0.36606(19) 0.8487(2)
H7 H 0.1363 0.3588 0.8185
H8 H 0.1007 0.3500 0.8513
N5 N 0.3241(2) 0.4456(2) 0.8799(3)
H9 H 0.3404 0.4683 0.8608
H10 H 0.3370 0.4313 0.8836
N6 N 0.2387(2) 0.55378(19) 0.9137(3)
H11 H 0.2250 0.5497 0.8820
H12 H 0.2441 0.5780 0.9273
C1 C 0.1411(3) 0.3927(3) 1.1114(4)
C2 C 0.2566(3) 0.3598(3) 1.1332(4)
H13 H 0.2447 0.3517 1.1695
H14 H 0.2611 0.3385 1.1193
C3 C 0.2276(3) 0.3632(3) 1.0972(3)
C4 C 0.2546(3) 0.4786(3) 1.1355(3)
C5 C 0.1378(3) 0.4072(3) 0.8443(4)
H15 H 0.1131 0.4081 0.8380
H16 H 0.1552 0.4192 0.8125
C6 C 0.1589(3) 0.4326(3) 0.8939(3)
C7 C 0.2870(3) 0.4219(3) 0.8506(4)
H17 H 0.2872 0.3986 0.8346
H18 H 0.2858 0.4381 0.8206
C8 C 0.2495(3) 0.4070(2) 0.8850(3)
C9 C 0.2766(3) 0.5543(3) 0.9033(4)
H19 H 0.2988 0.5787 0.9193
H20 H 0.2811 0.5555 0.8639
C10 C 0.2775(3) 0.5175(2) 0.9264(3)
C11 C 0.1132(3) 0.2489(3) 1.0390(4)
H21 H 0.1090 0.2257 1.0205
C12 C 0.3988(3) 0.5081(3) 0.9540(4)
H22 H 0.4238 0.5168 0.9706
C13 C 0.1464(3) 0.5364(3) 0.9554(4)
H23 H 0.1239 0.5372 0.9689
C14 C 0.2414(3) 0.4973(3) 1.1829(4)
H24 H 0.2275 0.4768 1.2109
H25 H 0.2655 0.5194 1.1995
C15 C 0.1086(3) 0.3548(3) 1.1355(4)
H26 H 0.1153 0.3530 1.1735
H27 H 0.0834 0.3553 1.1352
Tb2G Tb 0.125243(12) 0.562113(17) 0.833655(16)
Tb2H Tb 0.437887(17) 0.563131(12) 0.833655(16)
O25D O 0.14722(16) 0.21286(22) 1.2399(3)
O27E O 0.05722(27) 0.1778(2) 1.2397(2)
loop_
_geom_bond_atom_site_label_1
_geom_bond_atom_site_label_2
_geom_bond_site_symmetry_1
_geom_bond_site_symmetry_2
Tb1 O1 1_555 1_555
Tb2 O23 1_555 1_555
Cu1 O1 1_555 1_555
Cu2 O3 1_555 1_555
Cu3 O2 1_555 1_555
Cu4 O7 1_555 1_555
Cu5 O9 1_555 1_555
Cu6 O8 1_555 1_555
O1 C1 1_555 1_555
O2 C1 1_555 1_555
O3 Tb1 1_555 1_555
O4 Cu1 1_555 1_555
O5 Tb1 1_555 1_555
O6 Cu2 1_555 1_555
O7 Tb1 1_555 1_555
O8 C6 1_555 1_555
O9 Tb1 1_555 1_555
O10 Cu4 1_555 1_555
O11 Tb1 1_555 1_555
O12 Cu5 1_555 1_555
O13 Tb1 1_555 1_555
O14 Tb1 1_555 1_555
O15 Tb1 1_555 1_555
O16 Cu1 1_555 1_555
O17 Cu2 1_555 1_555
O18 Cu3 1_555 1_555
O19 Cu4 1_555 1_555
O20 Cu2 1_555 1_555
O21 Cu3 1_555 1_555
O22 Cu1 1_555 1_555
O23 C11 1_555 1_555
O24 Cu5 1_555 1_555
O25 C12 1_555 1_555
O26 Cu6 1_555 1_555
O27 C13 1_555 1_555
O28 Tb2 1_555 1_555
O29 Tb2 1_555 1_555
O30 Tb2 1_555 1_555
O31 Tb2 1_555 1_555
O32 Tb2 1_555 1_555
O33 Tb2 1_555 1_555
N1 Cu1 1_555 1_555
H1 N1 1_555 1_555
H2 N1 1_555 1_555
N2 Cu2 1_555 1_555
H3 N2 1_555 1_555
H4 N2 1_555 1_555
N3 Cu3 1_555 1_555
H5 N3 1_555 1_555
H6 N3 1_555 1_555
N4 Cu4 1_555 1_555
H7 N4 1_555 1_555
H8 N4 1_555 1_555
N5 Cu5 1_555 1_555
H9 N5 1_555 1_555
H10 N5 1_555 1_555
N6 Cu6 1_555 1_555
H11 N6 1_555 1_555
H12 N6 1_555 1_555
C1 C15 1_555 1_555
C2 N2 1_555 1_555
H13 C2 1_555 1_555
H14 C2 1_555 1_555
C3 O3 1_555 1_555
C4 O5 1_555 1_555
C5 N4 1_555 1_555
H15 C5 1_555 1_555
H16 C5 1_555 1_555
C6 O7 1_555 1_555
C7 N5 1_555 1_555
H17 C7 1_555 1_555
H18 C7 1_555 1_555
C8 O9 1_555 1_555
C9 N6 1_555 1_555
H19 C9 1_555 1_555
H20 C9 1_555 1_555
C10 O11 1_555 1_555
C11 O22 1_555 1_555
H21 C11 1_555 1_555
C12 O24 1_555 1_555
H22 C12 1_555 1_555
C13 O26 1_555 1_555
H23 C13 1_555 1_555
C14 N3 1_555 1_555
H24 C14 1_555 1_555
H25 C14 1_555 1_555
C15 N1 1_555 1_555
H26 C15 1_555 1_555
H27 C15 1_555 1_555
Tb2G O27 1_555 1_555
Tb2H O25 1_555 1_555
O25D Tb2 1_555 1_555
O27E Tb2 1_555 1_555
Cu1 O13 1_555 1_555
Cu2 O14 1_555 1_555
Cu3 O5 1_555 1_555
Cu3 O15 1_555 1_555
Cu4 O13 1_555 1_555
Cu4 O16 1_555 1_555
Cu5 O14 1_555 1_555
Cu5 O17 1_555 1_555
Cu6 O11 1_555 1_555
Cu6 O15 1_555 1_555
Cu6 O18 1_555 1_555
O4 C3 1_555 1_555
O6 C4 1_555 1_555
O10 C8 1_555 1_555
O12 C10 1_555 1_555
C2 C3 1_555 1_555
C4 C14 1_555 1_555
C5 C6 1_555 1_555
C7 C8 1_555 1_555
C9 C10 1_555 1_555

#END
