
#######################################################################
#
#                 Cambridge Crystallographic Data Centre
#                                CCDC 
#
#######################################################################
#
# If this CIF has been generated from an entry in the Cambridge 
# Structural Database, then it will include bibliographic, chemical, 
# crystal, experimental, refinement or atomic coordinate data resulting 
# from the CCDC's data processing and validation procedures.
#
#######################################################################

data_KINSAD
_symmetry_cell_setting           orthorhombic
_symmetry_space_group_name_H-M   'P m m m'
_symmetry_Int_Tables_number      47
_space_group_name_Hall           '-P 2 2'
loop_
_symmetry_equiv_pos_site_id
_symmetry_equiv_pos_as_xyz
1 x,y,z
2 -x,-y,z
3 x,-y,-z
4 -x,y,-z
5 -x,-y,-z
6 x,y,-z
7 -x,y,z
8 x,-y,z
_cell_length_a                   11.4439(7)
_cell_length_b                   15.7580(9)
_cell_length_c                   23.466(2)
_cell_angle_alpha                90
_cell_angle_beta                 90
_cell_angle_gamma                90
_cell_volume                     4231.69
loop_
_atom_site_label
_atom_site_type_symbol
_atom_site_fract_x
_atom_site_fract_y
_atom_site_fract_z
Br1 Br 0.21538(9) 0.0000 0.5000
Zn1 Zn 0.0000 0.5000 0.56230(6)
O1 O 0.1222(3) 0.4094(2) 0.54777(15)
O2 O 0.0000 0.6287(14) 0.9293(9)
N1 N 0.0000 0.5000 0.6432(5)
C1 C 0.1537(5) 0.3837(4) 0.5000
C2 C 0.2353(5) 0.3066(3) 0.5000
C3 C 0.2711(6) 0.2713(4) 0.5499(3)
H1 H 0.2489 0.2963 0.5846
C4 C 0.3409(5) 0.1980(4) 0.5503(3)
H2 H 0.3657 0.1747 0.5851
C5 C 0.3730(5) 0.1603(3) 0.5000
C6 C 0.4401(5) 0.0776(3) 0.5000
C7 C 0.3829(7) 0.0000 0.5000
C8 C -0.0924(13) 0.5000 0.6783(6)
H3 H -0.1661 0.5000 0.6606
C9 C -0.0932(14) 0.5000 0.7402(7)
H4 H -0.1657 0.5000 0.7590
C10 C 0.0000 0.5000 0.7704(10)
C11 C 0.0000 0.5000 0.8299(7)
C12 C 0.0000 0.5000 0.8817(7)
C13 C 0.0000 0.5000 0.9423(11)
C14 C 0.0000 0.5675(10) 0.9716(9)
C15 C 0.0000 0.7138(10) 0.9486(19)
H5 H -0.0430 0.7489 0.9219
H6 H 0.0798 0.7340 0.9514
H7 H -0.0368 0.7167 0.9858
O1B O 0.1222(3) -0.4094(2) 0.45223(15)
C1B C 0.1537(5) -0.3837(4) 0.5000
C2B C 0.2353(5) -0.3066(3) 0.5000
C3B C 0.2711(6) -0.2713(4) 0.4501(3)
H1B H 0.2489 -0.2963 0.4154
C4B C 0.3409(5) -0.1980(4) 0.4497(3)
H2B H 0.3657 -0.1747 0.4149
C5B C 0.3730(5) -0.1603(3) 0.5000
C6B C 0.4401(5) -0.0776(3) 0.5000
Br1A Br 0.78462(9) 0.0000 0.5000
O1C O 0.8778(3) 0.4094(2) 0.45223(15)
C1C C 0.8463(5) 0.3837(4) 0.5000
C2C C 0.7647(5) 0.3066(3) 0.5000
C3C C 0.7289(6) 0.2713(4) 0.4501(3)
H1C H 0.7511 0.2963 0.4154
C4C C 0.6591(5) 0.1980(4) 0.4497(3)
H2C H 0.6343 0.1747 0.4149
C5C C 0.6270(5) 0.1603(3) 0.5000
C6C C 0.5599(5) 0.0776(3) 0.5000
C7A C 0.6171(7) 0.0000 0.5000
O1D O 0.8778(3) -0.4094(2) 0.45223(15)
C1A C 0.8463(5) -0.3837(4) 0.5000
C2A C 0.7647(5) -0.3066(3) 0.5000
C3D C 0.7289(6) -0.2713(4) 0.4501(3)
H1D H 0.7511 -0.2963 0.4154
C4D C 0.6591(5) -0.1980(4) 0.4497(3)
H2D H 0.6343 -0.1747 0.4149
C5A C 0.6270(5) -0.1603(3) 0.5000
C6A C 0.5599(5) -0.0776(3) 0.5000
O1E O 0.1222(3) 0.4094(2) 0.45223(15)
C3E C 0.2711(6) 0.2713(4) 0.4501(3)
H1E H 0.2489 0.2963 0.4154
C4E C 0.3409(5) 0.1980(4) 0.4497(3)
H2E H 0.3657 0.1747 0.4149
O1F O 0.8778(3) 0.4094(2) 0.54777(15)
C3F C 0.7289(6) 0.2713(4) 0.5499(3)
H1F H 0.7511 0.2963 0.5846
C4F C 0.6591(5) 0.1980(4) 0.5503(3)
H2F H 0.6343 0.1747 0.5851
O1G O 0.1222(3) -0.4094(2) 0.54777(15)
C3G C 0.2711(6) -0.2713(4) 0.5499(3)
H1G H 0.2489 -0.2963 0.5846
C4G C 0.3409(5) -0.1980(4) 0.5503(3)
H2G H 0.3657 -0.1747 0.5851
O1A O 0.8778(3) -0.4094(2) 0.54777(15)
C3A C 0.7289(6) -0.2713(4) 0.5499(3)
H1A H 0.7511 -0.2963 0.5846
C4A C 0.6591(5) -0.1980(4) 0.5503(3)
H2A H 0.6343 -0.1747 0.5851
C8A C 0.0924(13) 0.5000 0.6783(6)
H3A H 0.1661 0.5000 0.6606
C9A C 0.0932(14) 0.5000 0.7402(7)
H4A H 0.1657 0.5000 0.7590
C14A C 0.0000 0.4325(10) 0.9716(9)
O2B O 0.0000 0.3713(14) 1.0707(9)
N1B N 0.0000 0.5000 1.3568(5)
C8B C -0.0924(13) 0.5000 1.3217(6)
H3B H -0.1661 0.5000 1.3394
C9B C -0.0932(14) 0.5000 1.2598(7)
H4B H -0.1657 0.5000 1.2410
C10B C 0.0000 0.5000 1.2296(10)
C11B C 0.0000 0.5000 1.1701(7)
C12B C 0.0000 0.5000 1.1183(7)
C13B C 0.0000 0.5000 1.0577(11)
C14B C 0.0000 0.4325(10) 1.0284(9)
C15B C 0.0000 0.2862(10) 1.0514(19)
C8C C 0.0924(13) 0.5000 1.3217(6)
H3C H 0.1661 0.5000 1.3394
C9C C 0.0932(14) 0.5000 1.2598(7)
H4C H 0.1657 0.5000 1.2410
C14C C 0.0000 0.5675(10) 1.0284(9)
H5D H 0.0430 0.2511 1.0781
H6D H -0.0798 0.2660 1.0486
H7D H 0.0368 0.2833 1.0142
Zn1B Zn 0.0000 0.5000 0.43770(6)
Zn1_2 Zn 0.0000 -0.5000 0.56230(6)
Zn1_3 Zn 1.0000 -0.5000 0.56230(6)
Zn1_4 Zn 1.0000 0.5000 0.56230(6)
Zn1B_2 Zn 0.0000 -0.5000 0.43770(6)
Zn1B_3 Zn 0.0000 0.5000 1.43770(6)
Zn1B_4 Zn 1.0000 -0.5000 0.43770(6)
Zn1B_5 Zn 1.0000 0.5000 0.43770(6)
O1A_2 O -0.1222(3) 0.5906(2) 0.54777(15)
O1B_2 O 0.1222(3) 0.5906(2) 0.45223(15)
O1C_2 O -0.1222(3) 0.4094(2) 0.45223(15)
O1D_2 O -0.1222(3) 0.5906(2) 0.45223(15)
O1F_2 O -0.1222(3) 0.4094(2) 0.54777(15)
O1G_2 O 0.1222(3) 0.5906(2) 0.54777(15)
N1B_2 N 0.0000 0.5000 0.3568(5)
loop_
_geom_bond_atom_site_label_1
_geom_bond_atom_site_label_2
_geom_bond_site_symmetry_1
_geom_bond_site_symmetry_2
Br1 C7 1_555 1_555
Zn1 O1 1_555 1_555
O1 C1 1_555 1_555
O2 C14 1_555 1_555
N1 Zn1 1_555 1_555
C1 C2 1_555 1_555
C2 C3 1_555 1_555
C3 H1 1_555 1_555
C4 C3 1_555 1_555
H2 C4 1_555 1_555
C5 C4 1_555 1_555
C6 C5 1_555 1_555
C7 C6 1_555 1_555
C8 N1 1_555 1_555
H3 C8 1_555 1_555
C9 C8 1_555 1_555
H4 C9 1_555 1_555
C10 C9 1_555 1_555
C11 C10 1_555 1_555
C12 C11 1_555 1_555
C13 C12 1_555 1_555
C14 C13 1_555 1_555
C15 O2 1_555 1_555
H5 C15 1_555 1_555
H6 C15 1_555 1_555
H7 C15 1_555 1_555
O1B C1B 1_555 1_555
C1B C2B 1_555 1_555
C2B C3B 1_555 1_555
C3B H1B 1_555 1_555
C4B C3B 1_555 1_555
H2B C4B 1_555 1_555
C5B C4B 1_555 1_555
C6B C7 1_555 1_555
Br1A C7A 1_555 1_555
O1C C1C 1_555 1_555
C1C C2C 1_555 1_555
C2C C3C 1_555 1_555
C3C H1C 1_555 1_555
C4C C3C 1_555 1_555
H2C C4C 1_555 1_555
C5C C4C 1_555 1_555
C6C C6 1_555 1_555
C7A C6C 1_555 1_555
O1D C1A 1_555 1_555
C1A C2A 1_555 1_555
C2A C3D 1_555 1_555
C3D H1D 1_555 1_555
C4D C3D 1_555 1_555
H2D C4D 1_555 1_555
C5A C4D 1_555 1_555
C6A C6B 1_555 1_555
O1E C1 1_555 1_555
C3E C2 1_555 1_555
H1E C3E 1_555 1_555
C4E C5 1_555 1_555
H2E C4E 1_555 1_555
O1F C1C 1_555 1_555
C3F C2C 1_555 1_555
H1F C3F 1_555 1_555
C4F C5C 1_555 1_555
H2F C4F 1_555 1_555
O1G C1B 1_555 1_555
C3G C2B 1_555 1_555
H1G C3G 1_555 1_555
C4G C5B 1_555 1_555
H2G C4G 1_555 1_555
O1A C1A 1_555 1_555
C3A C2A 1_555 1_555
H1A C3A 1_555 1_555
C4A C5A 1_555 1_555
H2A C4A 1_555 1_555
C8A N1 1_555 1_555
H3A C8A 1_555 1_555
C9A C10 1_555 1_555
H4A C9A 1_555 1_555
C14A C13 1_555 1_555
O2B C14B 1_555 1_555
N1B C8B 1_555 1_555
C8B H3B 1_555 1_555
C9B C8B 1_555 1_555
H4B C9B 1_555 1_555
C10B C9B 1_555 1_555
C11B C10B 1_555 1_555
C12B C11B 1_555 1_555
C13B C12B 1_555 1_555
C14B C14A 1_555 1_555
C15B O2B 1_555 1_555
C8C N1B 1_555 1_555
H3C C8C 1_555 1_555
C9C C10B 1_555 1_555
H4C C9C 1_555 1_555
C14C C14 1_555 1_555
H5D C15B 1_555 1_555
H6D C15B 1_555 1_555
H7D C15B 1_555 1_555
Zn1B O1E 1_555 1_555
Zn1_2 O1G 1_555 1_555
Zn1_3 O1A 1_555 1_555
Zn1_4 O1F 1_555 1_555
Zn1B_2 O1B 1_555 1_555
Zn1B_3 N1B 1_555 1_555
Zn1B_4 O1D 1_555 1_555
Zn1B_5 O1C 1_555 1_555
O1A_2 Zn1 1_555 1_555
O1B_2 Zn1B 1_555 1_555
O1C_2 Zn1B 1_555 1_555
O1D_2 Zn1B 1_555 1_555
O1F_2 Zn1 1_555 1_555
O1G_2 Zn1 1_555 1_555
N1B_2 Zn1B 1_555 1_555
C5B C6B 1_555 1_555
C5C C6C 1_555 1_555
C7A C6A 1_555 1_555
C5A C6A 1_555 1_555
C3E C4E 1_555 1_555
C3F C4F 1_555 1_555
C3G C4G 1_555 1_555
C3A C4A 1_555 1_555
C8A C9A 1_555 1_555
C13B C14B 1_555 1_555
C13B C14C 1_555 1_555
C8C C9C 1_555 1_555

#END
