
#######################################################################
#
#                 Cambridge Crystallographic Data Centre
#                                CCDC 
#
#######################################################################
#
# If this CIF has been generated from an entry in the Cambridge 
# Structural Database, then it will include bibliographic, chemical, 
# crystal, experimental, refinement or atomic coordinate data resulting 
# from the CCDC's data processing and validation procedures.
#
#######################################################################

data_KIPJOK
_symmetry_cell_setting           monoclinic
_symmetry_space_group_name_H-M   'P 21/c'
_symmetry_Int_Tables_number      14
_space_group_name_Hall           '-P 2ybc'
loop_
_symmetry_equiv_pos_site_id
_symmetry_equiv_pos_as_xyz
1 x,y,z
2 -x,1/2+y,1/2-z
3 -x,-y,-z
4 x,1/2-y,1/2+z
_cell_length_a                   7.3654(3)
_cell_length_b                   29.0284(17)
_cell_length_c                   23.4808(14)
_cell_angle_alpha                90
_cell_angle_beta                 90.969(3)
_cell_angle_gamma                90
_cell_volume                     5019.61
loop_
_atom_site_label
_atom_site_type_symbol
_atom_site_fract_x
_atom_site_fract_y
_atom_site_fract_z
Nd1 Nd 0.21046(5) 0.702709(14) 0.327922(18)
Nd2 Nd 0.71369(5) 0.737824(14) 0.257048(18)
O1 O 0.3489(9) 0.6269(2) 0.3012(4)
O2 O 0.5936(7) 0.66983(18) 0.3077(2)
O3 O 0.9438(7) 0.67567(18) 0.2552(2)
O4 O 0.9932(7) 0.6335(2) 0.3318(3)
O5 O 1.0064(9) 0.3477(2) 0.3489(3)
O6 O 1.0407(10) 0.4230(2) 0.3426(3)
H1 H 1.0711 0.4234 0.3798
O7 O 0.9207(8) 0.27181(19) 0.2226(3)
O8 O 1.1597(8) 0.3156(2) 0.2361(3)
O9 O -0.1393(7) 0.73013(18) 0.3559(2)
O10 O 0.1049(8) 0.7584(2) 0.3993(3)
O11 O -0.5040(8) 0.76512(19) 0.3284(3)
O12 O -0.5526(8) 0.7253(2) 0.4069(3)
O13 O -0.1139(7) 0.75499(18) 0.6673(2)
O14 O 0.1596(7) 0.72831(19) 0.6467(3)
H2 H 0.1032 0.7054 0.6564
O15 O 0.3354(7) 0.7876(2) 0.7344(3)
O16 O 0.5634(7) 0.8069(2) 0.6806(3)
O17 O 0.2020(15) 0.6586(4) 0.4201(4)
O18 O 0.5162(9) 0.7950(2) 0.2075(3)
H3 H 0.3952 0.7903 0.2080
H4 H 0.5185 0.8181 0.1835
F1 F 0.6050(9) 0.48268(19) 0.1091(2)
F2 F 0.3494(8) 0.45043(19) 0.1262(3)
F3 F 0.3791(9) 0.52247(19) 0.1394(3)
F4 F 0.2218(6) 0.49121(18) 0.2347(4)
F5 F 0.4081(7) 0.46573(18) 0.2993(3)
F6 F 0.3033(7) 0.42012(18) 0.2342(3)
F7 F -0.2924(6) 0.95407(15) 0.5154(2)
F8 F -0.3022(6) 0.90730(16) 0.5861(2)
F9 F -0.0919(6) 0.95779(15) 0.5827(2)
F10 F -0.0521(6) 0.93161(18) 0.4288(2)
F11 F 0.1153(6) 0.95998(15) 0.4953(2)
F12 F 0.1846(6) 0.89522(16) 0.4578(2)
C1 C 0.5317(10) 0.4738(3) 0.2067(4)
C2 C 0.6253(10) 0.5187(3) 0.2271(4)
C3 C 0.5350(10) 0.5547(3) 0.2523(4)
H5 H 0.4112 0.5517 0.2586
C4 C 0.6204(10) 0.5951(3) 0.2687(4)
C5 C 0.8087(9) 0.5998(3) 0.2603(3)
C6 C 0.8999(10) 0.5649(3) 0.2318(4)
H6 H 1.0226 0.5683 0.2241
C7 C 0.8090(10) 0.5247(3) 0.2147(4)
H7 H 0.8709 0.5020 0.1950
C8 C 0.5142(11) 0.6326(3) 0.2947(4)
C9 C 0.9184(10) 0.6387(3) 0.2852(4)
C10 C 0.6543(10) 0.4315(3) 0.2118(4)
C11 C 0.7657(10) 0.4264(3) 0.2602(4)
H8 H 0.7685 0.4498 0.2873
C12 C 0.8731(10) 0.3873(3) 0.2691(4)
C13 C 0.8715(10) 0.3528(3) 0.2277(4)
C14 C 0.7615(10) 0.3573(3) 0.1795(4)
H9 H 0.7590 0.3340 0.1523
C15 C 0.6544(10) 0.3966(3) 0.1717(4)
H10 H 0.5821 0.3993 0.1390
C16 C 0.9821(11) 0.3857(3) 0.3225(4)
C17 C 0.9919(11) 0.3112(3) 0.2300(4)
C18 C 0.4673(14) 0.4820(3) 0.1441(5)
C19 C 0.3648(12) 0.4622(3) 0.2433(5)
C20 C -0.0702(9) 0.8938(3) 0.5193(3)
C21 C -0.1859(9) 0.8582(3) 0.4847(3)
C22 C -0.0909(10) 0.8239(3) 0.4573(3)
H11 H 0.0345 0.8222 0.4622
C23 C -0.1795(10) 0.7917(3) 0.4223(3)
C24 C -0.3706(10) 0.7921(3) 0.4169(3)
C25 C -0.4628(10) 0.8265(3) 0.4461(3)
H12 H -0.5889 0.8274 0.4436
C26 C -0.3745(10) 0.8592(3) 0.4785(3)
H13 H -0.4408 0.8821 0.4965
C27 C -0.0666(11) 0.7577(3) 0.3914(4)
C28 C -0.4777(10) 0.7583(3) 0.3814(4)
C29 C 0.0512(9) 0.8699(3) 0.5647(3)
C30 C -0.0053(10) 0.8296(3) 0.5896(3)
H14 H -0.1171 0.8170 0.5791
C31 C 0.1023(10) 0.8073(3) 0.6302(3)
C32 C 0.2709(9) 0.8266(3) 0.6465(3)
C33 C 0.3221(10) 0.8680(3) 0.6232(3)
H15 H 0.4311 0.8814 0.6349
C34 C 0.2145(10) 0.8902(3) 0.5826(3)
H16 H 0.2507 0.9183 0.5674
C35 C 0.0417(11) 0.7614(3) 0.6510(3)
C36 C 0.3969(9) 0.8055(3) 0.6899(3)
C37 C -0.1891(9) 0.9287(3) 0.5508(3)
C38 C 0.0438(10) 0.9206(3) 0.4753(3)
Nd1_2 Nd -0.78954(5) 0.702709(14) 0.327922(18)
Nd1_3 Nd 1.21046(5) 0.702709(14) 0.327922(18)
Nd1A Nd 0.78954(5) 0.202709(14) 0.172078(18)
Nd1C Nd 0.21046(5) 0.797291(14) 0.827922(18)
Nd2_2 Nd -0.28631(5) 0.737824(14) 0.257048(18)
Nd2A Nd 1.28631(5) 0.237824(14) 0.242952(18)
Nd2C Nd -0.28631(5) 0.762176(14) 0.757048(18)
Nd2C_2 Nd 0.71369(5) 0.762176(14) 0.757048(18)
O3_2 O -0.0562(7) 0.67567(18) 0.2552(2)
O4_2 O -0.0068(7) 0.6335(2) 0.3318(3)
O7A O 0.0793(8) 0.77181(19) 0.2774(3)
O7A_2 O 1.0793(8) 0.77181(19) 0.2774(3)
O8A O 0.8403(8) 0.8156(2) 0.2639(3)
O9_2 O 0.8607(7) 0.73013(18) 0.3559(2)
O11_2 O 0.4960(8) 0.76512(19) 0.3284(3)
O12_2 O 0.4474(8) 0.7253(2) 0.4069(3)
O13C O 0.8861(7) 0.74501(18) 0.1673(2)
O15C O 0.3354(7) 0.7124(2) 0.2344(3)
O16C O 0.5634(7) 0.6931(2) 0.1806(3)
O19 O 0.2573(18) 0.7402(5) 0.5173(5)
H17 H 0.1743 0.7346 0.4853
H18 H 0.2705 0.7122 0.5277
O20 O -0.4045(16) 0.7551(5) 0.5688(5)
H19 H -0.4441 0.7266 0.5777
H20 H -0.3993 0.7687 0.6050
O21 O 0.7289(19) 0.6530(5) 0.4328(6)
O22 O 1.243(3) 0.5555(9) 0.3857(11)
O23 O 1.114(2) 0.2971(5) 0.4656(7)
O24 O 1.1331(9) 0.3798(3) 0.4419(3)
O25 O 1.067(2) 0.5264(5) 0.4739(6)
O26 O 1.487(3) 0.4563(6) 0.5022(8)
O27 O 0.606(3) 0.8540(9) 0.1231(11)
loop_
_geom_bond_atom_site_label_1
_geom_bond_atom_site_label_2
_geom_bond_site_symmetry_1
_geom_bond_site_symmetry_2
Nd1 O1 1_555 1_555
Nd2 O2 1_555 1_555
O1 C8 1_555 1_555
O2 C8 1_555 1_555
O3 Nd2 1_555 1_555
O4 C9 1_555 1_555
O5 C16 1_555 1_555
O6 H1 1_555 1_555
O7 C17 1_555 1_555
O8 C17 1_555 1_555
O9 Nd1 1_555 1_555
O10 Nd1 1_555 1_555
O11 C28 1_555 1_555
O12 C28 1_555 1_555
O13 C35 1_555 1_555
O14 H2 1_555 1_555
O15 C36 1_555 1_555
O16 C36 1_555 1_555
O17 Nd1 1_555 1_555
O18 Nd2 1_555 1_555
H3 O18 1_555 1_555
H4 O18 1_555 1_555
F1 C18 1_555 1_555
F2 C18 1_555 1_555
F3 C18 1_555 1_555
F4 C19 1_555 1_555
F5 C19 1_555 1_555
F6 C19 1_555 1_555
F7 C37 1_555 1_555
F8 C37 1_555 1_555
F9 C37 1_555 1_555
F10 C38 1_555 1_555
F11 C38 1_555 1_555
F12 C38 1_555 1_555
C1 C2 1_555 1_555
C2 C3 1_555 1_555
C3 H5 1_555 1_555
C4 C3 1_555 1_555
C5 C4 1_555 1_555
C6 C5 1_555 1_555
H6 C6 1_555 1_555
C7 C2 1_555 1_555
H7 C7 1_555 1_555
C8 C4 1_555 1_555
C9 O3 1_555 1_555
C10 C1 1_555 1_555
C11 C10 1_555 1_555
H8 C11 1_555 1_555
C12 C11 1_555 1_555
C13 C12 1_555 1_555
C14 C13 1_555 1_555
H9 C14 1_555 1_555
C15 C10 1_555 1_555
H10 C15 1_555 1_555
C16 O6 1_555 1_555
C17 C13 1_555 1_555
C18 C1 1_555 1_555
C19 C1 1_555 1_555
C20 C21 1_555 1_555
C21 C22 1_555 1_555
C22 H11 1_555 1_555
C23 C22 1_555 1_555
C24 C23 1_555 1_555
C25 C24 1_555 1_555
H12 C25 1_555 1_555
C26 C21 1_555 1_555
H13 C26 1_555 1_555
C27 O9 1_555 1_555
C28 C24 1_555 1_555
C29 C20 1_555 1_555
C30 C29 1_555 1_555
H14 C30 1_555 1_555
C31 C30 1_555 1_555
C32 C31 1_555 1_555
C33 C32 1_555 1_555
H15 C33 1_555 1_555
C34 C29 1_555 1_555
H16 C34 1_555 1_555
C35 O14 1_555 1_555
C36 C32 1_555 1_555
C37 C20 1_555 1_555
C38 C20 1_555 1_555
O19 H17 1_555 1_555
H18 O19 1_555 1_555
O20 H19 1_555 1_555
H20 O20 1_555 1_555
Nd1_2 O11 1_555 1_555
Nd1_3 O3 1_555 1_555
Nd1A O7 1_555 1_555
Nd1C O15 1_555 1_555
Nd2_2 O9 1_555 1_555
Nd2A O7 1_555 1_555
Nd2C O13 1_555 1_555
Nd2C_2 O15 1_555 1_555
O3_2 Nd1 1_555 1_555
O4_2 Nd1 1_555 1_555
O7A Nd1 1_555 1_555
O7A_2 Nd2 1_555 1_555
O8A Nd2 1_555 1_555
O9_2 Nd2 1_555 1_555
O11_2 Nd1 1_555 1_555
O12_2 Nd1 1_555 1_555
O13C Nd2 1_555 1_555
O15C Nd1 1_555 1_555
O16C Nd2 1_555 1_555
Nd2 O11_2 1_555 1_555
Nd2 O15C 1_555 1_555
O4 Nd1_3 1_555 1_555
O8 Nd2A 1_555 1_555
O10 C27 1_555 1_555
O11 Nd2_2 1_555 1_555
O12 Nd1_2 1_555 1_555
O16 Nd2C_2 1_555 1_555
C5 C9 1_555 1_555
C6 C7 1_555 1_555
C12 C16 1_555 1_555
C14 C15 1_555 1_555
C23 C27 1_555 1_555
C25 C26 1_555 1_555
C31 C35 1_555 1_555
C33 C34 1_555 1_555
Nd1_3 O7A_2 1_555 1_555
Nd1_3 O9_2 1_555 1_555
Nd2_2 O3_2 1_555 1_555
Nd2_2 O7A 1_555 1_555

#END
