
#######################################################################
#
#                 Cambridge Crystallographic Data Centre
#                                CCDC 
#
#######################################################################
#
# If this CIF has been generated from an entry in the Cambridge 
# Structural Database, then it will include bibliographic, chemical, 
# crystal, experimental, refinement or atomic coordinate data resulting 
# from the CCDC's data processing and validation procedures.
#
#######################################################################

data_KISPOS
_symmetry_cell_setting           rhombohedral
_symmetry_space_group_name_H-M   'R -3 c'
_symmetry_Int_Tables_number      167
_space_group_name_Hall           '-R 3 2"c'
loop_
_symmetry_equiv_pos_site_id
_symmetry_equiv_pos_as_xyz
1 x,y,z
2 -y,x-y,z
3 -x+y,-x,z
4 y,x,1/2-z
5 2/3+x,1/3+y,1/3+z
6 2/3-y,1/3+x-y,1/3+z
7 2/3-x+y,1/3-x,1/3+z
8 2/3+y,1/3+x,5/6-z
9 1/3+x,2/3+y,2/3+z
10 1/3+y,2/3+x,1/6-z
11 x-y,-y,1/2-z
12 -x,-x+y,1/2-z
13 1/3-y,2/3+x-y,2/3+z
14 1/3-x+y,2/3-x,2/3+z
15 1/3+x-y,2/3-y,1/6-z
16 1/3-x,2/3-x+y,1/6-z
17 2/3+x-y,1/3-y,5/6-z
18 2/3-x,1/3-x+y,5/6-z
19 -x,-y,-z
20 y,-x+y,-z
21 x-y,x,-z
22 -y,-x,1/2+z
23 1/3-x,2/3-y,2/3-z
24 1/3+y,2/3-x+y,2/3-z
25 1/3+x-y,2/3+x,2/3-z
26 1/3-y,2/3-x,1/6+z
27 2/3-x,1/3-y,1/3-z
28 2/3-y,1/3-x,5/6+z
29 -x+y,y,1/2+z
30 x,x-y,1/2+z
31 2/3+y,1/3-x+y,1/3-z
32 2/3+x-y,1/3+x,1/3-z
33 2/3-x+y,1/3+y,5/6+z
34 2/3+x,1/3+x-y,5/6+z
35 1/3-x+y,2/3+y,1/6+z
36 1/3+x,2/3+x-y,1/6+z
_cell_length_a                   17.1947(7)
_cell_length_b                   17.1947(7)
_cell_length_c                   84.661(4)
_cell_angle_alpha                90
_cell_angle_beta                 90
_cell_angle_gamma                120.00
_cell_volume                     21677.2
loop_
_atom_site_label
_atom_site_type_symbol
_atom_site_fract_x
_atom_site_fract_y
_atom_site_fract_z
Co1 Co 0.29590(4) 0.51630(4) 0.058787(6)
Co2 Co 0.23839(4) 0.45954(4) 0.021040(6)
Co3 Co 0.3333 0.6667 0.025571(11)
O1 O 0.2595(2) 0.5520(2) 0.03865(3)
H1 H 0.220(4) 0.549(4) 0.0391(6)
O2 O 0.1394(2) 0.3638(2) 0.03505(4)
O3 O 0.1933(2) 0.3814(2) 0.05988(4)
O4 O -0.1514(2) 0.0156(2) 0.08618(4)
O5 O -0.0172(2) 0.0969(2) 0.09658(3)
C1 C 0.1375(3) 0.3375(3) 0.04902(5)
C2 C 0.0624(4) 0.2432(3) 0.05217(6)
C3 C -0.0368(4) 0.1217(3) 0.06925(5)
C4 C 0.0351(3) 0.2082(3) 0.06736(5)
H2 H 0.0650 0.2427 0.0762
C5 C -0.0692(3) 0.0776(3) 0.08508(5)
C6 C 0.0209(6) 0.1891(5) 0.03913(7)
H3 H 0.0404 0.2116 0.0290
C7 C -0.0491(7) 0.1023(5) 0.04103(8)
H4 H -0.0764 0.0662 0.0323
C8 C -0.0783(6) 0.0696(5) 0.05605(7)
H5 H -0.1265 0.0117 0.0573
O6 O -0.1109(2) 0.4017(2) -0.04790(4)
O7 O -0.0907(2) 0.3338(2) -0.02698(4)
O8 O 0.2275(2) 0.6472(2) 0.01000(4)
O9 O 0.1568(2) 0.4976(2) 0.00894(4)
C9 C -0.0689(3) 0.4014(3) -0.03574(5)
C10 C 0.0130(4) 0.4884(4) -0.03094(5)
C11 C 0.1303(3) 0.5717(3) -0.01178(5)
C12 C 0.0562(3) 0.4926(3) -0.01684(5)
H6 H 0.0350 0.4412 -0.0107
C13 C 0.1740(3) 0.5722(3) 0.00354(5)
C14 C 0.0442(5) 0.5652(5) -0.04018(7)
H7 H 0.0153 0.5635 -0.0496
C15 C 0.1192(6) 0.6446(5) -0.03525(9)
H8 H 0.1405 0.6959 -0.0414
C16 C 0.1627(5) 0.6481(4) -0.02114(8)
H9 H 0.2131 0.7012 -0.0180
O10 O 0.2027(4) 0.3648(3) 0.00266(5)
H10 H 0.219(6) 0.323(6) 0.0022(10)
H11 H 0.138(7) 0.333(7) -0.0021(11)
Co1A Co 0.48370(4) 0.77960(6) 0.058787(6)
Co1B Co 0.22040(6) 0.70410(4) 0.058787(6)
Co1I Co -0.15037(4) -0.03743(4) 0.107880(6)
Co1N Co 0.11293(6) 0.15037(4) 0.107880(6)
Co1T Co -0.22040(6) 0.29590(4) -0.058787(6)
Co1R Co 0.70410(4) 0.48370(4) -0.058787(6)
Co1S Co 0.51630(4) 1.22040(6) -0.058787(6)
Co1I_2 Co 0.84963(4) 0.96257(4) 0.107880(6)
Co2A Co 0.54046(4) 0.77885(6) 0.021040(6)
Co2B Co 0.22115(6) 0.76161(4) 0.021040(6)
Co2T Co -0.22115(6) 0.23839(4) -0.021040(6)
Co2R Co 0.76161(4) 0.54046(4) -0.021040(6)
Co2S Co 0.45954(4) 1.22115(6) -0.021040(6)
Co2I Co 0.79287(4) 0.90506(4) 0.145627(6)
Co2N Co 0.11218(6) 0.20713(4) 0.145627(6)
O1A O 0.4480(2) 0.7075(3) 0.03865(3)
O1B O 0.2925(3) 0.7405(2) 0.03865(3)
H1A H 0.451(4) 0.671(6) 0.0391(6)
H1B H 0.329(6) 0.780(4) 0.0391(6)
O2I O 0.6971(2) 0.8061(2) 0.13162(4)
O2N O 0.1089(3) 0.3029(2) 0.13162(4)
O2A O 0.6362(2) 0.7756(3) 0.03505(4)
O2B O 0.2244(3) 0.8606(2) 0.03505(4)
O3I O 0.7147(2) 0.8600(2) 0.10679(4)
O3N O 0.1452(3) 0.2853(2) 0.10679(4)
O3A O 0.6186(2) 0.8119(3) 0.05988(4)
O3B O 0.1881(3) 0.8067(2) 0.05988(4)
O4I O 0.3489(2) 0.5153(2) 0.08049(4)
O4N O 0.1663(3) 0.6511(2) 0.08049(4)
O4O O 0.4847(2) 0.8337(3) 0.08049(4)
O5I O 0.4302(2) 0.6495(2) 0.07009(3)
O5N O 0.2192(3) 0.5698(2) 0.07009(3)
O5O O 0.3505(2) 0.7808(3) 0.07009(3)
C1I C 0.6708(3) 0.8042(3) 0.11765(5)
C1N C 0.1333(4) 0.3292(3) 0.11765(5)
C2I C 0.5765(3) 0.7291(4) 0.11450(6)
C2N C 0.1525(5) 0.4235(3) 0.11450(6)
C3I C 0.4550(3) 0.6299(4) 0.09742(5)
C3N C 0.1748(5) 0.5450(3) 0.09742(5)
C4I C 0.5415(3) 0.7018(3) 0.09931(5)
C4N C 0.1602(4) 0.4585(3) 0.09931(5)
H2I H 0.5760 0.7317 0.0905
H2N H 0.1556 0.4240 0.0905
C5I C 0.4109(3) 0.5975(3) 0.08159(5)
C5N C 0.1865(4) 0.5891(3) 0.08159(5)
C6I C 0.5224(5) 0.6876(6) 0.12754(7)
C6N C 0.1651(8) 0.4776(5) 0.12754(7)
H3I H 0.5449 0.7071 0.1377
H3N H 0.1621 0.4551 0.1377
C7I C 0.4356(5) 0.6176(7) 0.12564(8)
C7N C 0.1819(9) 0.5644(5) 0.12564(8)
H4I H 0.3995 0.5903 0.1344
H4N H 0.1907 0.6005 0.1344
C8I C 0.4029(5) 0.5884(6) 0.11062(7)
C8N C 0.1854(8) 0.5971(5) 0.11062(7)
H5I H 0.3450 0.5402 0.1094
H5N H 0.1951 0.6550 0.1094
O6A O 0.5983(2) 0.4874(3) -0.04790(4)
O6B O 0.5126(3) 1.1109(2) -0.04790(4)
O6S O 0.4017(2) 0.5126(3) 0.04790(4)
O6T O 0.4874(3) 0.8891(2) 0.04790(4)
O6R O 0.1109(2) 0.5983(2) 0.04790(4)
O7A O 0.6662(2) 0.5755(3) -0.02698(4)
O7B O 0.4245(3) 1.0907(2) -0.02698(4)
O7S O 0.3338(2) 0.4245(3) 0.02698(4)
O7T O 0.5755(3) 0.9093(2) 0.02698(4)
O7R O 0.0907(2) 0.6662(2) 0.02698(4)
O8A O 0.3528(2) 0.5803(3) 0.01000(4)
O8B O 0.4197(3) 0.7725(2) 0.01000(4)
O9A O 0.5024(2) 0.6592(3) 0.00894(4)
O9B O 0.3408(3) 0.8432(2) 0.00894(4)
C9A C 0.5986(3) 0.5297(4) -0.03574(5)
C9B C 0.4703(4) 1.0689(3) -0.03574(5)
C10A C 0.5116(4) 0.5246(6) -0.03094(5)
C10B C 0.4754(6) 0.9870(4) -0.03094(5)
C11A C 0.4283(3) 0.5586(4) -0.01178(5)
C11B C 0.4414(4) 0.8697(3) -0.01178(5)
C12A C 0.5074(3) 0.5636(4) -0.01684(5)
C12B C 0.4364(4) 0.9438(3) -0.01684(5)
H6A H 0.5588 0.5938 -0.0107
H6B H 0.4062 0.9650 -0.0107
C13A C 0.4278(3) 0.6018(4) 0.00354(5)
C13B C 0.3982(4) 0.8260(3) 0.00354(5)
C14A C 0.4348(5) 0.4790(7) -0.04018(7)
C14B C 0.5210(7) 0.9558(5) -0.04018(7)
H7A H 0.4365 0.4518 -0.0496
H7B H 0.5482 0.9847 -0.0496
C15A C 0.3554(5) 0.4746(8) -0.03525(9)
C15B C 0.5254(8) 0.8808(6) -0.03525(9)
H8A H 0.3041 0.4446 -0.0414
H8B H 0.5554 0.8595 -0.0414
C16A C 0.3519(4) 0.5146(6) -0.02114(8)
C16B C 0.4854(6) 0.8373(5) -0.02114(8)
H9A H 0.2988 0.5119 -0.0180
H9B H 0.4881 0.7869 -0.0180
O10A O 0.6352(3) 0.8379(5) 0.00266(5)
O10B O 0.1621(5) 0.7973(4) 0.00266(5)
H10A H 0.677(6) 0.896(8) 0.0022(10)
H10B H 0.104(8) 0.781(6) 0.0022(10)
H11A H 0.667(7) 0.805(10) -0.0021(11)
H11B H 0.195(10) 0.862(7) -0.0021(11)
K1 K 0.2785(2) 0.3333 0.0833
O11 O 0.451(3) 0.407(3) 0.0717(5)
O12 O 0.332(5) 0.271(5) 0.0554(8)
O14 O -0.267(3) 0.021(2) -0.0042(4)
O15 O -0.237(4) 0.101(5) 0.0294(8)
O16 O -0.166(4) -0.032(5) 0.0036(6)
O13? O 0.375(4) 0.283(4) 0.0602(6)
O17? O 0.2827(17) 0.325(2) 0.0776(3)
O18? O -0.2407(14) 0.0579(15) 0.0224(3)
O19? O -0.127(4) 0.023(4) 0.0023(5)
O20? O -0.130(3) -0.055(4) 0.0015(6)
O21? O -0.077(5) 0.003(6) 0.0018(7)
O22? O -0.204(4) 0.019(4) 0.0041(7)
O23? O -0.2381(19) 0.0250(19) 0.0114(4)
O24? O 0.353(9) 0.249(8) 0.0549(14)
O25? O -0.3205(10) -0.0023(9) -0.01240(16)
loop_
_geom_bond_atom_site_label_1
_geom_bond_atom_site_label_2
_geom_bond_site_symmetry_1
_geom_bond_site_symmetry_2
Co1 O1 1_555 1_555
Co2 O1 1_555 1_555
Co3 O1 1_555 1_555
O1 H1 1_555 1_555
O2 Co2 1_555 1_555
O3 Co1 1_555 1_555
O4 C5 1_555 1_555
O5 C5 1_555 1_555
C1 O2 1_555 1_555
C2 C1 1_555 1_555
C3 C4 1_555 1_555
C4 C2 1_555 1_555
H2 C4 1_555 1_555
C5 C3 1_555 1_555
C6 C2 1_555 1_555
H3 C6 1_555 1_555
C7 C6 1_555 1_555
H4 C7 1_555 1_555
C8 C3 1_555 1_555
H5 C8 1_555 1_555
O6 C9 1_555 1_555
O7 C9 1_555 1_555
O8 Co3 1_555 1_555
O9 Co2 1_555 1_555
C9 C10 1_555 1_555
C10 C12 1_555 1_555
C11 C12 1_555 1_555
C12 H6 1_555 1_555
C13 O8 1_555 1_555
C14 C10 1_555 1_555
H7 C14 1_555 1_555
C15 C14 1_555 1_555
H8 C15 1_555 1_555
C16 C11 1_555 1_555
H9 C16 1_555 1_555
O10 Co2 1_555 1_555
H10 O10 1_555 1_555
H11 O10 1_555 1_555
Co1A O1A 1_555 1_555
Co1B O1B 1_555 1_555
Co1I O4 1_555 1_555
Co1N O5 1_555 1_555
Co1T O6 1_555 1_555
Co1R O6A 1_555 1_555
Co1S O6B 1_555 1_555
Co1I_2 O3I 1_555 1_555
Co2A O1A 1_555 1_555
Co2B O8 1_555 1_555
Co2T O7 1_555 1_555
Co2R O7A 1_555 1_555
Co2S O7B 1_555 1_555
Co2I O2I 1_555 1_555
Co2N O2N 1_555 1_555
O1A Co3 1_555 1_555
O1B Co3 1_555 1_555
H1A O1A 1_555 1_555
H1B O1B 1_555 1_555
O2I C1I 1_555 1_555
O2N C1N 1_555 1_555
O2A Co2A 1_555 1_555
O2B Co2B 1_555 1_555
O3I C1I 1_555 1_555
O3N Co1N 1_555 1_555
O3A Co1A 1_555 1_555
O3B Co1B 1_555 1_555
O4I Co1 1_555 1_555
O4N Co1B 1_555 1_555
O4O Co1A 1_555 1_555
O5I Co1A 1_555 1_555
O5N Co1 1_555 1_555
O5O Co1B 1_555 1_555
C1I C2I 1_555 1_555
C1N O3N 1_555 1_555
C2I C4I 1_555 1_555
C2N C1N 1_555 1_555
C3I C4I 1_555 1_555
C3N C4N 1_555 1_555
C4I H2I 1_555 1_555
C4N C2N 1_555 1_555
H2N C4N 1_555 1_555
C5I O4I 1_555 1_555
C5N O4N 1_555 1_555
C6I C2I 1_555 1_555
C6N C2N 1_555 1_555
H3I C6I 1_555 1_555
H3N C6N 1_555 1_555
C7I C6I 1_555 1_555
C7N C6N 1_555 1_555
H4I C7I 1_555 1_555
H4N C7N 1_555 1_555
C8I C3I 1_555 1_555
C8N C3N 1_555 1_555
H5I C8I 1_555 1_555
H5N C8N 1_555 1_555
O6A C9A 1_555 1_555
O6B C9B 1_555 1_555
O6S Co1 1_555 1_555
O6T Co1A 1_555 1_555
O6R Co1B 1_555 1_555
O7A C9A 1_555 1_555
O7B C9B 1_555 1_555
O7S Co2 1_555 1_555
O7T Co2A 1_555 1_555
O7R Co2B 1_555 1_555
O8A Co2 1_555 1_555
O8B Co3 1_555 1_555
O9A Co2A 1_555 1_555
O9B Co2B 1_555 1_555
C9A C10A 1_555 1_555
C9B C10B 1_555 1_555
C10A C12A 1_555 1_555
C10B C12B 1_555 1_555
C11A C12A 1_555 1_555
C11B C12B 1_555 1_555
C12A H6A 1_555 1_555
C12B H6B 1_555 1_555
C13A O8A 1_555 1_555
C13B O8B 1_555 1_555
C14A C10A 1_555 1_555
C14B C10B 1_555 1_555
H7A C14A 1_555 1_555
H7B C14B 1_555 1_555
C15A C14A 1_555 1_555
C15B C14B 1_555 1_555
H8A C15A 1_555 1_555
H8B C15B 1_555 1_555
C16A C11A 1_555 1_555
C16B C11B 1_555 1_555
H9A C16A 1_555 1_555
H9B C16B 1_555 1_555
O10A Co2A 1_555 1_555
O10B Co2B 1_555 1_555
H10A O10A 1_555 1_555
H10B O10B 1_555 1_555
H11A O10A 1_555 1_555
H11B O10B 1_555 1_555
Co3 O8A 1_555 1_555
O3 C1 1_555 1_555
C7 C8 1_555 1_555
O9 C13 1_555 1_555
C11 C13 1_555 1_555
C15 C16 1_555 1_555
Co2A O8B 1_555 1_555
Co2B O1B 1_555 1_555
O5I C5I 1_555 1_555
O5N C5N 1_555 1_555
C3I C5I 1_555 1_555
C3N C5N 1_555 1_555
C7I C8I 1_555 1_555
C7N C8N 1_555 1_555
O9A C13A 1_555 1_555
O9B C13B 1_555 1_555
C11A C13A 1_555 1_555
C11B C13B 1_555 1_555
C15A C16A 1_555 1_555
C15B C16B 1_555 1_555

#END
