
#######################################################################
#
#                 Cambridge Crystallographic Data Centre
#                                CCDC 
#
#######################################################################
#
# If this CIF has been generated from an entry in the Cambridge 
# Structural Database, then it will include bibliographic, chemical, 
# crystal, experimental, refinement or atomic coordinate data resulting 
# from the CCDC's data processing and validation procedures.
#
#######################################################################

data_KIVFAY
_symmetry_cell_setting           triclinic
_symmetry_space_group_name_H-M   'P -1'
_symmetry_Int_Tables_number      2
_space_group_name_Hall           '-P 1'
loop_
_symmetry_equiv_pos_site_id
_symmetry_equiv_pos_as_xyz
1 x,y,z
2 -x,-y,-z
_cell_length_a                   10.819(2)
_cell_length_b                   16.730(3)
_cell_length_c                   17.370(3)
_cell_angle_alpha                114.65(3)
_cell_angle_beta                 93.04(3)
_cell_angle_gamma                99.62(3)
_cell_volume                     2790.76
loop_
_atom_site_label
_atom_site_type_symbol
_atom_site_fract_x
_atom_site_fract_y
_atom_site_fract_z
O1 O -0.1824(5) -0.0095(3) 1.0492(4)
O2 O -0.5371(4) 0.2398(3) 1.0394(3)
O3 O -0.6970(4) 0.1793(3) 1.0898(3)
C1 C -0.5857(6) 0.1893(5) 1.0724(5)
C2 C -0.5069(6) 0.1334(5) 1.0903(5)
O4 O -0.0706(5) -0.0772(5) 0.8861(4)
Ce1 Ce 0.08282(3) 0.14097(2) 1.01280(2)
Ce2 Ce 0.37144(3) 0.34357(3) 0.99600(3)
Ce3 Ce 0.43799(4) -0.13427(3) 0.40561(2)
C3 C 0.2607(7) -0.0277(5) 0.6425(5)
O5 O -0.0064(4) 0.2513(3) 0.9668(3)
O6 O -0.3881(4) 0.1376(3) 1.0668(3)
O7 O -0.1589(4) 0.3587(3) 0.9465(3)
O8 O -0.1459(4) 0.1226(3) 1.0405(3)
O9 O 0.2263(5) 0.1652(3) 0.9139(3)
O10 O -0.4002(4) 0.3739(3) 0.9723(3)
O11 O 0.1548(4) 0.3261(3) 0.9307(3)
O12 O -0.0634(5) 0.0501(4) 0.8738(3)
O13 O -0.2386(5) -0.0371(3) 0.7313(3)
O14 O 0.3761(5) 0.2113(3) 0.8517(3)
O15 O 0.2228(5) 0.3304(3) 1.0930(3)
O16 O 0.3835(5) 0.0018(3) 0.5457(3)
O17 O 0.2978(5) 0.4824(3) 1.2385(3)
O18 O -0.3744(5) 0.4958(3) 0.9467(4)
O19 O 0.0773(5) 0.2750(4) 1.1533(4)
C4 C 0.1928(8) 0.4208(5) 1.2332(5)
O20 O 0.5115(5) 0.4363(4) 1.1444(4)
C5 C -0.3366(6) 0.4305(4) 0.9509(4)
O21 O 0.3069(5) 0.0574(3) 0.7039(3)
C6 C 0.2494(7) 0.0654(5) 0.7739(5)
C7 C -0.2117(6) 0.0614(5) 1.0541(5)
O22 O 0.3726(5) 0.3897(4) 0.8688(4)
C8 C -0.0376(6) 0.3635(5) 0.9234(5)
C9 C -0.3377(6) 0.0735(5) 1.0805(5)
C10 C 0.0421(6) 0.3087(5) 0.9417(5)
O23 O -0.3718(6) 0.0221(3) 0.6386(3)
O24 O 0.2723(6) -0.1355(4) 0.5069(3)
C11 C 0.1627(8) 0.3359(5) 1.1545(5)
C12 C -0.2098(6) 0.4200(5) 0.9289(5)
O25 O 0.6312(6) -0.2039(4) 0.3587(5)
O26 O -0.4451(6) -0.1198(4) 0.5377(3)
C13 C 0.1690(8) -0.0120(5) 0.7579(5)
H1 H 0.1185 -0.0235 0.7954
C14 C 0.2853(6) 0.1522(5) 0.8513(4)
O27 O 0.3936(6) 0.7094(4) 1.3844(4)
C15 C -0.0163(7) 0.4246(5) 0.8911(5)
H2 H 0.0570 0.4398 0.8703
C16 C -0.1012(6) -0.0333(6) 0.8481(5)
C17 C -0.1265(7) 0.4613(5) 0.8949(5)
H3 H -0.1388 0.5051 0.8773
C18 C -0.3805(8) -0.0617(6) 0.6062(5)
C19 C -0.5320(7) 0.0700(6) 1.1189(6)
H4 H -0.6059 0.0543 1.1390
C20 C -0.3079(8) -0.0977(5) 0.6563(5)
C21 C -0.1834(7) -0.0847(5) 0.7652(5)
C22 C 0.1762(8) -0.0720(5) 0.6740(5)
H5 H 0.1314 -0.1311 0.6450
C23 C 0.3095(7) -0.0552(5) 0.5603(5)
C24 C -0.2168(10) -0.1735(6) 0.7137(7)
H6 H -0.1917 -0.2199 0.7226
O28 O 0.2120(6) -0.2032(6) 0.3236(5)
C25 C -0.4216(7) 0.0310(6) 1.1123(6)
H7 H -0.4106 -0.0149 1.1272
O29 O 0.4311(6) -0.2015(5) 0.2438(4)
C26 C 0.2023(14) 0.5460(7) 1.3500(8)
H8 H 0.1825 0.5876 1.4008
O30 O 0.4981(6) 0.6201(4) 1.2880(5)
C27 C 0.3002(8) 0.5586(5) 1.3107(6)
C28 C -0.2987(10) -0.1814(6) 0.6431(6)
H9 H -0.3384 -0.2345 0.5965
C29 C 0.1338(12) 0.4575(7) 1.3003(7)
H10 H 0.0605 0.4298 1.3123
C30 C 0.4066(9) 0.6348(5) 1.3290(5)
K1 K -0.26785(19) 0.25778(15) 1.02000(17)
O1A O 0.1824(5) 0.0095(3) 0.9508(4)
O2_2 O 0.4629(4) 0.2398(3) 1.0394(3)
O3_2 O 0.3030(4) 0.1793(3) 1.0898(3)
O4A O 0.0706(5) 0.0772(5) 1.1139(4)
Ce1_2 Ce -0.91718(3) 0.14097(2) 1.01280(2)
Ce1A Ce -0.08282(3) -0.14097(2) 0.98720(2)
Ce2_2 Ce -0.62856(3) 0.34357(3) 0.99600(3)
Ce2A Ce -0.37144(3) 0.65643(3) 1.00400(3)
Ce3_2 Ce -0.56201(4) -0.13427(3) 0.40561(2)
Ce3_3 Ce 0.43799(4) 0.86573(3) 1.40561(2)
Ce3A Ce -0.43799(4) 0.13427(3) 0.59439(2)
Ce3A_2 Ce 0.56201(4) 0.13427(3) 0.59439(2)
O10_2 O 0.5998(4) 0.3739(3) 0.9723(3)
O16A O 0.6165(5) -0.0018(3) 0.4543(3)
O18A O 0.3744(5) 0.5042(3) 1.0533(4)
O23A O 0.3718(6) -0.0221(3) 0.3614(3)
O26_2 O 0.5549(6) -0.1198(4) 0.5377(3)
O27_2 O 0.3936(6) -0.2906(4) 0.3844(4)
loop_
_geom_bond_atom_site_label_1
_geom_bond_atom_site_label_2
_geom_bond_site_symmetry_1
_geom_bond_site_symmetry_2
O1 C7 1_555 1_555
O2 C1 1_555 1_555
O3 C1 1_555 1_555
C1 C2 1_555 1_555
C2 O6 1_555 1_555
O4 C16 1_555 1_555
Ce1 O5 1_555 1_555
Ce2 O9 1_555 1_555
Ce3 O16 1_555 1_555
C3 O21 1_555 1_555
O5 C10 1_555 1_555
O6 C9 1_555 1_555
O7 C8 1_555 1_555
O8 Ce1 1_555 1_555
O9 Ce1 1_555 1_555
O10 C5 1_555 1_555
O11 Ce2 1_555 1_555
O12 Ce1 1_555 1_555
O13 C20 1_555 1_555
O14 Ce2 1_555 1_555
O15 Ce2 1_555 1_555
O16 C23 1_555 1_555
O17 C4 1_555 1_555
O18 C5 1_555 1_555
O19 Ce1 1_555 1_555
C4 C11 1_555 1_555
O20 Ce2 1_555 1_555
C5 C12 1_555 1_555
O21 C6 1_555 1_555
C6 C13 1_555 1_555
C7 O8 1_555 1_555
O22 Ce2 1_555 1_555
C8 C10 1_555 1_555
C9 C7 1_555 1_555
C10 O11 1_555 1_555
O23 C18 1_555 1_555
O24 Ce3 1_555 1_555
C11 O15 1_555 1_555
C12 O7 1_555 1_555
O25 Ce3 1_555 1_555
O26 C18 1_555 1_555
C13 H1 1_555 1_555
C14 O9 1_555 1_555
O27 C30 1_555 1_555
C15 C8 1_555 1_555
H2 C15 1_555 1_555
C16 O12 1_555 1_555
C17 C12 1_555 1_555
H3 C17 1_555 1_555
C18 C20 1_555 1_555
C19 C2 1_555 1_555
H4 C19 1_555 1_555
C20 C28 1_555 1_555
C21 O13 1_555 1_555
C22 C3 1_555 1_555
H5 C22 1_555 1_555
C23 C3 1_555 1_555
C24 C21 1_555 1_555
H6 C24 1_555 1_555
O28 Ce3 1_555 1_555
C25 C9 1_555 1_555
H7 C25 1_555 1_555
O29 Ce3 1_555 1_555
C26 H8 1_555 1_555
O30 C30 1_555 1_555
C27 O17 1_555 1_555
C28 C24 1_555 1_555
H9 C28 1_555 1_555
C29 C4 1_555 1_555
H10 C29 1_555 1_555
C30 C27 1_555 1_555
K1 O2 1_555 1_555
O1A Ce1 1_555 1_555
O2_2 Ce2 1_555 1_555
O3_2 Ce1 1_555 1_555
O4A Ce1 1_555 1_555
Ce1_2 O3 1_555 1_555
Ce1A O1 1_555 1_555
Ce2_2 O2 1_555 1_555
Ce2A O18 1_555 1_555
Ce3_2 O26 1_555 1_555
Ce3_3 O27 1_555 1_555
Ce3A O23 1_555 1_555
Ce3A_2 O16 1_555 1_555
O10_2 Ce2 1_555 1_555
O16A Ce3 1_555 1_555
O18A Ce2 1_555 1_555
O23A Ce3 1_555 1_555
O26_2 Ce3 1_555 1_555
O27_2 Ce3 1_555 1_555
O4 Ce1A 1_555 1_555
O5 K1 1_555 1_555
O6 K1 1_555 1_555
O7 K1 1_555 1_555
O8 K1 1_555 1_555
O10 K1 1_555 1_555
O10 Ce2_2 1_555 1_555
O14 C14 1_555 1_555
O19 C11 1_555 1_555
C6 C14 1_555 1_555
O24 C23 1_555 1_555
C13 C22 1_555 1_555
C15 C17 1_555 1_555
C16 C21 1_555 1_555
C19 C25 1_555 1_555
C26 C27 1_555 1_555
C26 C29 1_555 1_555
Ce3A_2 O16A 1_555 1_555

#END
