
#######################################################################
#
#                 Cambridge Crystallographic Data Centre
#                                CCDC 
#
#######################################################################
#
# If this CIF has been generated from an entry in the Cambridge 
# Structural Database, then it will include bibliographic, chemical, 
# crystal, experimental, refinement or atomic coordinate data resulting 
# from the CCDC's data processing and validation procedures.
#
#######################################################################

data_KIVVOC
_symmetry_cell_setting           orthorhombic
_symmetry_space_group_name_H-M   'P c a 21'
_symmetry_Int_Tables_number      29
_space_group_name_Hall           'P 2c -2ac'
loop_
_symmetry_equiv_pos_site_id
_symmetry_equiv_pos_as_xyz
1 x,y,z
2 -x,-y,1/2+z
3 1/2+x,-y,z
4 1/2-x,y,1/2+z
_cell_length_a                   21.487(6)
_cell_length_b                   7.790(2)
_cell_length_c                   20.666(6)
_cell_angle_alpha                90
_cell_angle_beta                 90
_cell_angle_gamma                90
_cell_volume                     3459.15
loop_
_atom_site_label
_atom_site_type_symbol
_atom_site_fract_x
_atom_site_fract_y
_atom_site_fract_z
Cd1 Cd -0.043942(10) -0.32299(3) 0.127118(12)
Cd2 Cd -0.497362(9) -0.20400(2) 0.163772(12)
O1 O -0.04011(12) -0.4200(4) 0.23156(12)
O2 O 0.06420(12) -0.2746(3) 0.13612(15)
H1 H 0.0831 -0.3662 0.1515
H2 H 0.0721 -0.1883 0.1624
O3 O -0.00154(14) -0.6739(5) 0.25937(14)
O4 O -0.01812(14) -0.1746(3) 0.54970(11)
O5 O 0.00633(11) -0.4274(3) 0.58670(11)
O6 O -0.14198(11) -0.4176(3) 0.11541(12)
O7 O -0.04835(12) -0.2212(3) 0.02451(13)
O8 O -0.10481(11) 0.1968(3) 0.1706(2)
O9 O -0.38508(10) -0.3148(3) 0.16626(15)
O10 O -0.41017(9) -0.0433(3) 0.18339(11)
O11 O -0.06490(9) -0.0570(3) 0.16464(12)
N1 N -0.00907(15) -0.1108(4) -0.06730(14)
N2 N -0.22887(12) -0.5431(4) 0.15567(16)
C1 C -0.01975(15) -0.5254(5) 0.27106(15)
C2 C -0.01699(15) -0.4756(4) 0.34163(14)
C3 C 0.04009(15) -0.4205(4) 0.36713(15)
C4 C 0.09629(17) -0.4035(6) 0.32326(17)
H3 H 0.1031 -0.2846 0.3134
H4 H 0.0891 -0.4659 0.2839
H5 H 0.1323 -0.4493 0.3447
C5 C 0.04421(14) -0.3823(4) 0.43294(14)
C6 C 0.10529(18) -0.3327(5) 0.46292(18)
H6 H 0.1369 -0.3301 0.4301
H7 H 0.1163 -0.4151 0.4955
H8 H 0.1016 -0.2211 0.4823
C7 C -0.00945(15) -0.3939(4) 0.47173(14)
C8 C -0.00629(15) -0.3285(4) 0.54013(15)
C9 C -0.06571(15) -0.4526(4) 0.44658(14)
C10 C -0.12141(16) -0.4722(5) 0.49032(16)
H9 H -0.1104 -0.4381 0.5335
H10 H -0.1346 -0.5900 0.4905
H11 H -0.1547 -0.4012 0.4748
C11 C -0.06898(17) -0.4956(4) 0.38067(13)
C12 C -0.12982(16) -0.5616(5) 0.35202(16)
H12 H -0.1244 -0.5831 0.3066
H13 H -0.1618 -0.4771 0.3580
H14 H -0.1416 -0.6661 0.3734
C13 C -0.11172(13) 0.0385(4) 0.16803(18)
C14 C -0.17778(12) -0.0281(4) 0.16971(19)
C15 C -0.21209(14) -0.0282(4) 0.11240(16)
C16 C -0.18136(18) 0.0137(6) 0.04888(19)
H15 H -0.1381 0.0379 0.0560
H16 H -0.2011 0.1123 0.0300
H17 H -0.1853 -0.0824 0.0201
C17 C -0.27589(14) -0.0684(4) 0.11491(16)
C18 C -0.31489(17) -0.0591(6) 0.05449(18)
H18 H -0.3570 -0.0902 0.0646
H19 H -0.2986 -0.1370 0.0227
H20 H -0.3139 0.0557 0.0376
C19 C -0.30178(13) -0.1126(4) 0.17448(16)
C20 C -0.37045(14) -0.1622(4) 0.17515(15)
C21 C -0.26746(14) -0.1172(4) 0.23116(16)
C22 C -0.29795(19) -0.1645(6) 0.29421(18)
H21 H -0.3410 -0.1913 0.2868
H22 H -0.2950 -0.0697 0.3237
H23 H -0.2774 -0.2627 0.3124
C23 C -0.20352(14) -0.0734(4) 0.22915(17)
C24 C -0.16454(19) -0.0708(6) 0.28915(19)
H24 H -0.1227 -0.0384 0.2783
H25 H -0.1644 -0.1830 0.3084
H26 H -0.1815 0.0105 0.3192
C25 C -0.17155(14) -0.4791(4) 0.1605(2)
H27 H -0.1526 -0.4813 0.2010
C26 C -0.2604(2) -0.5422(6) 0.0939(2)
H28 H -0.2340 -0.4900 0.0620
H29 H -0.2983 -0.4779 0.0975
H30 H -0.2697 -0.6579 0.0813
C27 C -0.26086(19) -0.6141(6) 0.2103(2)
H31 H -0.2349 -0.6057 0.2479
H32 H -0.2704 -0.7325 0.2020
H33 H -0.2988 -0.5516 0.2175
C28 C -0.00465(18) -0.1598(5) -0.00675(18)
H34 H 0.0336 -0.1476 0.0139
C29 C -0.0669(2) -0.1266(6) -0.1031(2)
H35 H -0.0980 -0.1781 -0.0760
H36 H -0.0604 -0.1973 -0.1406
H37 H -0.0807 -0.0149 -0.1165
C30 C 0.0444(2) -0.0343(6) -0.1006(2)
H38 H 0.0795 -0.0326 -0.0720
H39 H 0.0343 0.0808 -0.1134
H40 H 0.0543 -0.1012 -0.1382
Cd1A Cd 0.043942(10) -0.67701(3) 0.627118(12)
Cd2B Cd 0.002638(9) -0.79600(2) 0.163772(12)
Cd2B_2 Cd 0.002638(9) 0.20400(2) 0.163772(12)
Cd2C Cd -0.002638(9) -0.20400(2) 0.663772(12)
O3B O -0.50154(14) -0.3261(5) 0.25937(14)
O4C O -0.48188(14) -0.1746(3) 0.04970(11)
O5A O -0.00633(11) -0.5726(3) 0.08670(11)
O5C O -0.50633(11) -0.4274(3) 0.08670(11)
O8B O -0.60481(11) -0.1968(3) 0.1706(2)
O11B O -0.56490(9) 0.0570(3) 0.16464(12)
loop_
_geom_bond_atom_site_label_1
_geom_bond_atom_site_label_2
_geom_bond_site_symmetry_1
_geom_bond_site_symmetry_2
Cd1 O1 1_555 1_555
Cd2 O9 1_555 1_555
O1 C1 1_555 1_555
O2 Cd1 1_555 1_555
H1 O2 1_555 1_555
H2 O2 1_555 1_555
O3 C1 1_555 1_555
O4 C8 1_555 1_555
O5 C8 1_555 1_555
O6 Cd1 1_555 1_555
O7 Cd1 1_555 1_555
O8 C13 1_555 1_555
O9 C20 1_555 1_555
O10 Cd2 1_555 1_555
O11 Cd1 1_555 1_555
N1 C28 1_555 1_555
N2 C25 1_555 1_555
C1 C2 1_555 1_555
C2 C3 1_555 1_555
C3 C4 1_555 1_555
C4 H3 1_555 1_555
H4 C4 1_555 1_555
H5 C4 1_555 1_555
C5 C3 1_555 1_555
C6 C5 1_555 1_555
H6 C6 1_555 1_555
H7 C6 1_555 1_555
H8 C6 1_555 1_555
C7 C5 1_555 1_555
C8 C7 1_555 1_555
C9 C7 1_555 1_555
C10 C9 1_555 1_555
H9 C10 1_555 1_555
H10 C10 1_555 1_555
H11 C10 1_555 1_555
C11 C2 1_555 1_555
C12 C11 1_555 1_555
H12 C12 1_555 1_555
H13 C12 1_555 1_555
H14 C12 1_555 1_555
C13 O11 1_555 1_555
C14 C13 1_555 1_555
C15 C14 1_555 1_555
C16 C15 1_555 1_555
H15 C16 1_555 1_555
H16 C16 1_555 1_555
H17 C16 1_555 1_555
C17 C15 1_555 1_555
C18 C17 1_555 1_555
H18 C18 1_555 1_555
H19 C18 1_555 1_555
H20 C18 1_555 1_555
C19 C17 1_555 1_555
C20 O10 1_555 1_555
C21 C19 1_555 1_555
C22 C21 1_555 1_555
H21 C22 1_555 1_555
H22 C22 1_555 1_555
H23 C22 1_555 1_555
C23 C14 1_555 1_555
C24 C23 1_555 1_555
H24 C24 1_555 1_555
H25 C24 1_555 1_555
H26 C24 1_555 1_555
C25 O6 1_555 1_555
H27 C25 1_555 1_555
C26 N2 1_555 1_555
H28 C26 1_555 1_555
H29 C26 1_555 1_555
H30 C26 1_555 1_555
C27 N2 1_555 1_555
H31 C27 1_555 1_555
H32 C27 1_555 1_555
H33 C27 1_555 1_555
C28 O7 1_555 1_555
H34 C28 1_555 1_555
C29 N1 1_555 1_555
H35 C29 1_555 1_555
H36 C29 1_555 1_555
H37 C29 1_555 1_555
C30 N1 1_555 1_555
H38 C30 1_555 1_555
H39 C30 1_555 1_555
H40 C30 1_555 1_555
Cd1A O5 1_555 1_555
Cd2B O3 1_555 1_555
Cd2B_2 O8 1_555 1_555
Cd2C O4 1_555 1_555
O3B Cd2 1_555 1_555
O4C Cd2 1_555 1_555
O5A Cd1 1_555 1_555
O5C Cd2 1_555 1_555
O8B Cd2 1_555 1_555
O11B Cd2 1_555 1_555
O5 Cd2C 1_555 1_555
O11 Cd2B_2 1_555 1_555
C9 C11 1_555 1_555
C19 C20 1_555 1_555
C21 C23 1_555 1_555
Cd2B O5A 1_555 1_555

#END
