
#######################################################################
#
#                 Cambridge Crystallographic Data Centre
#                                CCDC 
#
#######################################################################
#
# If this CIF has been generated from an entry in the Cambridge 
# Structural Database, then it will include bibliographic, chemical, 
# crystal, experimental, refinement or atomic coordinate data resulting 
# from the CCDC's data processing and validation procedures.
#
#######################################################################

data_KIXKOS
_symmetry_cell_setting           rhombohedral
_symmetry_space_group_name_H-M   'R -3 c'
_symmetry_Int_Tables_number      167
_space_group_name_Hall           '-R 3 2"c'
loop_
_symmetry_equiv_pos_site_id
_symmetry_equiv_pos_as_xyz
1 x,y,z
2 -y,x-y,z
3 -x+y,-x,z
4 y,x,1/2-z
5 2/3+x,1/3+y,1/3+z
6 2/3-y,1/3+x-y,1/3+z
7 2/3-x+y,1/3-x,1/3+z
8 2/3+y,1/3+x,5/6-z
9 1/3+x,2/3+y,2/3+z
10 1/3+y,2/3+x,1/6-z
11 x-y,-y,1/2-z
12 -x,-x+y,1/2-z
13 1/3-y,2/3+x-y,2/3+z
14 1/3-x+y,2/3-x,2/3+z
15 1/3+x-y,2/3-y,1/6-z
16 1/3-x,2/3-x+y,1/6-z
17 2/3+x-y,1/3-y,5/6-z
18 2/3-x,1/3-x+y,5/6-z
19 -x,-y,-z
20 y,-x+y,-z
21 x-y,x,-z
22 -y,-x,1/2+z
23 1/3-x,2/3-y,2/3-z
24 1/3+y,2/3-x+y,2/3-z
25 1/3+x-y,2/3+x,2/3-z
26 1/3-y,2/3-x,1/6+z
27 2/3-x,1/3-y,1/3-z
28 2/3-y,1/3-x,5/6+z
29 -x+y,y,1/2+z
30 x,x-y,1/2+z
31 2/3+y,1/3-x+y,1/3-z
32 2/3+x-y,1/3+x,1/3-z
33 2/3-x+y,1/3+y,5/6+z
34 2/3+x,1/3+x-y,5/6+z
35 1/3-x+y,2/3+y,1/6+z
36 1/3+x,2/3+x-y,1/6+z
_cell_length_a                   16.9261(8)
_cell_length_b                   16.9261(8)
_cell_length_c                   84.627(5)
_cell_angle_alpha                90
_cell_angle_beta                 90
_cell_angle_gamma                120.00
_cell_volume                     20996.8
loop_
_atom_site_label
_atom_site_type_symbol
_atom_site_fract_x
_atom_site_fract_y
_atom_site_fract_z
Co1 Co 0.28996(4) 0.51092(5) 0.059032(7)
Co2 Co 0.23463(5) 0.45942(4) 0.023246(7)
Co3 Co 0.3333 0.6667 0.026240(12)
O1 O 0.2558(2) 0.5526(2) 0.03958(4)
H1 H 0.219(4) 0.555(4) 0.0414(7)
O2 O 0.1333(2) 0.3566(2) 0.03434(4)
O3 O 0.1831(2) 0.3763(2) 0.05915(4)
O4 O -0.1559(2) 0.0113(2) 0.08674(4)
O5 O -0.0204(2) 0.0990(3) 0.09613(4)
C1 C 0.1283(3) 0.3319(3) 0.04841(6)
C2 C 0.0485(4) 0.2406(3) 0.05193(6)
C3 C -0.0489(4) 0.1189(3) 0.06932(6)
C4 C 0.0265(3) 0.2050(3) 0.06701(6)
H2 H 0.0620 0.2385 0.0756
C5 C -0.0745(3) 0.0761(3) 0.08506(5)
C6 C -0.0045(6) 0.1893(5) 0.03932(7)
H3 H 0.0099 0.2130 0.0291
C7 C -0.0778(7) 0.1037(5) 0.04170(8)
H4 H -0.1119 0.0689 0.0331
C8 C -0.1005(5) 0.0703(5) 0.05656(7)
H5 H -0.1520 0.0135 0.0582
O6 O -0.1140(2) 0.3933(3) -0.04682(4)
O7 O -0.0963(2) 0.3241(2) -0.02594(4)
O8 O 0.2224(2) 0.6332(2) 0.01154(4)
O9 O 0.1723(2) 0.4865(2) 0.00664(4)
C9 C -0.0729(3) 0.3934(4) -0.03445(6)
C10 C 0.0060(4) 0.4804(4) -0.02915(6)
C11 C 0.1248(3) 0.5632(3) -0.01033(6)
C12 C 0.0554(3) 0.4820(3) -0.01620(6)
H6 H 0.0419 0.4275 -0.0113
C13 C 0.1771(3) 0.5612(3) 0.00372(5)
C14 C 0.0257(4) 0.5610(4) -0.03650(8)
H7 H -0.0074 0.5604 -0.0453
C15 C 0.0956(5) 0.6432(4) -0.03058(9)
H8 H 0.1096 0.6978 -0.0355
C16 C 0.1442(4) 0.6438(4) -0.01747(7)
H9 H 0.1902 0.6989 -0.0135
Co1A Co 0.48908(5) 0.77904(6) 0.059032(7)
Co1B Co 0.22096(6) 0.71004(4) 0.059032(7)
Co1I Co -0.15575(5) -0.04337(4) 0.107635(7)
Co1N Co 0.11237(6) 0.15575(5) 0.107635(7)
Co1T Co -0.22096(6) 0.28996(4) -0.059032(7)
Co1R Co 0.71004(4) 0.48908(5) -0.059032(7)
Co1S Co 0.51092(5) 1.22096(6) -0.059032(7)
Co1I_2 Co 0.84425(5) 0.95663(4) 0.107635(7)
Co2A Co 0.54058(4) 0.77521(6) 0.023246(7)
Co2B Co 0.22479(6) 0.76537(5) 0.023246(7)
Co2T Co -0.22479(6) 0.23463(5) -0.023246(7)
Co2R Co 0.76537(5) 0.54058(4) -0.023246(7)
Co2S Co 0.45942(4) 1.22479(6) -0.023246(7)
Co2I Co 0.79275(4) 0.90130(5) 0.143421(7)
Co2N Co 0.10854(6) 0.20725(4) 0.143421(7)
O1A O 0.4474(2) 0.7032(3) 0.03958(4)
O1B O 0.2968(3) 0.7442(2) 0.03958(4)
H1A H 0.445(4) 0.664(6) 0.0414(7)
H1B H 0.336(6) 0.781(4) 0.0414(7)
O2I O 0.6899(2) 0.8000(2) 0.13233(4)
O2N O 0.1100(3) 0.3101(2) 0.13233(4)
O2A O 0.6434(2) 0.7767(3) 0.03434(4)
O2B O 0.2233(3) 0.8667(2) 0.03434(4)
O3I O 0.7096(2) 0.8498(2) 0.10752(4)
O3N O 0.1401(3) 0.2904(2) 0.10752(4)
O3A O 0.6237(2) 0.8068(3) 0.05915(4)
O3B O 0.1932(3) 0.8169(2) 0.05915(4)
O4I O 0.3446(2) 0.5108(2) 0.07993(4)
O4N O 0.1661(3) 0.6554(2) 0.07993(4)
O4O O 0.4892(2) 0.8339(3) 0.07993(4)
O5I O 0.4323(3) 0.6463(2) 0.07054(4)
O5N O 0.2139(4) 0.5677(3) 0.07054(4)
O5O O 0.3537(2) 0.7861(4) 0.07054(4)
C1I C 0.6652(3) 0.7950(3) 0.11826(6)
C1N C 0.1297(4) 0.3348(3) 0.11826(6)
C2I C 0.5739(3) 0.7152(4) 0.11474(6)
C2N C 0.1412(5) 0.4261(3) 0.11474(6)
C3I C 0.4522(3) 0.6178(4) 0.09735(6)
C3N C 0.1655(5) 0.5478(3) 0.09735(6)
C4I C 0.5383(3) 0.6932(3) 0.09966(6)
C4N C 0.1548(4) 0.4617(3) 0.09966(6)
H2I H 0.5718 0.7287 0.0911
H2N H 0.1568 0.4282 0.0911
C5I C 0.4094(3) 0.5922(3) 0.08161(5)
C5N C 0.1827(4) 0.5906(3) 0.08161(5)
C6I C 0.5226(5) 0.6622(6) 0.12735(7)
C6N C 0.1395(8) 0.4774(5) 0.12735(7)
H3I H 0.5463 0.6766 0.1376
H3N H 0.1302 0.4537 0.1376
C7I C 0.4370(5) 0.5889(7) 0.12497(8)
C7N C 0.1518(9) 0.5630(5) 0.12497(8)
H4I H 0.4022 0.5548 0.1336
H4N H 0.1525 0.5978 0.1336
C8I C 0.4036(5) 0.5662(5) 0.11011(7)
C8N C 0.1625(7) 0.5964(5) 0.11011(7)
H5I H 0.3468 0.5147 0.1085
H5N H 0.1678 0.6532 0.1085
O6A O 0.6067(3) 0.4927(4) -0.04682(4)
O6B O 0.5073(4) 1.1140(2) -0.04682(4)
O6S O 0.3933(3) 0.5073(4) 0.04682(4)
O6T O 0.4927(4) 0.8860(2) 0.04682(4)
O6R O 0.1140(2) 0.6067(3) 0.04682(4)
O7A O 0.6759(2) 0.5796(3) -0.02594(4)
O7B O 0.4204(3) 1.0963(2) -0.02594(4)
O7S O 0.3241(2) 0.4204(3) 0.02594(4)
O7T O 0.5796(3) 0.9037(2) 0.02594(4)
O7R O 0.0963(2) 0.6759(2) 0.02594(4)
O8A O 0.3668(2) 0.5892(3) 0.01154(4)
O8B O 0.4108(3) 0.7776(2) 0.01154(4)
O9A O 0.5135(2) 0.6858(3) 0.00664(4)
O9B O 0.3142(3) 0.8277(2) 0.00664(4)
C9A C 0.6066(4) 0.5337(5) -0.03445(6)
C9B C 0.4663(5) 1.0729(3) -0.03445(6)
C10A C 0.5196(4) 0.5256(6) -0.02915(6)
C10B C 0.4744(6) 0.9940(4) -0.02915(6)
C11A C 0.4368(3) 0.5616(4) -0.01033(6)
C11B C 0.4384(4) 0.8752(3) -0.01033(6)
C12A C 0.5180(3) 0.5734(4) -0.01620(6)
C12B C 0.4266(4) 0.9446(3) -0.01620(6)
H6A H 0.5725 0.6144 -0.0113
H6B H 0.3856 0.9581 -0.0113
C13A C 0.4388(3) 0.6159(4) 0.00372(5)
C13B C 0.3841(4) 0.8229(3) 0.00372(5)
C14A C 0.4390(4) 0.4647(6) -0.03650(8)
C14B C 0.5353(6) 0.9743(4) -0.03650(8)
H7A H 0.4396 0.4322 -0.0453
H7B H 0.5678 1.0074 -0.0453
C15A C 0.3568(4) 0.4524(6) -0.03058(9)
C15B C 0.5476(6) 0.9044(5) -0.03058(9)
H8A H 0.3022 0.4118 -0.0355
H8B H 0.5882 0.8904 -0.0355
C16A C 0.3562(4) 0.5004(6) -0.01747(7)
C16B C 0.4996(6) 0.8558(4) -0.01747(7)
H9A H 0.3011 0.4913 -0.0135
H9B H 0.5087 0.8098 -0.0135
K1 K 0.26618(17) 0.3333 0.0833
loop_
_geom_bond_atom_site_label_1
_geom_bond_atom_site_label_2
_geom_bond_site_symmetry_1
_geom_bond_site_symmetry_2
Co1 O1 1_555 1_555
Co2 O1 1_555 1_555
Co3 O1 1_555 1_555
O1 H1 1_555 1_555
O2 Co2 1_555 1_555
O3 Co1 1_555 1_555
O4 C5 1_555 1_555
O5 C5 1_555 1_555
C1 O2 1_555 1_555
C2 C1 1_555 1_555
C3 C4 1_555 1_555
C4 C2 1_555 1_555
H2 C4 1_555 1_555
C5 C3 1_555 1_555
C6 C2 1_555 1_555
H3 C6 1_555 1_555
C7 C6 1_555 1_555
H4 C7 1_555 1_555
C8 C3 1_555 1_555
H5 C8 1_555 1_555
O6 C9 1_555 1_555
O7 C9 1_555 1_555
O8 Co3 1_555 1_555
O9 Co2 1_555 1_555
C9 C10 1_555 1_555
C10 C12 1_555 1_555
C11 C12 1_555 1_555
C12 H6 1_555 1_555
C13 O8 1_555 1_555
C14 C10 1_555 1_555
H7 C14 1_555 1_555
C15 C14 1_555 1_555
H8 C15 1_555 1_555
C16 C11 1_555 1_555
H9 C16 1_555 1_555
Co1A O1A 1_555 1_555
Co1B O1B 1_555 1_555
Co1I O4 1_555 1_555
Co1N O5 1_555 1_555
Co1T O6 1_555 1_555
Co1R O6A 1_555 1_555
Co1S O6B 1_555 1_555
Co1I_2 O3I 1_555 1_555
Co2A O1A 1_555 1_555
Co2B O1B 1_555 1_555
Co2T O7 1_555 1_555
Co2R O7A 1_555 1_555
Co2S O7B 1_555 1_555
Co2I O2I 1_555 1_555
Co2N O2N 1_555 1_555
O1A Co3 1_555 1_555
O1B Co3 1_555 1_555
H1A O1A 1_555 1_555
H1B O1B 1_555 1_555
O2I C1I 1_555 1_555
O2N C1N 1_555 1_555
O2A Co2A 1_555 1_555
O2B Co2B 1_555 1_555
O3I C1I 1_555 1_555
O3N Co1N 1_555 1_555
O3A Co1A 1_555 1_555
O3B Co1B 1_555 1_555
O4I Co1 1_555 1_555
O4N Co1B 1_555 1_555
O4O Co1A 1_555 1_555
O5I Co1A 1_555 1_555
O5N Co1 1_555 1_555
O5O Co1B 1_555 1_555
C1I C2I 1_555 1_555
C1N O3N 1_555 1_555
C2I C4I 1_555 1_555
C2N C1N 1_555 1_555
C3I C4I 1_555 1_555
C3N C4N 1_555 1_555
C4I H2I 1_555 1_555
C4N C2N 1_555 1_555
H2N C4N 1_555 1_555
C5I O4I 1_555 1_555
C5N O4N 1_555 1_555
C6I C2I 1_555 1_555
C6N C2N 1_555 1_555
H3I C6I 1_555 1_555
H3N C6N 1_555 1_555
C7I C6I 1_555 1_555
C7N C6N 1_555 1_555
H4I C7I 1_555 1_555
H4N C7N 1_555 1_555
C8I C3I 1_555 1_555
C8N C3N 1_555 1_555
H5I C8I 1_555 1_555
H5N C8N 1_555 1_555
O6A C9A 1_555 1_555
O6B C9B 1_555 1_555
O6S Co1 1_555 1_555
O6T Co1A 1_555 1_555
O6R Co1B 1_555 1_555
O7A C9A 1_555 1_555
O7B C9B 1_555 1_555
O7S Co2 1_555 1_555
O7T Co2A 1_555 1_555
O7R Co2B 1_555 1_555
O8A Co3 1_555 1_555
O8B Co3 1_555 1_555
O9A Co2A 1_555 1_555
O9B Co2B 1_555 1_555
C9A C10A 1_555 1_555
C9B C10B 1_555 1_555
C10A C12A 1_555 1_555
C10B C12B 1_555 1_555
C11A C12A 1_555 1_555
C11B C12B 1_555 1_555
C12A H6A 1_555 1_555
C12B H6B 1_555 1_555
C13A O8A 1_555 1_555
C13B O8B 1_555 1_555
C14A C10A 1_555 1_555
C14B C10B 1_555 1_555
H7A C14A 1_555 1_555
H7B C14B 1_555 1_555
C15A C14A 1_555 1_555
C15B C14B 1_555 1_555
H8A C15A 1_555 1_555
H8B C15B 1_555 1_555
C16A C11A 1_555 1_555
C16B C11B 1_555 1_555
H9A C16A 1_555 1_555
H9B C16B 1_555 1_555
O3 C1 1_555 1_555
C7 C8 1_555 1_555
O9 C13 1_555 1_555
C11 C13 1_555 1_555
C15 C16 1_555 1_555
O5I C5I 1_555 1_555
O5N C5N 1_555 1_555
C3I C5I 1_555 1_555
C3N C5N 1_555 1_555
C7I C8I 1_555 1_555
C7N C8N 1_555 1_555
O9A C13A 1_555 1_555
O9B C13B 1_555 1_555
C11A C13A 1_555 1_555
C11B C13B 1_555 1_555
C15A C16A 1_555 1_555
C15B C16B 1_555 1_555

#END
