
#######################################################################
#
#                 Cambridge Crystallographic Data Centre
#                                CCDC 
#
#######################################################################
#
# If this CIF has been generated from an entry in the Cambridge 
# Structural Database, then it will include bibliographic, chemical, 
# crystal, experimental, refinement or atomic coordinate data resulting 
# from the CCDC's data processing and validation procedures.
#
#######################################################################

data_KIXXIA
_symmetry_cell_setting           orthorhombic
_symmetry_space_group_name_H-M   'P n m a'
_symmetry_Int_Tables_number      62
_space_group_name_Hall           '-P 2ac 2n'
loop_
_symmetry_equiv_pos_site_id
_symmetry_equiv_pos_as_xyz
1 x,y,z
2 1/2-x,-y,1/2+z
3 -x,1/2+y,-z
4 1/2+x,1/2-y,1/2-z
5 -x,-y,-z
6 1/2+x,y,1/2-z
7 x,1/2-y,z
8 1/2-x,1/2+y,1/2+z
_cell_length_a                   14.7579(2)
_cell_length_b                   30.9679(4)
_cell_length_c                   11.3786(2)
_cell_angle_alpha                90
_cell_angle_beta                 90
_cell_angle_gamma                90
_cell_volume                     5200.26
loop_
_atom_site_label
_atom_site_type_symbol
_atom_site_fract_x
_atom_site_fract_y
_atom_site_fract_z
Mg1 Mg 0.11565(6) 0.59092(3) 0.30361(7)
Mg2 Mg -0.11159(5) 0.57304(3) 0.40849(7)
O1 O 0.00445(12) 0.54873(6) 0.29703(15)
O2 O 0.10818(14) 0.58754(8) -0.51680(17)
O3 O 0.12471(13) 0.59239(7) 0.12603(16)
O4 O 0.03443(14) 0.64312(6) 0.30346(19)
O5 O -0.11322(13) 0.63185(6) 0.32621(18)
O6 O -0.13640(12) 0.54073(7) 0.24641(18)
O7 O 0.26052(13) 0.57911(8) 0.05229(18)
O8 O -0.03446(13) 0.59587(7) -0.45970(17)
O9 O 0.19189(13) 0.53185(7) 0.3119(2)
H1 H 0.2552 0.5356 0.3079
H2 H 0.2160 0.5454 0.3815
O10 O -0.10304(15) 0.51211(7) 0.4932(2)
H3 H -0.1406 0.4929 0.5171
H4 H -0.0597 0.4945 0.4792
O11 O 0.23083(14) 0.62834(8) 0.3189(2)
H5 H 0.2736 0.6320 0.2540
H6 H 0.2435 0.6492 0.3709
C1 C -0.05369(17) 0.53644(8) 0.2227(2)
C2 C 0.0489(2) 0.59441(9) -0.4404(2)
C3 C 0.17852(17) 0.58924(8) 0.0419(2)
C4 C 0.08238(19) 0.59896(10) -0.3154(2)
C5 C 0.14399(17) 0.59606(9) -0.0811(2)
C6 C -0.05693(18) 0.70451(9) 0.3157(2)
C7 C -0.02573(17) 0.51760(9) 0.1077(2)
C8 C -0.06266(18) 0.53439(9) 0.0048(2)
C9 C -0.04515(18) 0.65634(9) 0.3150(2)
C10 C -0.12023(19) 0.72690(9) 0.3881(3)
C11 C 0.0745(2) 0.62562(10) -0.1124(2)
C12 C 0.1516(2) 0.57267(11) -0.2825(3)
H7 H 0.1797 0.5554 -0.3387
C13 C 0.00316(19) 0.72755(9) 0.2475(3)
H8 H 0.0445 0.7128 0.2006
C14 C 0.1812(2) 0.57103(11) -0.1663(3)
H9 H 0.2279 0.5522 -0.1465
C15 C -0.0660(3) 0.53686(18) -0.2050(5)
H10 H -0.0433 0.5262 -0.2787
C16 C -0.1811(2) 0.70529(11) 0.4648(3)
H11 H -0.1810 0.6753 0.4670
C17 C -0.1243(4) 0.5720(2) -0.2018(5)
H12 H -0.1452 0.5842 -0.2713
C18 C -0.0234(3) 0.65799(16) -0.2615(3)
H13 H -0.0450 0.6591 -0.3382
C19 C 0.0370(3) 0.65568(13) -0.0307(3)
H14 H 0.0559 0.6551 0.0472
C20 C -0.1515(4) 0.5890(2) -0.0933(6)
H15 H -0.1912 0.6123 -0.0900
C21 C -0.2388(3) 0.72712(13) 0.5347(4)
H16 H -0.2788 0.7121 0.5830
C22 C -0.0250(4) 0.68470(18) -0.0650(4)
H17 H -0.0477 0.7043 -0.0107
C23 C -0.0561(4) 0.6860(2) -0.1807(4)
H18 H -0.0995 0.7062 -0.2025
C24 C -0.1187(4) 0.57077(19) 0.0080(5)
H19 H -0.1341 0.5828 0.0801
C25 C 0.0430(2) 0.62694(10) -0.2311(3)
C26 C -0.03623(18) 0.51660(9) -0.1047(2)
O1D O -0.00445(12) 0.45127(6) -0.29703(15)
O6D O 0.13640(12) 0.45927(7) -0.24641(18)
C1D C 0.05369(17) 0.46356(8) -0.2227(2)
C7D C 0.02573(17) 0.48240(9) -0.1077(2)
C8D C 0.06266(18) 0.46561(9) -0.0048(2)
C15D C 0.0660(3) 0.46314(18) 0.2050(5)
H10D H 0.0433 0.4738 0.2787
C17D C 0.1243(4) 0.4280(2) 0.2018(5)
H12D H 0.1452 0.4158 0.2713
C20D C 0.1515(4) 0.4110(2) 0.0933(6)
H15D H 0.1912 0.3877 0.0900
C24D C 0.1187(4) 0.42923(19) -0.0080(5)
H19D H 0.1341 0.4172 -0.0801
C26D C 0.03623(18) 0.48340(9) 0.1047(2)
O4F O 0.03443(14) 0.85688(6) 0.30346(19)
O5F O -0.11322(13) 0.86815(6) 0.32621(18)
C6F C -0.05693(18) 0.79549(9) 0.3157(2)
C9F C -0.04515(18) 0.84366(9) 0.3150(2)
C10F C -0.12023(19) 0.77310(9) 0.3881(3)
C13F C 0.00316(19) 0.77245(9) 0.2475(3)
H8F H 0.0445 0.7872 0.2006
C16F C -0.1811(2) 0.79471(11) 0.4648(3)
H11F H -0.1810 0.8247 0.4670
C21F C -0.2388(3) 0.77288(13) 0.5347(4)
H16F H -0.2788 0.7879 0.5830
Mg1D Mg -0.11565(6) 0.40908(3) -0.30361(7)
Mg2D Mg 0.11159(5) 0.42696(3) -0.40849(7)
O2D O -0.10818(14) 0.41246(8) 0.51680(17)
O3D O -0.12471(13) 0.40761(7) -0.12603(16)
O7D O -0.26052(13) 0.42089(8) -0.05229(18)
O8D O 0.03446(13) 0.40413(7) 0.45970(17)
O9D O -0.19189(13) 0.46815(7) -0.3119(2)
H1D H -0.2552 0.4644 -0.3079
H2D H -0.2160 0.4546 -0.3815
O10D O 0.10304(15) 0.48789(7) -0.4932(2)
H3D H 0.1406 0.5071 -0.5171
H4D H 0.0597 0.5055 -0.4792
O11D O -0.23083(14) 0.37166(8) -0.3189(2)
H5D H -0.2736 0.3680 -0.2540
H6D H -0.2435 0.3508 -0.3709
C2D C -0.0489(2) 0.40559(9) 0.4404(2)
C3D C -0.17852(17) 0.41076(8) -0.0419(2)
C4D C -0.08238(19) 0.40104(10) 0.3154(2)
C5D C -0.14399(17) 0.40394(9) 0.0811(2)
C11D C -0.0745(2) 0.37438(10) 0.1124(2)
C12D C -0.1516(2) 0.42733(11) 0.2825(3)
H7D H -0.1797 0.4446 0.3387
C14D C -0.1812(2) 0.42897(11) 0.1663(3)
H9D H -0.2279 0.4478 0.1465
C18D C 0.0234(3) 0.34201(16) 0.2615(3)
H13D H 0.0450 0.3409 0.3382
C19D C -0.0370(3) 0.34432(13) 0.0307(3)
H14D H -0.0559 0.3449 -0.0472
C22D C 0.0250(4) 0.31530(18) 0.0650(4)
H17D H 0.0477 0.2957 0.0107
C23D C 0.0561(4) 0.3140(2) 0.1807(4)
H18D H 0.0995 0.2938 0.2025
C25D C -0.0430(2) 0.37306(10) 0.2311(3)
Mg1_2 Mg 0.11565(6) 0.59092(3) -0.69639(7)
Mg1D_2 Mg -0.11565(6) 0.40908(3) 0.69639(7)
Mg1F Mg 0.11565(6) 0.90908(3) 0.30361(7)
Mg2_2 Mg -0.11159(5) 0.57304(3) -0.59151(7)
Mg2A Mg -0.38841(5) 0.42696(3) -0.09151(7)
Mg2D_2 Mg 0.11159(5) 0.42696(3) 0.59151(7)
Mg2E Mg 0.38841(5) 0.57304(3) 0.09151(7)
Mg2F Mg -0.11159(5) 0.92696(3) 0.40849(7)
O2_2 O 0.10818(14) 0.58754(8) 0.48320(17)
O2D_2 O -0.10818(14) 0.41246(8) -0.48320(17)
O4D O -0.03443(14) 0.35688(6) -0.30346(19)
O5D O 0.11322(13) 0.36815(6) -0.32621(18)
O7A O 0.23948(13) 0.42089(8) -0.44771(18)
O7E O -0.23948(13) 0.57911(8) 0.44771(18)
O8_2 O -0.03446(13) 0.59587(7) 0.54030(17)
O8D_2 O 0.03446(13) 0.40413(7) -0.54030(17)
loop_
_geom_bond_atom_site_label_1
_geom_bond_atom_site_label_2
_geom_bond_site_symmetry_1
_geom_bond_site_symmetry_2
Mg1 O1 1_555 1_555
Mg2 O1 1_555 1_555
O1 C1 1_555 1_555
O2 C2 1_555 1_555
O3 Mg1 1_555 1_555
O4 Mg1 1_555 1_555
O5 Mg2 1_555 1_555
O6 Mg2 1_555 1_555
O7 C3 1_555 1_555
O8 C2 1_555 1_555
O9 Mg1 1_555 1_555
H1 O9 1_555 1_555
H2 O9 1_555 1_555
O10 Mg2 1_555 1_555
H3 O10 1_555 1_555
H4 O10 1_555 1_555
O11 Mg1 1_555 1_555
H5 O11 1_555 1_555
H6 O11 1_555 1_555
C1 O6 1_555 1_555
C2 C4 1_555 1_555
C3 O3 1_555 1_555
C4 C12 1_555 1_555
C5 C3 1_555 1_555
C6 C9 1_555 1_555
C7 C1 1_555 1_555
C8 C7 1_555 1_555
C9 O4 1_555 1_555
C10 C6 1_555 1_555
C11 C5 1_555 1_555
C12 H7 1_555 1_555
C13 C6 1_555 1_555
H8 C13 1_555 1_555
C14 C5 1_555 1_555
H9 C14 1_555 1_555
C15 H10 1_555 1_555
C16 C10 1_555 1_555
H11 C16 1_555 1_555
C17 C15 1_555 1_555
H12 C17 1_555 1_555
C18 H13 1_555 1_555
C19 C11 1_555 1_555
H14 C19 1_555 1_555
C20 C17 1_555 1_555
H15 C20 1_555 1_555
C21 C16 1_555 1_555
H16 C21 1_555 1_555
C22 C19 1_555 1_555
H17 C22 1_555 1_555
C23 C18 1_555 1_555
H18 C23 1_555 1_555
C24 C8 1_555 1_555
H19 C24 1_555 1_555
C25 C4 1_555 1_555
C26 C8 1_555 1_555
O1D C1D 1_555 1_555
O6D C1D 1_555 1_555
C1D C7D 1_555 1_555
C7D C26 1_555 1_555
C8D C7D 1_555 1_555
C15D H10D 1_555 1_555
C17D C15D 1_555 1_555
H12D C17D 1_555 1_555
C20D C17D 1_555 1_555
H15D C20D 1_555 1_555
C24D C8D 1_555 1_555
H19D C24D 1_555 1_555
C26D C7 1_555 1_555
O4F C9F 1_555 1_555
O5F C9F 1_555 1_555
C6F C9F 1_555 1_555
C10F C10 1_555 1_555
C13F C13 1_555 1_555
H8F C13F 1_555 1_555
C16F C10F 1_555 1_555
H11F C16F 1_555 1_555
C21F C21 1_555 1_555
H16F C21F 1_555 1_555
Mg1D O1D 1_555 1_555
Mg2D O1D 1_555 1_555
O2D C2D 1_555 1_555
O3D Mg1D 1_555 1_555
O7D C3D 1_555 1_555
O8D C2D 1_555 1_555
O9D Mg1D 1_555 1_555
H1D O9D 1_555 1_555
H2D O9D 1_555 1_555
O10D Mg2D 1_555 1_555
H3D O10D 1_555 1_555
H4D O10D 1_555 1_555
O11D Mg1D 1_555 1_555
H5D O11D 1_555 1_555
H6D O11D 1_555 1_555
C2D C4D 1_555 1_555
C3D O3D 1_555 1_555
C4D C12D 1_555 1_555
C5D C3D 1_555 1_555
C11D C5D 1_555 1_555
C12D H7D 1_555 1_555
C14D C5D 1_555 1_555
H9D C14D 1_555 1_555
C18D H13D 1_555 1_555
C19D C11D 1_555 1_555
H14D C19D 1_555 1_555
C22D C19D 1_555 1_555
H17D C22D 1_555 1_555
C23D C18D 1_555 1_555
H18D C23D 1_555 1_555
C25D C4D 1_555 1_555
Mg1_2 O2 1_555 1_555
Mg1D_2 O2D 1_555 1_555
Mg1F O4F 1_555 1_555
Mg2_2 O8 1_555 1_555
Mg2A O7D 1_555 1_555
Mg2D_2 O8D 1_555 1_555
Mg2E O7 1_555 1_555
Mg2F O5F 1_555 1_555
O2_2 Mg1 1_555 1_555
O2D_2 Mg1D 1_555 1_555
O4D Mg1D 1_555 1_555
O5D Mg2D 1_555 1_555
O7A Mg2D 1_555 1_555
O7E Mg2 1_555 1_555
O8_2 Mg2 1_555 1_555
O8D_2 Mg2D 1_555 1_555
O5 C9 1_555 1_555
C11 C25 1_555 1_555
C12 C14 1_555 1_555
C15 C26 1_555 1_555
C18 C25 1_555 1_555
C20 C24 1_555 1_555
C22 C23 1_555 1_555
O6D Mg2D 1_555 1_555
C8D C26D 1_555 1_555
C15D C26D 1_555 1_555
C20D C24D 1_555 1_555
C6F C10F 1_555 1_555
C6F C13F 1_555 1_555
C16F C21F 1_555 1_555
C11D C25D 1_555 1_555
C12D C14D 1_555 1_555
C18D C25D 1_555 1_555
C22D C23D 1_555 1_555

#END
