
#######################################################################
#
#                 Cambridge Crystallographic Data Centre
#                                CCDC 
#
#######################################################################
#
# If this CIF has been generated from an entry in the Cambridge 
# Structural Database, then it will include bibliographic, chemical, 
# crystal, experimental, refinement or atomic coordinate data resulting 
# from the CCDC's data processing and validation procedures.
#
#######################################################################

data_KIYJAF
_symmetry_cell_setting           monoclinic
_symmetry_space_group_name_H-M   'P 21/n'
_symmetry_Int_Tables_number      14
_space_group_name_Hall           '-P 2yn'
loop_
_symmetry_equiv_pos_site_id
_symmetry_equiv_pos_as_xyz
1 x,y,z
2 1/2-x,1/2+y,1/2-z
3 -x,-y,-z
4 1/2+x,1/2-y,1/2+z
_cell_length_a                   17.2061(8)
_cell_length_b                   16.2099(7)
_cell_length_c                   34.9123(16)
_cell_angle_alpha                90
_cell_angle_beta                 94.604(3)
_cell_angle_gamma                90
_cell_volume                     9705.94
loop_
_atom_site_label
_atom_site_type_symbol
_atom_site_fract_x
_atom_site_fract_y
_atom_site_fract_z
Co1 Co 0.11369(5) 0.21872(5) 0.01183(2)
Co2 Co -0.10983(5) 0.26384(5) 0.01108(2)
Co3 Co -0.41488(5) 0.56911(5) -0.14667(2)
Co4 Co -0.04800(5) 0.52725(6) -0.33625(2)
Co5 Co -0.72033(5) 0.24426(6) -0.20507(2)
N1 N 0.1058(3) 0.2741(3) -0.04113(13)
N2 N 0.0555(3) 0.3234(3) -0.09658(13)
N3 N -0.3152(3) 0.4980(3) -0.13221(14)
N4 N -0.1990(3) 0.4396(3) -0.13109(14)
N5 N -0.0137(3) 0.4603(3) -0.28664(14)
N6 N -0.0078(3) 0.4215(3) -0.22607(13)
N7 N -0.2258(3) 0.2348(3) -0.01210(14)
N8 N -0.3534(3) 0.2276(3) -0.02784(14)
N9 N -0.6020(3) 0.3560(3) 0.09553(14)
N10 N -0.5838(3) 0.2910(3) 0.04140(14)
N11 N -0.6795(3) 0.2130(3) -0.14759(14)
N12 N -0.6142(3) 0.2007(3) -0.09041(14)
N13 N -0.4518(3) 0.4998(4) -0.19654(15)
N14 N -0.4620(3) 0.4447(3) -0.25449(14)
N15 N -0.1507(3) 0.4592(4) -0.34888(15)
N16 N -0.2712(3) 0.4150(3) -0.34831(14)
N17 N -0.5994(3) 0.2941(3) -0.43608(14)
N18 N -0.5401(3) 0.3371(3) -0.38108(13)
C1 C 0.0184(4) 0.3866(4) 0.11455(19)
C2 C 0.0715(5) 0.3474(5) 0.1403(2)
H1 H 0.1186 0.3293 0.1321
C3 C 0.0558(5) 0.3347(5) 0.1783(2)
H2 H 0.0932 0.3100 0.1953
C4 C -0.0140(5) 0.3579(5) 0.1910(2)
C5 C -0.0662(5) 0.3964(6) 0.1656(2)
H3 H -0.1133 0.4144 0.1740
C6 C -0.0511(4) 0.4095(5) 0.1279(2)
H4 H -0.0889 0.4344 0.1112
C7 C 0.0354(4) 0.4066(4) 0.07343(17)
H5 H -0.0110 0.4306 0.0603
H6 H 0.0762 0.4480 0.0741
C8 C 0.0600(4) 0.3347(4) 0.05047(18)
C9 C -0.0319(5) 0.3466(6) 0.2324(2)
H7 H 0.0143 0.3245 0.2465
H8 H -0.0413 0.4006 0.2430
C10 C -0.0992(4) 0.2924(5) 0.24016(19)
C11 C -0.9991(4) 0.0703(4) -0.09051(19)
C12 C -1.0363(5) 0.1226(6) -0.1165(2)
H9 H -1.0812 0.1497 -0.1102
C13 C -1.0092(6) 0.1359(7) -0.1516(2)
H10 H -1.0359 0.1722 -0.1685
C14 C -0.9449(5) 0.0984(5) -0.1624(2)
C15 C -0.9048(4) 0.0492(4) -0.1359(2)
H11 H -0.8590 0.0241 -0.1423
C16 C -0.9301(4) 0.0357(4) -0.1001(2)
H12 H -0.9007 0.0033 -0.0824
C17 C -1.0306(5) 0.0532(4) -0.05235(19)
H13 H -1.0044 0.0052 -0.0409
H14 H -1.0857 0.0403 -0.0565
C18 C -1.0202(4) 0.1248(4) -0.02473(18)
C19 C -0.9182(5) 0.1111(6) -0.2025(2)
H15 H -0.9591 0.1391 -0.2182
H16 H -0.9100 0.0576 -0.2140
C20 C -0.8434(4) 0.1612(6) -0.20237(19)
C21 C -0.7590(5) 0.4761(4) -0.0130(2)
C22 C -0.7653(5) 0.4386(5) -0.0479(3)
H17 H -0.8139 0.4232 -0.0591
C23 C -0.6983(6) 0.4231(5) -0.0667(3)
H18 H -0.7029 0.3982 -0.0908
C24 C -0.6259(5) 0.4438(5) -0.0504(3)
C25 C -0.6217(5) 0.4808(6) -0.0157(3)
H19 H -0.5732 0.4969 -0.0044
C26 C -0.6870(5) 0.4954(6) 0.0036(2)
H20 H -0.6820 0.5186 0.0280
C27 C -0.8313(4) 0.4983(4) 0.0068(2)
H21 H -0.8738 0.4623 -0.0025
H22 H -0.8214 0.4893 0.0342
C28 C -0.8550(4) 0.5870(4) -0.00041(19)
C29 C -0.5535(5) 0.4336(5) -0.0717(3)
H23 H -0.5085 0.4336 -0.0531
H24 H -0.5557 0.3800 -0.0841
C30 C -0.5408(5) 0.4980(5) -0.1017(2)
C31 C -0.3316(5) 0.7617(5) -0.2474(2)
C32 C -0.3464(6) 0.7325(8) -0.2828(3)
H25 H -0.3965 0.7136 -0.2901
C33 C -0.2915(7) 0.7290(8) -0.3088(3)
H26 H -0.3056 0.7073 -0.3331
C34 C -0.2195(6) 0.7552(5) -0.3012(2)
C35 C -0.2020(6) 0.7827(6) -0.2652(3)
H27 H -0.1513 0.7996 -0.2579
C36 C -0.2572(7) 0.7861(6) -0.2391(3)
H28 H -0.2428 0.8061 -0.2145
C37 C -0.3916(5) 0.7629(4) -0.2189(2)
H29 H -0.4424 0.7681 -0.2328
H30 H -0.3833 0.8121 -0.2032
C38 C -0.3938(6) 0.6897(5) -0.1923(2)
C39 C -0.1577(6) 0.7467(5) -0.3293(3)
H31 H -0.1168 0.7867 -0.3227
H32 H -0.1807 0.7604 -0.3548
C40 C -0.1209(5) 0.6620(5) -0.3308(2)
C41 C 0.3007(5) 0.0008(5) 0.00475(19)
C42 C 0.2567(4) -0.0309(5) -0.0261(2)
H33 H 0.2026 -0.0273 -0.0271
C43 C 0.2919(5) -0.0683(5) -0.0558(2)
H34 H 0.2610 -0.0901 -0.0764
C44 C 0.3712(5) -0.0738(5) -0.0556(2)
C45 C 0.4118(6) -0.0411(8) -0.0260(3)
H35 H 0.4659 -0.0423 -0.0257
C46 C 0.3788(5) -0.0052(7) 0.0044(3)
H36 H 0.4107 0.0151 0.0251
C47 C 0.2624(5) 0.0369(5) 0.0387(2)
H37 H 0.2331 -0.0068 0.0499
H38 H 0.3035 0.0532 0.0579
C48 C 0.2092(4) 0.1087(4) 0.03151(18)
C49 C 0.4117(6) -0.1157(5) -0.0874(2)
H39 H 0.3785 -0.1594 -0.0985
H40 H 0.4598 -0.1407 -0.0766
C50 C 0.4303(7) -0.0559(5) -0.1191(2)
C51 C 0.0019(4) 0.3619(4) -0.12387(16)
C52 C -0.0713(4) 0.3838(3) -0.11397(17)
H41 H -0.0858 0.3747 -0.0892
C53 C -0.1222(4) 0.4194(4) -0.14135(17)
C54 C -0.1036(3) 0.4322(4) -0.17833(16)
H42 H -0.1398 0.4544 -0.1967
C55 C -0.0295(4) 0.4112(4) -0.18768(16)
C56 C 0.0241(4) 0.3750(4) -0.16043(17)
H43 H 0.0736 0.3602 -0.1669
C57 C 0.0494(3) 0.3188(4) -0.05780(16)
H44 H 0.0104 0.3440 -0.0450
C58 C 0.1203(4) 0.2796(4) -0.10383(17)
H45 H 0.1400 0.2725 -0.1276
C59 C 0.1504(4) 0.2485(4) -0.06987(18)
H46 H 0.1944 0.2150 -0.0665
C60 C -0.2472(4) 0.4973(4) -0.14708(17)
H47 H -0.2341 0.5328 -0.1665
C61 C -0.2405(4) 0.3991(4) -0.10434(18)
H48 H -0.2233 0.3553 -0.0886
C62 C -0.3101(4) 0.4357(4) -0.10573(18)
H49 H -0.3500 0.4208 -0.0907
C63 C -0.0488(4) 0.4623(4) -0.25467(17)
H50 H -0.0962 0.4886 -0.2520
C64 C 0.0584(4) 0.3906(5) -0.24097(19)
H51 H 0.0977 0.3592 -0.2282
C65 C 0.0541(4) 0.4155(5) -0.27788(19)
H52 H 0.0913 0.4043 -0.2951
C66 C -0.4352(3) 0.2351(4) -0.02606(17)
C67 C -0.4678(4) 0.2608(4) 0.00691(17)
H53 H -0.4358 0.2761 0.0285
C68 C -0.5479(4) 0.2638(4) 0.00780(16)
C69 C -0.5960(4) 0.2432(4) -0.02436(16)
H54 H -0.6500 0.2452 -0.0238
C70 C -0.5623(3) 0.2193(4) -0.05761(16)
C71 C -0.4833(3) 0.2148(4) -0.05907(17)
H55 H -0.4619 0.1986 -0.0815
C72 C -0.2956(4) 0.2535(4) -0.00165(18)
H56 H -0.3043 0.2811 0.0209
C73 C -0.3156(4) 0.1913(5) -0.05674(19)
H57 H -0.3389 0.1679 -0.0791
C74 C -0.2403(4) 0.1959(4) -0.04664(18)
H58 H -0.2017 0.1753 -0.0612
C75 C -0.5507(4) 0.3336(4) 0.07154(17)
H59 H -0.4978 0.3458 0.0750
C76 C -0.6626(4) 0.2869(4) 0.04718(18)
H60 H -0.7014 0.2614 0.0313
C77 C -0.6715(4) 0.3267(4) 0.08010(18)
H61 H -0.7188 0.3335 0.0909
C78 C -0.6183(4) 0.2387(5) -0.12548(18)
H62 H -0.5827 0.2777 -0.1328
C79 C -0.6764(4) 0.1497(4) -0.09089(19)
H63 H -0.6899 0.1162 -0.0708
C80 C -0.7150(4) 0.1563(4) -0.12567(18)
H64 H -0.7596 0.1267 -0.1338
C81 C -0.4431(4) 0.4243(4) -0.29282(16)
C82 C -0.3686(4) 0.4327(4) -0.30211(17)
H65 H -0.3305 0.4541 -0.2845
C83 C -0.3504(4) 0.4088(4) -0.33849(17)
C84 C -0.4071(4) 0.3776(4) -0.36509(17)
H66 H -0.3947 0.3628 -0.3896
C85 C -0.4821(4) 0.3689(4) -0.35445(16)
C86 C -0.5009(4) 0.3922(3) -0.31837(16)
H67 H -0.5516 0.3863 -0.3113
C87 C -0.4213(4) 0.4949(4) -0.22928(17)
H68 H -0.3764 0.5229 -0.2348
C88 C -0.5236(4) 0.4159(5) -0.2361(2)
H69 H -0.5628 0.3805 -0.2459
C89 C -0.5157(5) 0.4499(5) -0.2006(2)
H70 H -0.5493 0.4404 -0.1814
C90 C -0.2201(4) 0.4745(4) -0.33706(18)
H71 H -0.2321 0.5205 -0.3228
C91 C -0.2324(4) 0.3576(5) -0.36876(19)
H72 H -0.2530 0.3100 -0.3804
C92 C -0.1584(4) 0.3846(5) -0.36842(19)
H73 H -0.1183 0.3574 -0.3796
C93 C -0.5369(4) 0.3288(4) -0.41962(17)
H74 H -0.4948 0.3459 -0.4328
C94 C -0.6100(4) 0.3040(4) -0.37332(18)
H75 H -0.6293 0.2999 -0.3493
C95 C -0.6459(4) 0.2782(4) -0.40703(18)
H76 H -0.6948 0.2534 -0.4100
O1 O 0.1297(3) 0.3096(3) 0.05482(12)
O2 O 0.0137(3) 0.3005(3) 0.02632(12)
O3 O -0.1188(3) 0.2938(3) 0.27421(12)
O4 O -0.1289(3) 0.2464(3) 0.21466(14)
O5 O -0.9591(3) 0.1251(3) -0.00290(13)
O6 O -1.0720(3) 0.1792(3) -0.02545(12)
O7 O -0.7821(3) 0.1293(3) -0.21326(13)
O8 O -0.8420(3) 0.2350(3) -0.19132(13)
O9 O -0.8425(2) 0.6216(3) -0.03190(12)
O10 O -0.8869(3) 0.6271(3) 0.02483(12)
O11 O -0.4778(3) 0.4930(3) -0.11618(13)
O12 O -0.5890(3) 0.5536(4) -0.10876(17)
O13 O -0.3361(3) 0.6438(3) -0.18704(14)
O14 O -0.4552(3) 0.6768(3) -0.17589(15)
O15 O -0.0922(3) 0.6395(3) -0.36141(15)
O16 O -0.1189(3) 0.6159(3) -0.30212(13)
O17 O 0.2156(2) 0.1558(3) 0.00283(12)
O18 O 0.1601(3) 0.1240(3) 0.05478(12)
O19 O 0.4985(4) -0.0392(3) -0.12273(14)
O20 O 0.3731(4) -0.0280(4) -0.13992(18)
O21 O 0.0572(3) 0.5938(3) -0.32673(14)
O22 O -0.7695(3) 0.2776(4) -0.26195(14)
O23 O -0.7023(4) 0.3690(3) -0.19908(19)
Co1_2 Co -0.88631(5) 0.21872(5) 0.01183(2)
Co2_2 Co -1.10983(5) 0.26384(5) 0.01108(2)
Co2B Co -0.89017(5) 0.73616(5) -0.01108(2)
Co2C Co -0.60983(5) 0.23616(5) -0.48892(2)
Co3B Co -0.58512(5) 0.43089(5) 0.14667(2)
Co4A Co 0.54800(5) 0.02725(6) -0.16375(2)
Co5C Co -0.22033(5) 0.25574(6) 0.29493(2)
N9B N -0.3980(3) 0.6440(3) -0.09553(14)
N17C N -0.0994(3) 0.2059(3) 0.06392(14)
O3C O -0.6188(3) 0.2062(3) -0.22579(12)
O5_2 O 0.0409(3) 0.1251(3) -0.00290(13)
O6_2 O -0.0720(3) 0.1792(3) -0.02545(12)
O9B O -0.1575(2) 0.3784(3) 0.03190(12)
O10B O -0.1131(3) 0.3729(3) -0.02483(12)
O19A O 0.0015(4) 0.4608(3) -0.37727(14)
O24 O -0.2237(3) 0.5699(3) -0.24224(15)
O25 O -0.7044(4) 0.6405(3) -0.07769(16)
O26 O -0.6115(7) 0.6842(7) -0.1968(3)
O27 O 0.2474(7) -0.1002(8) -0.1668(3)
O28 O -0.7255(7) 0.4603(8) -0.2647(3)
O29 O -0.7278(9) 0.5036(10) -0.1598(4)
O30 O -0.7220(11) 0.7118(11) -0.1506(5)
loop_
_geom_bond_atom_site_label_1
_geom_bond_atom_site_label_2
_geom_bond_site_symmetry_1
_geom_bond_site_symmetry_2
Co1 N1 1_555 1_555
Co2 N7 1_555 1_555
Co3 N3 1_555 1_555
Co4 N5 1_555 1_555
Co5 N11 1_555 1_555
N1 C57 1_555 1_555
N2 C51 1_555 1_555
N3 C60 1_555 1_555
N4 C53 1_555 1_555
N5 C63 1_555 1_555
N6 C55 1_555 1_555
N7 C72 1_555 1_555
N8 C66 1_555 1_555
N9 C75 1_555 1_555
N10 C68 1_555 1_555
N11 C78 1_555 1_555
N12 C70 1_555 1_555
N13 Co3 1_555 1_555
N14 C81 1_555 1_555
N15 Co4 1_555 1_555
N16 C83 1_555 1_555
N17 C93 1_555 1_555
N18 C85 1_555 1_555
C1 C2 1_555 1_555
C2 H1 1_555 1_555
C3 C2 1_555 1_555
H2 C3 1_555 1_555
C4 C3 1_555 1_555
C5 C4 1_555 1_555
H3 C5 1_555 1_555
C6 C1 1_555 1_555
H4 C6 1_555 1_555
C7 C1 1_555 1_555
H5 C7 1_555 1_555
H6 C7 1_555 1_555
C8 C7 1_555 1_555
C9 C4 1_555 1_555
H7 C9 1_555 1_555
H8 C9 1_555 1_555
C10 C9 1_555 1_555
C11 C12 1_555 1_555
C12 H9 1_555 1_555
C13 C12 1_555 1_555
H10 C13 1_555 1_555
C14 C13 1_555 1_555
C15 C14 1_555 1_555
H11 C15 1_555 1_555
C16 C11 1_555 1_555
H12 C16 1_555 1_555
C17 C11 1_555 1_555
H13 C17 1_555 1_555
H14 C17 1_555 1_555
C18 C17 1_555 1_555
C19 C14 1_555 1_555
H15 C19 1_555 1_555
H16 C19 1_555 1_555
C20 C19 1_555 1_555
C21 C22 1_555 1_555
C22 H17 1_555 1_555
C23 C22 1_555 1_555
H18 C23 1_555 1_555
C24 C23 1_555 1_555
C25 C24 1_555 1_555
H19 C25 1_555 1_555
C26 C21 1_555 1_555
H20 C26 1_555 1_555
C27 C21 1_555 1_555
H21 C27 1_555 1_555
H22 C27 1_555 1_555
C28 C27 1_555 1_555
C29 C24 1_555 1_555
H23 C29 1_555 1_555
H24 C29 1_555 1_555
C30 C29 1_555 1_555
C31 C32 1_555 1_555
C32 H25 1_555 1_555
C33 C32 1_555 1_555
H26 C33 1_555 1_555
C34 C33 1_555 1_555
C35 C34 1_555 1_555
H27 C35 1_555 1_555
C36 C31 1_555 1_555
H28 C36 1_555 1_555
C37 C31 1_555 1_555
H29 C37 1_555 1_555
H30 C37 1_555 1_555
C38 C37 1_555 1_555
C39 C34 1_555 1_555
H31 C39 1_555 1_555
H32 C39 1_555 1_555
C40 C39 1_555 1_555
C41 C42 1_555 1_555
C42 H33 1_555 1_555
C43 C42 1_555 1_555
H34 C43 1_555 1_555
C44 C43 1_555 1_555
C45 C44 1_555 1_555
H35 C45 1_555 1_555
C46 C41 1_555 1_555
H36 C46 1_555 1_555
C47 C41 1_555 1_555
H37 C47 1_555 1_555
H38 C47 1_555 1_555
C48 C47 1_555 1_555
C49 C44 1_555 1_555
H39 C49 1_555 1_555
H40 C49 1_555 1_555
C50 C49 1_555 1_555
C51 C52 1_555 1_555
C52 H41 1_555 1_555
C53 C52 1_555 1_555
C54 C53 1_555 1_555
H42 C54 1_555 1_555
C55 C54 1_555 1_555
C56 C51 1_555 1_555
H43 C56 1_555 1_555
C57 N2 1_555 1_555
H44 C57 1_555 1_555
C58 N2 1_555 1_555
H45 C58 1_555 1_555
C59 N1 1_555 1_555
H46 C59 1_555 1_555
C60 N4 1_555 1_555
H47 C60 1_555 1_555
C61 N4 1_555 1_555
H48 C61 1_555 1_555
C62 N3 1_555 1_555
H49 C62 1_555 1_555
C63 N6 1_555 1_555
H50 C63 1_555 1_555
C64 N6 1_555 1_555
H51 C64 1_555 1_555
C65 N5 1_555 1_555
H52 C65 1_555 1_555
C66 C67 1_555 1_555
C67 H53 1_555 1_555
C68 C67 1_555 1_555
C69 C68 1_555 1_555
H54 C69 1_555 1_555
C70 C69 1_555 1_555
C71 C66 1_555 1_555
H55 C71 1_555 1_555
C72 N8 1_555 1_555
H56 C72 1_555 1_555
C73 N8 1_555 1_555
H57 C73 1_555 1_555
C74 N7 1_555 1_555
H58 C74 1_555 1_555
C75 N10 1_555 1_555
H59 C75 1_555 1_555
C76 N10 1_555 1_555
H60 C76 1_555 1_555
C77 N9 1_555 1_555
H61 C77 1_555 1_555
C78 N12 1_555 1_555
H62 C78 1_555 1_555
C79 N12 1_555 1_555
H63 C79 1_555 1_555
C80 N11 1_555 1_555
H64 C80 1_555 1_555
C81 C82 1_555 1_555
C82 H65 1_555 1_555
C83 C82 1_555 1_555
C84 C83 1_555 1_555
H66 C84 1_555 1_555
C85 C84 1_555 1_555
C86 C81 1_555 1_555
H67 C86 1_555 1_555
C87 N13 1_555 1_555
H68 C87 1_555 1_555
C88 N14 1_555 1_555
H69 C88 1_555 1_555
C89 N13 1_555 1_555
H70 C89 1_555 1_555
C90 N15 1_555 1_555
H71 C90 1_555 1_555
C91 N16 1_555 1_555
H72 C91 1_555 1_555
C92 N15 1_555 1_555
H73 C92 1_555 1_555
C93 N18 1_555 1_555
H74 C93 1_555 1_555
C94 N18 1_555 1_555
H75 C94 1_555 1_555
C95 N17 1_555 1_555
H76 C95 1_555 1_555
O1 Co1 1_555 1_555
O2 Co1 1_555 1_555
O3 C10 1_555 1_555
O4 C10 1_555 1_555
O5 C18 1_555 1_555
O6 C18 1_555 1_555
O7 Co5 1_555 1_555
O8 Co5 1_555 1_555
O9 C28 1_555 1_555
O10 C28 1_555 1_555
O11 Co3 1_555 1_555
O12 C30 1_555 1_555
O13 Co3 1_555 1_555
O14 Co3 1_555 1_555
O15 Co4 1_555 1_555
O16 Co4 1_555 1_555
O17 Co1 1_555 1_555
O18 Co1 1_555 1_555
O19 C50 1_555 1_555
O20 C50 1_555 1_555
O21 Co4 1_555 1_555
O22 Co5 1_555 1_555
O23 Co5 1_555 1_555
Co1_2 O5 1_555 1_555
Co2_2 O6 1_555 1_555
Co2B O9 1_555 1_555
Co2C N17 1_555 1_555
Co3B N9 1_555 1_555
Co4A O19 1_555 1_555
Co5C O3 1_555 1_555
N9B Co3 1_555 1_555
N17C Co2 1_555 1_555
O3C Co5 1_555 1_555
O5_2 Co1 1_555 1_555
O6_2 Co2 1_555 1_555
O9B Co2 1_555 1_555
O10B Co2 1_555 1_555
O19A Co4 1_555 1_555
Co2 O2 1_555 1_555
N14 C87 1_555 1_555
N16 C90 1_555 1_555
C5 C6 1_555 1_555
C8 O1 1_555 1_555
C8 O2 1_555 1_555
C15 C16 1_555 1_555
C20 O7 1_555 1_555
C20 O8 1_555 1_555
C25 C26 1_555 1_555
C30 O11 1_555 1_555
C35 C36 1_555 1_555
C38 O13 1_555 1_555
C38 O14 1_555 1_555
C40 O15 1_555 1_555
C40 O16 1_555 1_555
C45 C46 1_555 1_555
C48 O17 1_555 1_555
C48 O18 1_555 1_555
C55 C56 1_555 1_555
C58 C59 1_555 1_555
C61 C62 1_555 1_555
C64 C65 1_555 1_555
C70 C71 1_555 1_555
C73 C74 1_555 1_555
C76 C77 1_555 1_555
C79 C80 1_555 1_555
C85 C86 1_555 1_555
C88 C89 1_555 1_555
C91 C92 1_555 1_555
C94 C95 1_555 1_555
O10 Co2B 1_555 1_555

#END
