
#######################################################################
#
#                 Cambridge Crystallographic Data Centre
#                                CCDC 
#
#######################################################################
#
# If this CIF has been generated from an entry in the Cambridge 
# Structural Database, then it will include bibliographic, chemical, 
# crystal, experimental, refinement or atomic coordinate data resulting 
# from the CCDC's data processing and validation procedures.
#
#######################################################################

data_KIYMAI
_symmetry_cell_setting           orthorhombic
_symmetry_space_group_name_H-M   'P 21 21 21'
_symmetry_Int_Tables_number      19
_space_group_name_Hall           'P 2ac 2ab'
loop_
_symmetry_equiv_pos_site_id
_symmetry_equiv_pos_as_xyz
1 x,y,z
2 1/2-x,-y,1/2+z
3 -x,1/2+y,1/2-z
4 1/2+x,1/2-y,-z
_cell_length_a                   6.88830(10)
_cell_length_b                   14.7074(2)
_cell_length_c                   14.9810(2)
_cell_angle_alpha                90
_cell_angle_beta                 90
_cell_angle_gamma                90
_cell_volume                     1517.71
loop_
_atom_site_label
_atom_site_type_symbol
_atom_site_fract_x
_atom_site_fract_y
_atom_site_fract_z
Sr1 Sr 0.14462(4) 0.692322(15) 0.453358(15)
C1 C 0.1342(4) 0.92982(18) 0.64506(18)
O1 O 0.2809(3) 0.79965(15) 0.58034(13)
C2 C 0.1209(4) 1.02212(19) 0.62154(19)
O2 O 0.0049(3) 0.84749(14) 0.52122(13)
O3 O 0.1837(4) 1.2003(2) 0.8550(2)
C3 C 0.1381(5) 0.9050(2) 0.7330(2)
H1 H 0.1555 0.8443 0.7484
C4 C 0.1152(4) 1.0902(2) 0.6885(2)
C5 C 0.1420(4) 0.85408(17) 0.57664(17)
C6 C 0.1157(5) 0.9711(2) 0.8008(2)
H2 H 0.1069 0.9530 0.8602
C7 C 0.1070(4) 1.0613(2) 0.7800(2)
O4 O 0.1400(5) 0.5737(3) 0.3400(3)
C8 C 0.0903(5) 1.1271(3) 0.8582(2)
C9 C 0.1196(6) 1.0511(2) 0.5307(2)
H3 H 0.1239 1.0077 0.4856
C10 C 0.1093(9) 1.2071(3) 0.5746(3)
H4 H 0.1057 1.2682 0.5588
C11 C 0.1117(6) 1.1830(2) 0.6626(3)
H5 H 0.1111 1.2280 0.7062
C12 C 0.1121(9) 1.1408(3) 0.5086(3)
H6 H 0.1089 1.1578 0.4488
O5 O -0.0138(5) 1.1018(2) 0.9211(2)
N1 N 0.1169(5) 0.4333(3) 0.2935(4)
C13 C 0.1324(8) 0.5108(5) 0.2870(6)
H7 H 0.1410 0.5299 0.2279
C14 C 0.1152(7) 0.3551(4) 0.2406(5)
H8 H 0.0847 0.3712 0.1801
H9 H 0.0192 0.3135 0.2628
H10 H 0.2407 0.3267 0.2425
C15 C 0.1170(10) 0.4172(9) 0.3940(7)
H11 H 0.1160 0.4747 0.4245
H12 H 0.2313 0.3839 0.4105
H13 H 0.0037 0.3831 0.4104
Sr1A Sr 0.35538(4) 1.307678(15) 0.953358(15)
Sr1B Sr -0.14462(4) 1.192322(15) 1.046642(15)
Sr1C Sr -0.35538(4) 0.807678(15) 0.546642(15)
Sr1C_2 Sr 0.64462(4) 0.807678(15) 0.546642(15)
O1C O -0.2191(3) 0.70035(15) 0.41966(13)
O2C O 0.5049(3) 0.65251(14) 0.47878(13)
O3A O 0.3163(4) 0.7997(2) 0.3550(2)
O5B O 0.0138(5) 0.6018(2) 0.5789(2)
loop_
_geom_bond_atom_site_label_1
_geom_bond_atom_site_label_2
_geom_bond_site_symmetry_1
_geom_bond_site_symmetry_2
Sr1 O1 1_555 1_555
C1 C2 1_555 1_555
O1 C5 1_555 1_555
C2 C4 1_555 1_555
O2 Sr1 1_555 1_555
O3 C8 1_555 1_555
C3 C1 1_555 1_555
H1 C3 1_555 1_555
C4 C7 1_555 1_555
C5 C1 1_555 1_555
C6 C3 1_555 1_555
H2 C6 1_555 1_555
C7 C6 1_555 1_555
O4 Sr1 1_555 1_555
C8 C7 1_555 1_555
C9 C2 1_555 1_555
H3 C9 1_555 1_555
C10 H4 1_555 1_555
C11 C4 1_555 1_555
H5 C11 1_555 1_555
C12 C9 1_555 1_555
H6 C12 1_555 1_555
O5 C8 1_555 1_555
N1 C13 1_555 1_555
C13 O4 1_555 1_555
H7 C13 1_555 1_555
C14 N1 1_555 1_555
H8 C14 1_555 1_555
H9 C14 1_555 1_555
H10 C14 1_555 1_555
C15 N1 1_555 1_555
H11 C15 1_555 1_555
H12 C15 1_555 1_555
H13 C15 1_555 1_555
Sr1A O3 1_555 1_555
Sr1B O5 1_555 1_555
Sr1C O2 1_555 1_555
Sr1C_2 O1 1_555 1_555
O1C Sr1 1_555 1_555
O2C Sr1 1_555 1_555
O3A Sr1 1_555 1_555
O5B Sr1 1_555 1_555
O2 C5 1_555 1_555
C10 C11 1_555 1_555
C10 C12 1_555 1_555
Sr1C O1C 1_555 1_555
Sr1C_2 O2C 1_555 1_555

#END
