
#######################################################################
#
#                 Cambridge Crystallographic Data Centre
#                                CCDC 
#
#######################################################################
#
# If this CIF has been generated from an entry in the Cambridge 
# Structural Database, then it will include bibliographic, chemical, 
# crystal, experimental, refinement or atomic coordinate data resulting 
# from the CCDC's data processing and validation procedures.
#
#######################################################################

data_KIYMIP
_symmetry_cell_setting           orthorhombic
_symmetry_space_group_name_H-M   'P 21 21 2'
_symmetry_Int_Tables_number      18
_space_group_name_Hall           'P 2 2ab'
loop_
_symmetry_equiv_pos_site_id
_symmetry_equiv_pos_as_xyz
1 x,y,z
2 -x,-y,z
3 1/2-x,1/2+y,-z
4 1/2+x,1/2-y,-z
_cell_length_a                   24.094(5)
_cell_length_b                   8.1984(16)
_cell_length_c                   11.307(2)
_cell_angle_alpha                90
_cell_angle_beta                 90
_cell_angle_gamma                90
_cell_volume                     2233.5
loop_
_atom_site_label
_atom_site_type_symbol
_atom_site_fract_x
_atom_site_fract_y
_atom_site_fract_z
Ni1 Ni 0.185003(17) 0.09066(5) 0.52940(4)
C1 C 0.09700(13) 0.3813(5) 0.4128(3)
C2 C 0.14616(15) 0.4600(5) 0.3828(3)
C3 C 0.14822(15) 0.5488(6) 0.2783(4)
H1 H 0.1812 0.5997 0.2571
C4 C 0.10271(16) 0.5638(6) 0.2051(3)
H2 H 0.1051 0.6236 0.1354
C5 C 0.05276(14) 0.4878(5) 0.2368(3)
C6 C 0.05068(13) 0.3958(5) 0.3396(3)
H3 H 0.0179 0.3430 0.3600
C7 C 0.08900(13) 0.2897(5) 0.5288(4)
C8 C 0.19746(12) 0.4521(4) 0.4594(3)
C9 C 0.0000 0.5000 0.1586(5)
C10 C -0.00010(19) 0.3442(9) 0.0807(4)
C11 C 0.20958(18) 0.2097(6) 0.7789(4)
H4 H 0.2300 0.2877 0.7378
C12 C 0.21097(19) 0.2130(6) 0.8999(3)
H5 H 0.2316 0.2922 0.9390
C13 C 0.18129(15) 0.0973(5) 0.9644(3)
C14 C 0.1501(2) -0.0132(7) 0.9001(4)
H6 H 0.1286 -0.0907 0.9389
C15 C 0.1511(2) -0.0082(6) 0.7782(4)
H7 H 0.1302 -0.0846 0.7368
C16 C 0.18309(16) 0.0926(5) 1.0959(3)
C17 C 0.22989(17) 0.1415(6) 1.1586(4)
H8 H 0.2610 0.1791 1.1182
C18 C 0.23035(15) 0.1346(5) 1.2808(3)
H9 H 0.2621 0.1682 1.3206
C19 C 0.14220(16) 0.0304(6) 1.2841(3)
H10 H 0.1121 -0.0095 1.3266
C20 C 0.13896(16) 0.0348(6) 1.1630(3)
H11 H 0.1069 -0.0013 1.1254
F1 F 0.04964(11) 0.3245(5) 0.0281(3)
F2 F -0.01029(13) 0.2115(5) 0.1431(3)
F3 F -0.03729(11) 0.3504(6) -0.0070(2)
N1 N 0.18062(12) 0.1008(4) 0.7164(2)
N2 N 0.18729(12) 0.0817(4) 1.3438(2)
O1 O 0.06928(15) 0.3669(4) 0.6119(3)
O2 O 0.10078(9) 0.1379(3) 0.5291(3)
O3 O 0.20516(9) 0.3354(3) 0.5285(2)
O4 O 0.23062(9) 0.5703(3) 0.4482(2)
O5 O 0.17109(10) -0.1555(3) 0.5332(3)
H12 H 0.1422 -0.2074 0.5413
H13 H 0.1951 -0.2151 0.5023
Ni1_2 Ni 0.185003(17) 0.09066(5) -0.47060(4)
Ni1_3 Ni 0.185003(17) 0.09066(5) 1.52940(4)
Ni1B Ni 0.314997(17) 0.59066(5) 0.47060(4)
Ni1A Ni -0.185003(17) 0.90934(5) 0.52940(4)
Ni1C Ni -0.314997(17) 0.40934(5) 0.47060(4)
C1A C -0.09700(13) 0.6187(5) 0.4128(3)
C2A C -0.14616(15) 0.5400(5) 0.3828(3)
C3A C -0.14822(15) 0.4512(6) 0.2783(4)
H1A H -0.1812 0.4003 0.2571
C4A C -0.10271(16) 0.4362(6) 0.2051(3)
H2A H -0.1051 0.3764 0.1354
C5A C -0.05276(14) 0.5122(5) 0.2368(3)
C6A C -0.05068(13) 0.6042(5) 0.3396(3)
H3A H -0.0179 0.6570 0.3600
C7A C -0.08900(13) 0.7103(5) 0.5288(4)
C8A C -0.19746(12) 0.5479(4) 0.4594(3)
C10A C 0.00010(19) 0.6558(9) 0.0807(4)
C11_2 C 0.20958(18) 0.2097(6) -0.2211(4)
H4_2 H 0.2300 0.2877 -0.2622
C12_2 C 0.21097(19) 0.2130(6) -0.1001(3)
H5_2 H 0.2316 0.2922 -0.0610
C13_2 C 0.18129(15) 0.0973(5) -0.0356(3)
C14_2 C 0.1501(2) -0.0132(7) -0.0999(4)
H6_2 H 0.1286 -0.0907 -0.0611
C15_2 C 0.1511(2) -0.0082(6) -0.2218(4)
H7_2 H 0.1302 -0.0846 -0.2632
C16_2 C 0.18309(16) 0.0926(5) 0.0959(3)
C17_2 C 0.22989(17) 0.1415(6) 0.1586(4)
H8_2 H 0.2610 0.1791 0.1182
C18_2 C 0.23035(15) 0.1346(5) 0.2808(3)
H9_2 H 0.2621 0.1682 0.3206
C19_2 C 0.14220(16) 0.0304(6) 0.2841(3)
H10_2 H 0.1121 -0.0095 0.3266
C20_2 C 0.13896(16) 0.0348(6) 0.1630(3)
H11_2 H 0.1069 -0.0013 0.1254
F1A F -0.04964(11) 0.6755(5) 0.0281(3)
F2A F 0.01029(13) 0.7885(5) 0.1431(3)
F3A F 0.03729(11) 0.6496(6) -0.0070(2)
N1_2 N 0.18062(12) 0.1008(4) -0.2836(2)
N1_3 N 0.18062(12) 0.1008(4) 1.7164(2)
N2_2 N 0.18729(12) 0.0817(4) 0.3438(2)
O1A O -0.06928(15) 0.6331(4) 0.6119(3)
O2A O -0.10078(9) 0.8621(3) 0.5291(3)
O2_2 O 0.10078(9) 0.1379(3) 1.5291(3)
O3A O -0.20516(9) 0.6646(3) 0.5285(2)
O3_2 O 0.20516(9) 0.3354(3) 1.5285(2)
O4A O -0.23062(9) 0.4297(3) 0.4482(2)
O4B O 0.26938(9) 0.0703(3) 0.5518(2)
O4B_2 O 0.26938(9) 0.0703(3) 1.5518(2)
O5_2 O 0.17109(10) -0.1555(3) 1.5332(3)
H12_2 H 0.1422 -0.2074 1.5413
H13_2 H 0.1951 -0.2151 1.5023
O6 O 0.0723(2) 0.7095(7) 0.5769(8)
O7 O 0.8719(5) 0.4239(16) 0.8185(12)
O8 O 0.9994(4) 0.1709(9) 0.7579(6)
O9? O 0.0126(11) 0.9234(18) 0.4699(13)
loop_
_geom_bond_atom_site_label_1
_geom_bond_atom_site_label_2
_geom_bond_site_symmetry_1
_geom_bond_site_symmetry_2
Ni1 N1 1_555 1_555
C1 C2 1_555 1_555
C2 C3 1_555 1_555
C3 H1 1_555 1_555
C4 C3 1_555 1_555
H2 C4 1_555 1_555
C5 C4 1_555 1_555
C6 C1 1_555 1_555
H3 C6 1_555 1_555
C7 C1 1_555 1_555
C8 C2 1_555 1_555
C9 C5 1_555 1_555
C10 C9 1_555 1_555
C11 H4 1_555 1_555
C12 C11 1_555 1_555
H5 C12 1_555 1_555
C13 C12 1_555 1_555
C14 C13 1_555 1_555
H6 C14 1_555 1_555
C15 C14 1_555 1_555
H7 C15 1_555 1_555
C16 C13 1_555 1_555
C17 C16 1_555 1_555
H8 C17 1_555 1_555
C18 C17 1_555 1_555
H9 C18 1_555 1_555
C19 H10 1_555 1_555
C20 C16 1_555 1_555
H11 C20 1_555 1_555
F1 C10 1_555 1_555
F2 C10 1_555 1_555
F3 C10 1_555 1_555
N1 C11 1_555 1_555
N2 C18 1_555 1_555
O1 C7 1_555 1_555
O2 Ni1 1_555 1_555
O3 Ni1 1_555 1_555
O4 C8 1_555 1_555
O5 Ni1 1_555 1_555
H12 O5 1_555 1_555
H13 O5 1_555 1_555
Ni1_2 N1_2 1_555 1_555
Ni1_3 N2 1_555 1_555
Ni1B O4 1_555 1_555
Ni1A O2A 1_555 1_555
Ni1C O4A 1_555 1_555
C1A C2A 1_555 1_555
C2A C3A 1_555 1_555
C3A H1A 1_555 1_555
C4A C3A 1_555 1_555
H2A C4A 1_555 1_555
C5A C9 1_555 1_555
C6A C1A 1_555 1_555
H3A C6A 1_555 1_555
C7A C1A 1_555 1_555
C8A C2A 1_555 1_555
C10A C9 1_555 1_555
C11_2 H4_2 1_555 1_555
C12_2 C11_2 1_555 1_555
H5_2 C12_2 1_555 1_555
C13_2 C12_2 1_555 1_555
C14_2 C13_2 1_555 1_555
H6_2 C14_2 1_555 1_555
C15_2 C14_2 1_555 1_555
H7_2 C15_2 1_555 1_555
C16_2 C13_2 1_555 1_555
C17_2 C16_2 1_555 1_555
H8_2 C17_2 1_555 1_555
C18_2 C17_2 1_555 1_555
H9_2 C18_2 1_555 1_555
C19_2 H10_2 1_555 1_555
C20_2 C16_2 1_555 1_555
H11_2 C20_2 1_555 1_555
F1A C10A 1_555 1_555
F2A C10A 1_555 1_555
F3A C10A 1_555 1_555
N1_2 C11_2 1_555 1_555
N1_3 Ni1_3 1_555 1_555
N2_2 Ni1 1_555 1_555
O1A C7A 1_555 1_555
O2A C7A 1_555 1_555
O2_2 Ni1_3 1_555 1_555
O3A Ni1A 1_555 1_555
O3_2 Ni1_3 1_555 1_555
O4A C8A 1_555 1_555
O4B Ni1 1_555 1_555
O4B_2 Ni1_3 1_555 1_555
O5_2 Ni1_3 1_555 1_555
H12_2 O5_2 1_555 1_555
H13_2 O5_2 1_555 1_555
C5 C6 1_555 1_555
C7 O2 1_555 1_555
C8 O3 1_555 1_555
C15 N1 1_555 1_555
C19 C20 1_555 1_555
C19 N2 1_555 1_555
C4A C5A 1_555 1_555
C5A C6A 1_555 1_555
C8A O3A 1_555 1_555
C15_2 N1_2 1_555 1_555
C18_2 N2_2 1_555 1_555
C19_2 C20_2 1_555 1_555
C19_2 N2_2 1_555 1_555

#END
