
#######################################################################
#
#                 Cambridge Crystallographic Data Centre
#                                CCDC 
#
#######################################################################
#
# If this CIF has been generated from an entry in the Cambridge 
# Structural Database, then it will include bibliographic, chemical, 
# crystal, experimental, refinement or atomic coordinate data resulting 
# from the CCDC's data processing and validation procedures.
#
#######################################################################

data_KIYMIQ
_symmetry_cell_setting           hexagonal
_symmetry_space_group_name_H-M   'P 65'
_symmetry_Int_Tables_number      170
_space_group_name_Hall           'P 65'
loop_
_symmetry_equiv_pos_site_id
_symmetry_equiv_pos_as_xyz
1 x,y,z
2 -y,x-y,2/3+z
3 -x+y,-x,1/3+z
4 -x,-y,1/2+z
5 y,-x+y,1/6+z
6 x-y,x,5/6+z
_cell_length_a                   18.2186(6)
_cell_length_b                   18.2186(6)
_cell_length_c                   8.6880(3)
_cell_angle_alpha                90
_cell_angle_beta                 90
_cell_angle_gamma                120
_cell_volume                     2497.36
loop_
_atom_site_label
_atom_site_type_symbol
_atom_site_fract_x
_atom_site_fract_y
_atom_site_fract_z
Na1 Na 0.63835(6) 0.36356(6) 0.17632(13)
O1 O 0.78050(12) 0.39047(11) 0.2666(2)
C1 C 0.81851(15) 0.45941(15) 0.1940(3)
C2 C 0.91269(15) 0.51320(15) 0.2252(3)
C3 C 1.03583(15) 0.63697(15) 0.3415(3)
C4 C 0.94699(16) 0.59041(16) 0.3077(3)
O2 O 0.78413(13) 0.48498(13) 0.1022(3)
C5 C 0.96565(17) 0.48575(18) 0.1732(4)
H1 H 0.9436 0.4359 0.1165
C6 C 1.06715(18) 0.71423(18) 0.4249(4)
H2 H 1.1247 0.7462 0.4472
C7 C 0.89489(18) 0.62207(19) 0.3624(5)
H3 H 0.8369 0.5916 0.3436
C8 C 1.0139(2) 0.7418(2) 0.4722(6)
H4 H 1.0356 0.7925 0.5263
C9 C 0.9277(2) 0.6953(3) 0.4410(7)
H5 H 0.8923 0.7151 0.4748
C10 C 1.05213(18) 0.53159(18) 0.2040(3)
H6 H 1.0865 0.5117 0.1653
C11 C 1.08883(15) 0.60468(16) 0.2889(3)
C12 C 1.18162(15) 0.64328(15) 0.3284(3)
O3 O 1.22335(12) 0.61764(12) 0.2525(2)
O4 O 1.21330(12) 0.69580(14) 0.4344(3)
Na2 Na 0.74092(7) 0.25197(9) 0.17839(14)
O5 O 0.76784(19) 0.13880(25) 0.1738(4)
N1 N 0.7121(2) 0.0012(3) 0.2450(4)
C13 C 0.7110(3) 0.0695(4) 0.2056(6)
H7 H 0.6573 0.0636 0.2016
C14 C 0.6396(5) -0.0787(7) 0.2737(9)
H8 H 0.6450 -0.0992 0.3725
H9 H 0.6346 -0.1181 0.1953
H10 H 0.5899 -0.0731 0.2729
C15 C 0.7880(6) 0.0062(8) 0.269(2)
H11 H 0.7809 -0.0379 0.3384
H12 H 0.8269 0.0604 0.3127
H13 H 0.8100 -0.0004 0.1727
Na1B Na 0.72521(8) 0.36165(6) 0.50965(13)
Na1D Na 1.36356(6) 0.72521(8) 0.34299(13)
Na1E Na 1.27479(8) 0.63835(6) 0.00965(13)
O1A O 0.60953(11) 0.39003(16) -0.0667(2)
O2B O 0.70085(18) 0.21587(13) 0.4355(3)
O3D O 0.61764(12) 0.39429(17) 0.4192(2)
O3E O 0.60571(17) 0.22335(12) 0.0858(2)
O4C O 0.78670(12) 0.30420(14) -0.0656(3)
O4E O 0.51750(18) 0.21330(12) 0.2677(3)
Na2A Na 0.74803(9) 0.48895(11) -0.15494(14)
Na2C Na 1.25908(7) 0.74803(9) 0.67839(14)
Na2D Na 1.25197(9) 0.51105(11) 0.34506(14)
loop_
_geom_bond_atom_site_label_1
_geom_bond_atom_site_label_2
_geom_bond_site_symmetry_1
_geom_bond_site_symmetry_2
Na1 O1 1_555 1_555
O1 C1 1_555 1_555
C1 C2 1_555 1_555
C2 C4 1_555 1_555
C3 C4 1_555 1_555
C4 C7 1_555 1_555
O2 Na1 1_555 1_555
C5 C2 1_555 1_555
H1 C5 1_555 1_555
C6 C3 1_555 1_555
H2 C6 1_555 1_555
C7 H3 1_555 1_555
C8 C6 1_555 1_555
H4 C8 1_555 1_555
C9 C7 1_555 1_555
H5 C9 1_555 1_555
C10 C5 1_555 1_555
H6 C10 1_555 1_555
C11 C3 1_555 1_555
C12 C11 1_555 1_555
O3 C12 1_555 1_555
O4 C12 1_555 1_555
Na2 O1 1_555 1_555
O5 Na2 1_555 1_555
N1 C13 1_555 1_555
C13 O5 1_555 1_555
H7 C13 1_555 1_555
C14 N1 1_555 1_555
H8 C14 1_555 1_555
H9 C14 1_555 1_555
H10 C14 1_555 1_555
C15 N1 1_555 1_555
H11 C15 1_555 1_555
H12 C15 1_555 1_555
H13 C15 1_555 1_555
Na1B O1 1_555 1_555
Na1D O3 1_555 1_555
Na1E O3 1_555 1_555
O1A Na1 1_555 1_555
O2B Na2 1_555 1_555
O3D Na1 1_555 1_555
O3E Na1 1_555 1_555
O4C Na2 1_555 1_555
O4E Na1 1_555 1_555
Na2A O2 1_555 1_555
Na2C O4 1_555 1_555
Na2D O3 1_555 1_555
C1 O2 1_555 1_555
C8 C9 1_555 1_555
C10 C11 1_555 1_555
O4 Na1D 1_555 1_555
Na2 O3E 1_555 1_555
Na1B O2B 1_555 1_555
Na1B O3D 1_555 1_555
O1A Na2A 1_555 1_555

#END
