
#######################################################################
#
#                 Cambridge Crystallographic Data Centre
#                                CCDC 
#
#######################################################################
#
# If this CIF has been generated from an entry in the Cambridge 
# Structural Database, then it will include bibliographic, chemical, 
# crystal, experimental, refinement or atomic coordinate data resulting 
# from the CCDC's data processing and validation procedures.
#
#######################################################################

data_KIYXUN
_symmetry_cell_setting           hexagonal
_symmetry_space_group_name_H-M   'P 63/m c m'
_symmetry_Int_Tables_number      193
_space_group_name_Hall           "-P 6c 2'"
loop_
_symmetry_equiv_pos_site_id
_symmetry_equiv_pos_as_xyz
1 x,y,z
2 -y,x-y,z
3 -x+y,-x,z
4 -x,-y,1/2+z
5 y,-x+y,1/2+z
6 x-y,x,1/2+z
7 y,x,1/2-z
8 x-y,-y,1/2-z
9 -x,-x+y,1/2-z
10 -y,-x,-z
11 -x+y,y,-z
12 x,x-y,-z
13 -x,-y,-z
14 y,-x+y,-z
15 x-y,x,-z
16 x,y,1/2-z
17 -y,x-y,1/2-z
18 -x+y,-x,1/2-z
19 -y,-x,1/2+z
20 -x+y,y,1/2+z
21 x,x-y,1/2+z
22 y,x,z
23 x-y,-y,z
24 -x,-x+y,z
_cell_length_a                   22.5053(2)
_cell_length_b                   22.5053(2)
_cell_length_c                   36.4440(5)
_cell_angle_alpha                90
_cell_angle_beta                 90
_cell_angle_gamma                120
_cell_volume                     15985.5
loop_
_atom_site_label
_atom_site_type_symbol
_atom_site_fract_x
_atom_site_fract_y
_atom_site_fract_z
Cu1 Cu 0.0000 0.57961(5) 0.08451(3)
Cu2 Cu 0.24419(6) 0.72968(6) 0.2500
Cu3 Cu 0.04755(14) 0.68325(14) 0.01345(7)
Mn1 Mn 0.5000 1.0000 0.0000
O1 O 0.3548(2) 0.7862(2) 0.18991(10)
O2 O 0.24246(18) 0.72754(19) 0.19696(8)
O3 O 0.09777(15) 0.63035(17) 0.08877(9)
O4 O 0.12709(18) 0.69406(18) 0.03794(9)
O5 O 0.58919(19) 1.0000 0.03094(11)
O6 O 0.0000 0.5486(3) 0.13470(15)
O7 O 0.2344(4) 0.6404(3) 0.2500
O8 O 0.2651(6) 0.8261(4) 0.2500
O9 O 0.1048(11) 0.7804(11) -0.0118(6)
N1 N 0.4552(2) 1.0000 0.04807(13)
N2 N 0.44829(11) 0.8966(2) 0.0000
C1 C 0.3801(3) 0.9652(2) 0.09623(12)
H1 H 0.3462 0.9371 0.1128
C2 C 0.4048(2) 0.9432(2) 0.06644(11)
C3 C 0.3800(2) 0.8753(2) 0.05640(10)
C4 C 0.4018(2) 0.8548(2) 0.02558(10)
C5 C 0.3771(2) 0.7847(2) 0.01569(12)
H2 H 0.3457 0.7462 0.0288
C6 C 0.3251(2) 0.8206(2) 0.07969(10)
C7 C 0.3368(2) 0.8118(2) 0.11598(11)
H3 H 0.3801 0.8392 0.1261
C8 C 0.2848(2) 0.7625(2) 0.13745(12)
C9 C 0.2213(2) 0.7191(2) 0.12191(12)
H4 H 0.1866 0.6854 0.1362
C10 C 0.2091(2) 0.7256(2) 0.08536(11)
C11 C 0.2608(2) 0.7769(2) 0.06458(11)
H5 H 0.2525 0.7823 0.0402
C12 C 0.2956(3) 0.7580(3) 0.17777(12)
C13 C 0.1394(2) 0.6801(2) 0.06877(12)
O1J O 0.4314(3) 0.7862(2) -0.18991(10)
O2J O 0.48508(26) 0.72754(19) -0.19696(8)
O3J O 0.53258(23) 0.63035(17) -0.08877(9)
O4J O 0.56697(25) 0.69406(18) -0.03794(9)
N1J N 0.5448(2) 1.0000 -0.04807(13)
C1J C 0.5851(4) 0.9652(2) -0.09623(12)
H1J H 0.5909 0.9371 -0.1128
C2J C 0.5384(3) 0.9432(2) -0.06644(11)
C3J C 0.4953(3) 0.8753(2) -0.05640(10)
C4J C 0.4530(3) 0.8548(2) -0.02558(10)
C5J C 0.4076(3) 0.7847(2) -0.01569(12)
H2J H 0.4005 0.7462 -0.0288
C6J C 0.4955(3) 0.8206(2) -0.07969(10)
C7J C 0.4750(3) 0.8118(2) -0.11598(11)
H3J H 0.4591 0.8392 -0.1261
C8J C 0.4777(3) 0.7625(2) -0.13745(12)
C9J C 0.4978(3) 0.7191(2) -0.12191(12)
H4J H 0.4988 0.6854 -0.1362
C10J C 0.5165(3) 0.7256(2) -0.08536(11)
C11J C 0.5161(3) 0.7769(2) -0.06458(11)
H5J H 0.5298 0.7823 -0.0402
C12J C 0.4624(4) 0.7580(3) -0.17777(12)
C13J C 0.5407(3) 0.6801(2) -0.06877(12)
O1L O 0.6452(2) 1.2138(2) -0.18991(10)
O2L O 0.75754(18) 1.27246(19) -0.19696(8)
O3L O 0.90223(15) 1.36965(17) -0.08877(9)
O4L O 0.87291(18) 1.30594(18) -0.03794(9)
N2L N 0.55171(11) 1.1034(2) 0.0000
C1L C 0.6199(3) 1.0348(2) -0.09623(12)
H1L H 0.6538 1.0629 -0.1128
C2L C 0.5952(2) 1.0568(2) -0.06644(11)
C3L C 0.6200(2) 1.1247(2) -0.05640(10)
C4L C 0.5982(2) 1.1452(2) -0.02558(10)
C5L C 0.6229(2) 1.2153(2) -0.01569(12)
H2L H 0.6543 1.2538 -0.0288
C6L C 0.6749(2) 1.1794(2) -0.07969(10)
C7L C 0.6632(2) 1.1882(2) -0.11598(11)
H3L H 0.6199 1.1608 -0.1261
C8L C 0.7152(2) 1.2375(2) -0.13745(12)
C9L C 0.7787(2) 1.2809(2) -0.12191(12)
H4L H 0.8134 1.3146 -0.1362
C10L C 0.7909(2) 1.2744(2) -0.08536(11)
C11L C 0.7392(2) 1.2231(2) -0.06458(11)
H5L H 0.7475 1.2177 -0.0402
C12L C 0.7044(3) 1.2420(3) -0.17777(12)
C13L C 0.8606(2) 1.3199(2) -0.06877(12)
O1V O 0.5686(3) 1.2138(2) 0.18991(10)
O2V O 0.51492(26) 1.27246(19) 0.19696(8)
O3V O 0.46742(23) 1.36965(17) 0.08877(9)
O4V O 0.43303(25) 1.30594(18) 0.03794(9)
C1V C 0.4149(4) 1.0348(2) 0.09623(12)
H1V H 0.4091 1.0629 0.1128
C2V C 0.4616(3) 1.0568(2) 0.06644(11)
C3V C 0.5047(3) 1.1247(2) 0.05640(10)
C4V C 0.5470(3) 1.1452(2) 0.02558(10)
C5V C 0.5924(3) 1.2153(2) 0.01569(12)
H2V H 0.5995 1.2538 0.0288
C6V C 0.5045(3) 1.1794(2) 0.07969(10)
C7V C 0.5250(3) 1.1882(2) 0.11598(11)
H3V H 0.5409 1.1608 0.1261
C8V C 0.5223(3) 1.2375(2) 0.13745(12)
C9V C 0.5022(3) 1.2809(2) 0.12191(12)
H4V H 0.5012 1.3146 0.1362
C10V C 0.4835(3) 1.2744(2) 0.08536(11)
C11V C 0.4839(3) 1.2231(2) 0.06458(11)
H5V H 0.4702 1.2177 0.0402
C12V C 0.5376(4) 1.2420(3) 0.17777(12)
C13V C 0.4593(3) 1.3199(2) 0.06877(12)
Cu2J Cu 0.48549(8) 0.72968(6) -0.2500
O7J O 0.4060(5) 0.6404(3) -0.2500
O8J O 0.5610(7) 0.8261(4) -0.2500
Cu3W Cu -0.04755(14) 0.63570(20) 0.01345(7)
O9W O -0.1048(11) 0.6756(16) -0.0118(6)
Cu1B Cu 0.57961(5) 1.0000 0.08451(3)
O6B O 0.5486(3) 1.0000 0.13470(15)
Cu3B Cu 0.63570(20) 0.95245(14) 0.01345(7)
O9B O 0.6756(16) 0.8952(11) -0.0118(6)
Cu3U Cu 0.68325(14) 1.04755(14) 0.01345(7)
O9U O 0.7804(11) 1.1048(11) -0.0118(6)
O5A O 0.0000 0.58919(19) 0.03094(11)
Cu1A Cu 0.42039(5) 1.42039(5) 0.08451(3)
Cu1J Cu 0.57961(5) 0.57961(5) -0.08451(3)
Cu1K Cu 1.0000 1.42039(5) -0.08451(3)
Cu2C Cu 0.75581(6) 1.27032(6) -0.2500
Cu2G Cu 0.51451(8) 1.27032(6) 0.2500
Cu3J Cu 0.63570(20) 0.68325(14) -0.01345(7)
Cu3L Cu 0.95245(14) 1.31675(14) -0.01345(7)
Cu3V Cu 0.36430(20) 1.31675(14) 0.01345(7)
Mn1A Mn 0.0000 0.5000 0.0000
O2O O 0.24246(18) 0.72754(19) 0.30304(8)
O2S O 0.48508(26) 0.72754(19) -0.30304(8)
O3B O 0.53258(23) 0.90223(15) 0.08877(9)
O3U O 0.63035(17) 1.09777(15) 0.08877(9)
O3W O -0.09777(15) 0.53258(23) 0.08877(9)
O4B O 0.56697(25) 0.87291(18) 0.03794(9)
O4U O 0.69406(18) 1.12709(18) 0.03794(9)
O4W O -0.12709(18) 0.56697(25) 0.03794(9)
O5J O 0.41081(19) 1.0000 -0.03094(11)
loop_
_geom_bond_atom_site_label_1
_geom_bond_atom_site_label_2
_geom_bond_site_symmetry_1
_geom_bond_site_symmetry_2
Cu1 O3 1_555 1_555
Cu2 O2 1_555 1_555
Cu3 O4 1_555 1_555
Mn1 O5 1_555 1_555
O1 C12 1_555 1_555
O2 C12 1_555 1_555
O3 C13 1_555 1_555
O4 C13 1_555 1_555
O5 Cu1B 1_555 1_555
O6 Cu1 1_555 1_555
O7 Cu2 1_555 1_555
O8 Cu2 1_555 1_555
O9 Cu3 1_555 1_555
N1 Mn1 1_555 1_555
N2 Mn1 1_555 1_555
C1 H1 1_555 1_555
C2 N1 1_555 1_555
C3 C2 1_555 1_555
C4 N2 1_555 1_555
C5 C4 1_555 1_555
H2 C5 1_555 1_555
C6 C3 1_555 1_555
C7 C6 1_555 1_555
H3 C7 1_555 1_555
C8 C7 1_555 1_555
C9 C8 1_555 1_555
H4 C9 1_555 1_555
C10 C9 1_555 1_555
C11 C6 1_555 1_555
H5 C11 1_555 1_555
C12 C8 1_555 1_555
C13 C10 1_555 1_555
O1J C12J 1_555 1_555
O2J C12J 1_555 1_555
O3J C13J 1_555 1_555
O4J C13J 1_555 1_555
N1J Mn1 1_555 1_555
C1J H1J 1_555 1_555
C2J N1J 1_555 1_555
C3J C2J 1_555 1_555
C4J N2 1_555 1_555
C5J C5 1_555 1_555
H2J C5J 1_555 1_555
C6J C3J 1_555 1_555
C7J C6J 1_555 1_555
H3J C7J 1_555 1_555
C8J C7J 1_555 1_555
C9J C8J 1_555 1_555
H4J C9J 1_555 1_555
C10J C9J 1_555 1_555
C11J C6J 1_555 1_555
H5J C11J 1_555 1_555
C12J C8J 1_555 1_555
C13J C10J 1_555 1_555
O1L C12L 1_555 1_555
O2L C12L 1_555 1_555
O3L C13L 1_555 1_555
O4L C13L 1_555 1_555
N2L Mn1 1_555 1_555
C1L C1J 1_555 1_555
H1L C1L 1_555 1_555
C2L N1J 1_555 1_555
C3L C2L 1_555 1_555
C4L N2L 1_555 1_555
C5L C4L 1_555 1_555
H2L C5L 1_555 1_555
C6L C3L 1_555 1_555
C7L C6L 1_555 1_555
H3L C7L 1_555 1_555
C8L C7L 1_555 1_555
C9L C8L 1_555 1_555
H4L C9L 1_555 1_555
C10L C9L 1_555 1_555
C11L C6L 1_555 1_555
H5L C11L 1_555 1_555
C12L C8L 1_555 1_555
C13L C10L 1_555 1_555
O1V C12V 1_555 1_555
O2V C12V 1_555 1_555
O3V C13V 1_555 1_555
O4V C13V 1_555 1_555
C1V C1 1_555 1_555
H1V C1V 1_555 1_555
C2V N1 1_555 1_555
C3V C2V 1_555 1_555
C4V N2L 1_555 1_555
C5V C5L 1_555 1_555
H2V C5V 1_555 1_555
C6V C3V 1_555 1_555
C7V C6V 1_555 1_555
H3V C7V 1_555 1_555
C8V C7V 1_555 1_555
C9V C8V 1_555 1_555
H4V C9V 1_555 1_555
C10V C9V 1_555 1_555
C11V C6V 1_555 1_555
H5V C11V 1_555 1_555
C12V C8V 1_555 1_555
C13V C10V 1_555 1_555
Cu2J O2J 1_555 1_555
O7J Cu2J 1_555 1_555
O8J Cu2J 1_555 1_555
Cu3W Cu3 1_555 1_555
O9W Cu3W 1_555 1_555
Cu1B O6B 1_555 1_555
Cu3B O5 1_555 1_555
O9B Cu3B 1_555 1_555
Cu3U O5 1_555 1_555
O9U Cu3U 1_555 1_555
O5A Cu1 1_555 1_555
Cu1A O3V 1_555 1_555
Cu1J O3J 1_555 1_555
Cu1K O3L 1_555 1_555
Cu2C O2L 1_555 1_555
Cu2G O2V 1_555 1_555
Cu3J O4J 1_555 1_555
Cu3L O4L 1_555 1_555
Cu3V O4V 1_555 1_555
Mn1A O5A 1_555 1_555
O2O Cu2 1_555 1_555
O2S Cu2J 1_555 1_555
O3B Cu1B 1_555 1_555
O3U Cu1B 1_555 1_555
O3W Cu1 1_555 1_555
O4B Cu3B 1_555 1_555
O4U Cu3U 1_555 1_555
O4W Cu3W 1_555 1_555
O5J Mn1 1_555 1_555
Cu3 O5A 1_555 1_555
C1 C2 1_555 1_555
C3 C4 1_555 1_555
C10 C11 1_555 1_555
C1J C2J 1_555 1_555
C3J C4J 1_555 1_555
C4J C5J 1_555 1_555
C10J C11J 1_555 1_555
C1L C2L 1_555 1_555
C3L C4L 1_555 1_555
C10L C11L 1_555 1_555
C1V C2V 1_555 1_555
C3V C4V 1_555 1_555
C4V C5V 1_555 1_555
C10V C11V 1_555 1_555
Cu3W O5A 1_555 1_555
Cu3B Cu3U 1_555 1_555

#END
