
#######################################################################
#
#                 Cambridge Crystallographic Data Centre
#                                CCDC 
#
#######################################################################
#
# If this CIF has been generated from an entry in the Cambridge 
# Structural Database, then it will include bibliographic, chemical, 
# crystal, experimental, refinement or atomic coordinate data resulting 
# from the CCDC's data processing and validation procedures.
#
#######################################################################

data_KOBFIR
_symmetry_cell_setting           rhombohedral
_symmetry_space_group_name_H-M   'R -3'
_symmetry_Int_Tables_number      148
_space_group_name_Hall           '-R 3'
loop_
_symmetry_equiv_pos_site_id
_symmetry_equiv_pos_as_xyz
1 x,y,z
2 -y,x-y,z
3 -x+y,-x,z
4 2/3+x,1/3+y,1/3+z
5 2/3-y,1/3+x-y,1/3+z
6 2/3-x+y,1/3-x,1/3+z
7 1/3+x,2/3+y,2/3+z
8 1/3-y,2/3+x-y,2/3+z
9 1/3-x+y,2/3-x,2/3+z
10 -x,-y,-z
11 y,-x+y,-z
12 x-y,x,-z
13 1/3-x,2/3-y,2/3-z
14 1/3+y,2/3-x+y,2/3-z
15 1/3+x-y,2/3+x,2/3-z
16 2/3-x,1/3-y,1/3-z
17 2/3+y,1/3-x+y,1/3-z
18 2/3+x-y,1/3+x,1/3-z
_cell_length_a                   12.6751(6)
_cell_length_b                   12.6751(6)
_cell_length_c                   32.243(3)
_cell_angle_alpha                90
_cell_angle_beta                 90
_cell_angle_gamma                120.00
_cell_volume                     4486.1
loop_
_atom_site_label
_atom_site_type_symbol
_atom_site_fract_x
_atom_site_fract_y
_atom_site_fract_z
Cd1 Cd -0.6666 -0.3334 0.1666
Cd2 Cd 0.0000 0.0000 0.0000
C1 C 0.0407(2) 0.2139(2) 0.07478(7)
C2 C 0.1390(2) 0.3912(2) 0.11938(7)
C3 C -0.0653(2) 0.2197(2) 0.13911(7)
N1 N 0.21585(19) 0.48808(18) 0.12814(6)
C4 C -0.1668(2) 0.1056(2) 0.13113(7)
H1 H -0.1682 0.0626 0.1068
C5 C -0.0676(2) 0.2797(2) 0.17540(7)
H2 H -0.0001 0.3575 0.1817
C6 C 0.0400(2) 0.2752(2) 0.11090(7)
N2 N 0.03591(19) 0.15919(18) 0.04544(6)
Cd1_2 Cd 0.3334 0.6666 0.1666
Cd1_3 Cd 0.3334 -0.3334 0.1666
Cd2C Cd -0.3333 0.3333 0.3333
Cd2C_2 Cd -0.3333 -0.6667 0.3333
Cd2C_3 Cd 0.6667 0.3333 0.3333
C1O C -0.3740(2) 0.1194(2) 0.25855(7)
C1A C -0.2139(2) -0.1732(3) 0.07478(7)
C1P C -0.1194(2) -0.4935(3) 0.25855(7)
C1B C 0.1732(3) -0.0407(2) 0.07478(7)
C1Q C 0.4935(3) 0.3740(2) 0.25855(7)
C2O C -0.4723(2) -0.0579(2) 0.21395(7)
C2A C -0.3912(2) -0.2522(3) 0.11938(7)
C2P C 0.0579(2) -0.4145(3) 0.21395(7)
C2B C 0.2522(3) -0.1390(2) 0.11938(7)
C2Q C 0.4145(3) 0.4723(2) 0.21395(7)
C3O C -0.2680(2) 0.1136(2) 0.19422(7)
C3A C -0.2197(2) -0.2850(3) 0.13911(7)
C3P C -0.1136(2) -0.3817(3) 0.19422(7)
C3B C 0.2850(3) 0.0653(2) 0.13911(7)
C3Q C 0.3817(3) 0.2680(2) 0.19422(7)
N1O N -0.54918(19) -0.15475(18) 0.20519(6)
N1A N -0.48808(18) -0.27223(26) 0.12814(6)
N1P N 0.15475(18) -0.39444(26) 0.20519(6)
N1B N 0.27223(26) -0.21585(19) 0.12814(6)
N1Q N 0.39444(26) 0.54918(19) 0.20519(6)
N1_2 N -0.78415(19) -0.51192(18) 0.12814(6)
N1B_2 N -0.72777(26) -0.21585(19) 0.12814(6)
N1P_2 N -0.84525(18) -0.39444(26) 0.20519(6)
N1Q_2 N -0.60556(26) -0.45082(19) 0.20519(6)
C4O C -0.1665(2) 0.2277(2) 0.20220(7)
C4A C -0.1056(2) -0.2724(3) 0.13113(7)
C4P C -0.2277(2) -0.3943(3) 0.20220(7)
C4B C 0.2724(3) 0.1668(2) 0.13113(7)
C4Q C 0.3943(3) 0.1665(2) 0.20220(7)
H1O H -0.1651 0.2707 0.2265
H1A H -0.0626 -0.2308 0.1068
H1P H -0.2707 -0.4359 0.2265
H1B H 0.2308 0.1682 0.1068
H1Q H 0.4359 0.1651 0.2265
C5O C -0.2657(2) 0.0536(2) 0.15793(7)
C5A C -0.2797(2) -0.3473(3) 0.17540(7)
C5P C -0.0536(2) -0.3194(3) 0.15793(7)
C5B C 0.3473(3) 0.0676(2) 0.17540(7)
C5Q C 0.3194(3) 0.2657(2) 0.15793(7)
H2O H -0.3332 -0.0242 0.1516
H2A H -0.3575 -0.3576 0.1817
H2P H 0.0242 -0.3091 0.1516
H2B H 0.3576 0.0001 0.1817
H2Q H 0.3091 0.3332 0.1516
C6O C -0.3733(2) 0.0581(2) 0.22243(7)
C6A C -0.2752(2) -0.2352(3) 0.11090(7)
C6P C -0.0581(2) -0.4315(3) 0.22243(7)
C6B C 0.2352(3) -0.0400(2) 0.11090(7)
C6Q C 0.4315(3) 0.3733(2) 0.22243(7)
N2O N -0.36924(19) 0.17414(18) 0.28789(6)
N2A N -0.15919(18) -0.12328(26) 0.04544(6)
N2P N -0.17414(18) -0.54339(26) 0.28789(6)
N2B N 0.12328(26) -0.03591(19) 0.04544(6)
N2Q N 0.54339(26) 0.36924(19) 0.28789(6)
N2I N -0.03591(19) -0.15919(18) -0.04544(6)
N2J N 0.15919(18) 0.12328(26) -0.04544(6)
N2K N -0.12328(26) 0.03591(19) -0.04544(6)
P1 P 0.6667 0.3333 0.08842(3)
C7 C 0.5455(2) 0.3544(2) 0.06993(8)
C8 C 0.5334(2) 0.4503(2) 0.08535(9)
H3 H 0.5894 0.5039 0.1054
C9 C 0.6667 0.3333 0.14377(14)
H4 H 0.6780 0.4112 0.1539
H5 H 0.7332 0.3220 0.1539
H6 H 0.5888 0.2668 0.1539
C10 C 0.3685(3) 0.2930(3) 0.02772(9)
H7 H 0.3108 0.2384 0.0082
C11 C 0.4619(3) 0.2751(3) 0.04106(9)
H8 H 0.4691 0.2090 0.0306
C12 C 0.3586(3) 0.3893(3) 0.04254(9)
H9 H 0.2951 0.4019 0.0327
C13 C 0.4398(3) 0.4675(3) 0.07142(9)
H10 H 0.4317 0.5333 0.0818
C7A C 0.6456(2) 0.1911(3) 0.06993(8)
C7B C 0.8089(3) 0.4545(2) 0.06993(8)
C8A C 0.5497(2) 0.0831(3) 0.08535(9)
C8B C 0.9169(3) 0.4666(2) 0.08535(9)
H3A H 0.4961 0.0855 0.1054
H3B H 0.9145 0.4106 0.1054
C10A C 0.7070(3) 0.0755(4) 0.02772(9)
C10B C 0.9245(4) 0.6315(3) 0.02772(9)
H7A H 0.7616 0.0724 0.0082
H7B H 0.9276 0.6892 0.0082
C11A C 0.7249(3) 0.1868(4) 0.04106(9)
C11B C 0.8132(4) 0.5381(3) 0.04106(9)
H8A H 0.7910 0.2601 0.0306
H8B H 0.7399 0.5309 0.0306
C12A C 0.6107(3) -0.0307(4) 0.04254(9)
C12B C 1.0307(4) 0.6414(3) 0.04254(9)
H9A H 0.5981 -0.1068 0.0327
H9B H 1.1068 0.7049 0.0327
C13A C 0.5325(3) -0.0277(4) 0.07142(9)
C13B C 1.0277(4) 0.5602(3) 0.07142(9)
H10A H 0.4667 -0.1016 0.0818
H10B H 1.1016 0.5683 0.0818
loop_
_geom_bond_atom_site_label_1
_geom_bond_atom_site_label_2
_geom_bond_site_symmetry_1
_geom_bond_site_symmetry_2
Cd1 N1O 1_555 1_555
Cd2 N2 1_555 1_555
C1 C6 1_555 1_555
C2 N1 1_555 1_555
C3 C4 1_555 1_555
N1 Cd1_2 1_555 1_555
C4 H1 1_555 1_555
C5 C3 1_555 1_555
H2 C5 1_555 1_555
C6 C2 1_555 1_555
N2 C1 1_555 1_555
P1 C7 1_555 1_555
C7 C8 1_555 1_555
C8 H3 1_555 1_555
C9 P1 1_555 1_555
H4 C9 1_555 1_555
H5 C9 1_555 1_555
H6 C9 1_555 1_555
C10 H7 1_555 1_555
C11 C7 1_555 1_555
H8 C11 1_555 1_555
C12 C10 1_555 1_555
H9 C12 1_555 1_555
C13 C8 1_555 1_555
H10 C13 1_555 1_555
Cd1_2 N1Q 1_555 1_555
Cd1_3 N1P 1_555 1_555
Cd2C N2O 1_555 1_555
Cd2C_2 N2P 1_555 1_555
Cd2C_3 N2Q 1_555 1_555
C1O C6O 1_555 1_555
C1A C6A 1_555 1_555
C1P C6P 1_555 1_555
C1B C6B 1_555 1_555
C1Q C6Q 1_555 1_555
C2O N1O 1_555 1_555
C2A N1A 1_555 1_555
C2P N1P 1_555 1_555
C2B N1B 1_555 1_555
C2Q N1Q 1_555 1_555
C3O C4O 1_555 1_555
C3A C4A 1_555 1_555
C3P C4P 1_555 1_555
C3B C4B 1_555 1_555
C3Q C4Q 1_555 1_555
N1A Cd1 1_555 1_555
N1B Cd1_3 1_555 1_555
N1_2 Cd1 1_555 1_555
N1B_2 Cd1 1_555 1_555
N1P_2 Cd1 1_555 1_555
N1Q_2 Cd1 1_555 1_555
C4O C5 1_555 1_555
C4A H1A 1_555 1_555
C4P H1P 1_555 1_555
C4B H1B 1_555 1_555
C4Q H1Q 1_555 1_555
H1O C4O 1_555 1_555
C5O C4 1_555 1_555
C5A C3A 1_555 1_555
C5P C3P 1_555 1_555
C5B C3B 1_555 1_555
C5Q C3Q 1_555 1_555
H2O C5O 1_555 1_555
H2A C5A 1_555 1_555
H2P C5P 1_555 1_555
H2B C5B 1_555 1_555
H2Q C5Q 1_555 1_555
C6O C2O 1_555 1_555
C6A C2A 1_555 1_555
C6P C2P 1_555 1_555
C6B C2B 1_555 1_555
C6Q C2Q 1_555 1_555
N2O C1O 1_555 1_555
N2A Cd2 1_555 1_555
N2P C1P 1_555 1_555
N2B Cd2 1_555 1_555
N2Q C1Q 1_555 1_555
N2I Cd2 1_555 1_555
N2J Cd2 1_555 1_555
N2K Cd2 1_555 1_555
C7A P1 1_555 1_555
C7B P1 1_555 1_555
C8A C7A 1_555 1_555
C8B C7B 1_555 1_555
H3A C8A 1_555 1_555
H3B C8B 1_555 1_555
C10A H7A 1_555 1_555
C10B H7B 1_555 1_555
C11A C7A 1_555 1_555
C11B C7B 1_555 1_555
H8A C11A 1_555 1_555
H8B C11B 1_555 1_555
C12A C10A 1_555 1_555
C12B C10B 1_555 1_555
H9A C12A 1_555 1_555
H9B C12B 1_555 1_555
C13A C8A 1_555 1_555
C13B C8B 1_555 1_555
H10A C13A 1_555 1_555
H10B C13B 1_555 1_555
C3 C6 1_555 1_555
C10 C11 1_555 1_555
C12 C13 1_555 1_555
C1A N2A 1_555 1_555
C1B N2B 1_555 1_555
C3O C5O 1_555 1_555
C3O C6O 1_555 1_555
C3A C6A 1_555 1_555
C3P C6P 1_555 1_555
C3B C6B 1_555 1_555
C3Q C6Q 1_555 1_555
C4A C5P 1_555 1_555
C4P C5A 1_555 1_555
C4B C5Q 1_555 1_555
C4Q C5B 1_555 1_555
C10A C11A 1_555 1_555
C10B C11B 1_555 1_555
C12A C13A 1_555 1_555
C12B C13B 1_555 1_555

#END
