
#######################################################################
#
#                 Cambridge Crystallographic Data Centre
#                                CCDC 
#
#######################################################################
#
# If this CIF has been generated from an entry in the Cambridge 
# Structural Database, then it will include bibliographic, chemical, 
# crystal, experimental, refinement or atomic coordinate data resulting 
# from the CCDC's data processing and validation procedures.
#
#######################################################################

data_KOJTOU
_symmetry_cell_setting           monoclinic
_symmetry_space_group_name_H-M   'P 21/c'
_symmetry_Int_Tables_number      14
_space_group_name_Hall           '-P 2ybc'
loop_
_symmetry_equiv_pos_site_id
_symmetry_equiv_pos_as_xyz
1 x,y,z
2 -x,1/2+y,1/2-z
3 -x,-y,-z
4 x,1/2-y,1/2+z
_cell_length_a                   12.8539(5)
_cell_length_b                   14.4578(8)
_cell_length_c                   30.4530(17)
_cell_angle_alpha                90
_cell_angle_beta                 96.497(5)
_cell_angle_gamma                90
_cell_volume                     5623.01
loop_
_atom_site_label
_atom_site_type_symbol
_atom_site_fract_x
_atom_site_fract_y
_atom_site_fract_z
Ni1 Ni 0.87276(3) 0.78238(3) 0.066406(15)
Ni2 Ni 1.19672(3) 0.90705(3) 0.111829(15)
Ni3 Ni 1.12926(3) 0.70616(3) 0.119069(15)
Ni4 Ni 0.97333(3) 0.80990(3) 0.161134(15)
O1 O 1.14677(17) 0.79637(16) 0.06652(8)
O2 O 1.07542(16) 1.10210(16) -0.10777(8)
O3 O 0.97009(17) 0.71444(16) 0.11129(8)
H1 H 0.9387 0.6563 0.1198
O4 O 1.28879(17) 0.69812(17) 0.13018(8)
O5 O 1.00766(17) 0.71096(16) 0.20889(8)
O6 O 1.11999(17) 0.62570(16) 0.17397(8)
O7 O 1.12734(16) 0.82823(15) 0.15373(8)
H2 H 1.1707 0.8235 0.1822
O8 O 0.93606(17) 1.01960(16) -0.09172(8)
O9 O 1.16740(17) 0.33457(17) -0.02871(8)
O10 O 0.98763(17) 0.80313(16) 0.02689(8)
O11 O 1.81930(16) 0.78606(16) 0.16834(8)
O12 O 1.74457(17) 0.75890(17) 0.09889(8)
O13 O 1.33918(17) 0.84726(17) 0.13071(9)
O14 O 1.23834(18) 1.01501(17) 0.15509(9)
H3 H 1.1952 1.0187 0.1748
H4 H 1.2368 1.0666 0.1408
O15 O 1.26271(19) 0.97990(19) 0.06363(9)
H5 H 1.2200 0.9822 0.0395
H6 H 1.3199 0.9532 0.0579
N1 N 1.0313(2) 0.41444(19) 0.29302(10)
N2 N 1.2619(2) 0.8744(2) -0.05559(10)
O16 O 0.78382(17) 0.86828(17) 0.02117(9)
H7 H 0.8150 0.9206 0.0190
H8 H 0.7233 0.8782 0.0299
C1 C 1.6479(2) 0.7281(2) 0.15889(12)
N3 N 1.1417(2) 0.5865(2) 0.08277(10)
C2 C 1.1961(3) 0.5150(3) 0.10262(13)
H9 H 1.2228 0.5209 0.1322
N4 N 1.5658(2) 0.6381(2) 0.21166(11)
O17 O 1.2167(2) 0.26460(19) 0.03623(10)
C3 C 1.1029(3) 0.9603(2) -0.06810(12)
C4 C 1.1246(3) 0.4982(3) 0.01592(13)
H10 H 1.1010 0.4952 -0.0141
C5 C 1.4611(2) 0.7320(3) 0.15889(12)
C6 C 1.0662(3) 0.9153(2) -0.03339(12)
H11 H 0.9980 0.9259 -0.0273
C7 C 0.9839(3) 0.4958(2) 0.29767(12)
H12 H 0.9423 0.5020 0.3206
C8 C 1.0330(3) 1.0329(2) -0.09148(12)
C9 C 1.0846(3) 0.8139(2) 0.03197(12)
C10 C 1.3533(3) 0.7617(3) 0.13828(12)
C11 C 1.0613(2) 0.6388(2) 0.20368(12)
C12 C 0.9931(2) 0.5698(2) 0.27080(12)
H13 H 0.9597 0.6253 0.2758
C13 C 1.2294(3) 0.8347(2) -0.01917(13)
C14 C 1.7449(2) 0.7601(2) 0.14061(13)
C15 C 1.1291(3) 0.8543(2) -0.00724(12)
C16 C 1.1770(3) 0.4237(3) 0.03682(13)
C17 C 1.0530(2) 0.5615(2) 0.23566(12)
C18 C 1.1077(3) 0.5774(3) 0.04003(13)
H14 H 1.0710 0.6262 0.0257
C19 C 1.6521(3) 0.6660(3) 0.19423(13)
C20 C 1.2027(3) 0.9380(2) -0.07900(13)
C21 C 1.5499(2) 0.7609(2) 0.14154(12)
H15 H 1.5444 0.8024 0.1181
C22 C 1.0896(3) 0.4057(3) 0.25931(13)
H16 H 1.1230 0.3497 0.2554
C23 C 1.1017(3) 0.4770(3) 0.23028(13)
H17 H 1.1422 0.4687 0.2072
C24 C 1.1885(3) 0.3334(3) 0.01260(13)
C25 C 1.2496(3) 0.9785(3) -0.11765(13)
H18 H 1.3174 0.9519 -0.1194
H19 H 1.2564 1.0443 -0.1139
H20 H 1.2050 0.9654 -0.1444
C26 C 1.3041(3) 0.7697(3) 0.00583(14)
H21 H 1.3686 0.7688 -0.0073
H22 H 1.2744 0.7087 0.0049
H23 H 1.3174 0.7897 0.0360
C27 C 1.7537(3) 0.6238(3) 0.21507(15)
H24 H 1.7398 0.5838 0.2389
H25 H 1.8007 0.6721 0.2263
H26 H 1.7851 0.5887 0.1933
C28 C 1.2136(3) 0.4338(3) 0.08098(14)
H27 H 1.2501 0.3858 0.0961
C29 C 1.4710(3) 0.6703(3) 0.19427(13)
C30 C 1.3796(3) 0.6396(3) 0.21753(15)
H28 H 1.4036 0.5978 0.2410
H29 H 1.3291 0.6089 0.1969
H30 H 1.3477 0.6926 0.2295
Ni1_2 Ni 1.87276(3) 0.78238(3) 0.066406(15)
Ni1B Ni 1.12724(3) 0.21762(3) -0.066406(15)
Ni1B_2 Ni 1.12724(3) 1.21762(3) -0.066406(15)
Ni2B Ni 0.80328(3) 1.09295(3) -0.111829(15)
Ni4_2 Ni 1.97333(3) 0.80990(3) 0.161134(15)
Ni4A Ni 1.02667(3) 0.30990(3) 0.338866(15)
Ni4B Ni 1.02667(3) 1.19010(3) -0.161134(15)
O2B O 0.92458(16) 0.89790(16) 0.10777(8)
O8B O 1.06394(17) 0.98040(16) 0.09172(8)
O9B O 0.83260(17) 0.66543(17) 0.02871(8)
O11_2 O 0.81930(16) 0.78606(16) 0.16834(8)
O12_2 O 0.74457(17) 0.75890(17) 0.09889(8)
N1A N 0.9687(2) 0.91444(19) 0.20698(10)
loop_
_geom_bond_atom_site_label_1
_geom_bond_atom_site_label_2
_geom_bond_site_symmetry_1
_geom_bond_site_symmetry_2
Ni1 O3 1_555 1_555
Ni2 O1 1_555 1_555
Ni3 O1 1_555 1_555
Ni4 O3 1_555 1_555
O1 C9 1_555 1_555
O2 C8 1_555 1_555
O3 Ni3 1_555 1_555
H1 O3 1_555 1_555
O4 Ni3 1_555 1_555
O5 Ni4 1_555 1_555
O6 Ni3 1_555 1_555
O7 Ni2 1_555 1_555
H2 O7 1_555 1_555
O8 C8 1_555 1_555
O9 C24 1_555 1_555
O10 Ni1 1_555 1_555
O11 C14 1_555 1_555
O12 C14 1_555 1_555
O13 Ni2 1_555 1_555
O14 Ni2 1_555 1_555
H3 O14 1_555 1_555
H4 O14 1_555 1_555
O15 Ni2 1_555 1_555
H5 O15 1_555 1_555
H6 O15 1_555 1_555
N1 C7 1_555 1_555
N2 C13 1_555 1_555
O16 Ni1 1_555 1_555
H7 O16 1_555 1_555
H8 O16 1_555 1_555
C1 C14 1_555 1_555
N3 Ni3 1_555 1_555
C2 N3 1_555 1_555
H9 C2 1_555 1_555
N4 C19 1_555 1_555
O17 C24 1_555 1_555
C3 C6 1_555 1_555
C4 H10 1_555 1_555
C5 C10 1_555 1_555
C6 H11 1_555 1_555
C7 H12 1_555 1_555
C8 C3 1_555 1_555
C9 O10 1_555 1_555
C10 O4 1_555 1_555
C11 O5 1_555 1_555
C12 C7 1_555 1_555
H13 C12 1_555 1_555
C13 C15 1_555 1_555
C15 C6 1_555 1_555
C16 C4 1_555 1_555
C17 C11 1_555 1_555
C18 N3 1_555 1_555
H14 C18 1_555 1_555
C19 C1 1_555 1_555
C20 N2 1_555 1_555
C21 C1 1_555 1_555
H15 C21 1_555 1_555
C22 N1 1_555 1_555
H16 C22 1_555 1_555
C23 C17 1_555 1_555
H17 C23 1_555 1_555
C24 C16 1_555 1_555
C25 C20 1_555 1_555
H18 C25 1_555 1_555
H19 C25 1_555 1_555
H20 C25 1_555 1_555
C26 C13 1_555 1_555
H21 C26 1_555 1_555
H22 C26 1_555 1_555
H23 C26 1_555 1_555
C27 C19 1_555 1_555
H24 C27 1_555 1_555
H25 C27 1_555 1_555
H26 C27 1_555 1_555
C28 C2 1_555 1_555
H27 C28 1_555 1_555
C29 N4 1_555 1_555
C30 C29 1_555 1_555
H28 C30 1_555 1_555
H29 C30 1_555 1_555
H30 C30 1_555 1_555
Ni1_2 O12 1_555 1_555
Ni1B O9 1_555 1_555
Ni1B_2 O2 1_555 1_555
Ni2B O8 1_555 1_555
Ni4_2 O11 1_555 1_555
Ni4A N1 1_555 1_555
Ni4B O2 1_555 1_555
O2B Ni1 1_555 1_555
O8B Ni2 1_555 1_555
O9B Ni1 1_555 1_555
O11_2 Ni4 1_555 1_555
O12_2 Ni1 1_555 1_555
N1A Ni4 1_555 1_555
Ni3 O7 1_555 1_555
Ni4 O7 1_555 1_555
Ni4 O2B 1_555 1_555
O6 C11 1_555 1_555
O13 C10 1_555 1_555
C3 C20 1_555 1_555
C4 C18 1_555 1_555
C5 C21 1_555 1_555
C5 C29 1_555 1_555
C9 C15 1_555 1_555
C12 C17 1_555 1_555
C16 C28 1_555 1_555
C22 C23 1_555 1_555

#END
