
#######################################################################
#
#                 Cambridge Crystallographic Data Centre
#                                CCDC 
#
#######################################################################
#
# If this CIF has been generated from an entry in the Cambridge 
# Structural Database, then it will include bibliographic, chemical, 
# crystal, experimental, refinement or atomic coordinate data resulting 
# from the CCDC's data processing and validation procedures.
#
#######################################################################

data_KOLYUH
_symmetry_cell_setting           tetragonal
_symmetry_space_group_name_H-M   'I 41/a'
_symmetry_Int_Tables_number      88
_space_group_name_Hall           '-I 4ad'
loop_
_symmetry_equiv_pos_site_id
_symmetry_equiv_pos_as_xyz
1 x,y,z
2 1/2-x,-y,1/2+z
3 3/4-y,1/4+x,1/4+z
4 3/4+y,3/4-x,3/4+z
5 1/2+x,1/2+y,1/2+z
6 -x,1/2-y,z
7 1/4-y,3/4+x,3/4+z
8 1/4+y,1/4-x,1/4+z
9 -x,-y,-z
10 1/2+x,y,1/2-z
11 1/4+y,3/4-x,3/4-z
12 1/4-y,1/4+x,1/4-z
13 1/2-x,1/2-y,1/2-z
14 x,1/2+y,-z
15 3/4+y,1/4-x,1/4-z
16 3/4-y,3/4+x,3/4-z
_cell_length_a                   14.3290(12)
_cell_length_b                   14.3290(12)
_cell_length_c                   44.554(4)
_cell_angle_alpha                90
_cell_angle_beta                 90
_cell_angle_gamma                90
_cell_volume                     9147.84
loop_
_atom_site_label
_atom_site_type_symbol
_atom_site_fract_x
_atom_site_fract_y
_atom_site_fract_z
Cu1 Cu 0.5000 0.2500 0.583288(8)
O1 O 0.60799(13) 0.37520(14) 0.58273(4)
H1 H 0.6478 0.3824 0.5688
H2 H 0.6308 0.3934 0.5993
N1 N 0.43093(14) 0.32087(13) 0.55079(4)
N2 N 0.38603(17) 0.44426(15) 0.52370(5)
N3 N 0.35463(14) 0.36349(13) 0.51098(4)
N4 N 0.14068(14) 0.37139(13) 0.40482(4)
N5 N 0.1138(2) 0.45179(16) 0.39113(5)
N6 N 0.06473(14) 0.32718(14) 0.36528(4)
C1 C 0.4307(2) 0.41489(17) 0.54756(6)
H3 H 0.4603 0.4559 0.5614
C2 C 0.38188(18) 0.29107(16) 0.52731(5)
H4 H 0.3684 0.2276 0.5229
C3 C 0.29987(17) 0.36550(15) 0.48377(5)
C4 C 0.34715(17) 0.36739(15) 0.45646(5)
C5 C 0.44595(17) 0.36514(17) 0.45384(6)
H5 H 0.4832 0.3610 0.4714
C6 C 0.48805(19) 0.36886(19) 0.42635(6)
H6 H 0.5541 0.3656 0.4249
C7 C 0.4337(2) 0.37753(19) 0.40009(6)
H7 H 0.4639 0.3830 0.3812
C8 C 0.33947(19) 0.37815(17) 0.40127(5)
H8 H 0.3045 0.3827 0.3832
C9 C 0.29165(17) 0.37209(15) 0.42949(5)
C10 C 0.19494(17) 0.37160(15) 0.43212(5)
C11 C 0.14802(17) 0.37083(16) 0.45951(5)
C12 C 0.04860(19) 0.3750(2) 0.46197(6)
H9 H 0.0113 0.3759 0.4443
C13 C 0.0074(2) 0.3774(3) 0.48925(7)
H10 H -0.0587 0.3800 0.4906
C14 C 0.0616(2) 0.3763(3) 0.51590(6)
H11 H 0.0312 0.3790 0.5348
C15 C 0.1559(2) 0.3714(2) 0.51485(6)
H12 H 0.1909 0.3699 0.5329
C16 C 0.20302(18) 0.36856(17) 0.48647(5)
C17 C 0.11075(17) 0.29821(16) 0.38925(5)
H13 H 0.1209 0.2348 0.3945
C18 C 0.0689(2) 0.42144(19) 0.36740(6)
H14 H 0.0416 0.4620 0.3530
O1E O 0.39201(13) 0.12480(14) 0.58273(4)
H1E H 0.3522 0.1176 0.5688
H2E H 0.3692 0.1066 0.5993
N1E N 0.56907(14) 0.17913(13) 0.55079(4)
N2E N 0.61397(17) 0.05574(15) 0.52370(5)
N3E N 0.64537(14) 0.13651(13) 0.51098(4)
N4E N 0.85932(14) 0.12861(13) 0.40482(4)
N5E N 0.8862(2) 0.04821(16) 0.39113(5)
N6E N 0.93527(14) 0.17282(14) 0.36528(4)
C1E C 0.5693(2) 0.08511(17) 0.54756(6)
H3E H 0.5397 0.0441 0.5614
C2E C 0.61812(18) 0.20893(16) 0.52731(5)
H4E H 0.6316 0.2724 0.5229
C3E C 0.70013(17) 0.13450(15) 0.48377(5)
C4E C 0.65285(17) 0.13261(15) 0.45646(5)
C5E C 0.55405(17) 0.13486(17) 0.45384(6)
H5E H 0.5168 0.1390 0.4714
C6E C 0.51195(19) 0.13114(19) 0.42635(6)
H6E H 0.4459 0.1344 0.4249
C7E C 0.5663(2) 0.12247(19) 0.40009(6)
H7E H 0.5361 0.1170 0.3812
C8E C 0.66053(19) 0.12185(17) 0.40127(5)
H8E H 0.6955 0.1173 0.3832
C9E C 0.70835(17) 0.12791(15) 0.42949(5)
C10E C 0.80506(17) 0.12840(15) 0.43212(5)
C11E C 0.85198(17) 0.12917(16) 0.45951(5)
C12E C 0.95140(19) 0.1250(2) 0.46197(6)
H9E H 0.9887 0.1241 0.4443
C13E C 0.9926(2) 0.1226(3) 0.48925(7)
H10E H 1.0587 0.1200 0.4906
C14E C 0.9384(2) 0.1237(3) 0.51590(6)
H11E H 0.9688 0.1210 0.5348
C15E C 0.8441(2) 0.1286(2) 0.51485(6)
H12E H 0.8091 0.1301 0.5329
C16E C 0.79698(18) 0.13144(17) 0.48647(5)
C17E C 0.88925(17) 0.20179(16) 0.38925(5)
H13E H 0.8791 0.2652 0.3945
C18E C 0.9311(2) 0.07856(19) 0.36740(6)
H14E H 0.9584 0.0380 0.3530
Cu1C Cu 0.0000 0.2500 0.333288(8)
Cu1C_2 Cu 1.0000 0.2500 0.333288(8)
N6B N 0.42282(14) 0.31473(14) 0.61528(4)
N6G N 0.57718(14) 0.18527(14) 0.61528(4)
B1 B 0.6877(3) 0.4523(3) 0.66751(7)
F1 F 0.6651(3) 0.4218(3) 0.63928(7)
F2 F 0.7066(4) 0.5435(3) 0.66670(8)
F3 F 0.7752(3) 0.4089(5) 0.67286(11)
F4 F 0.6230(3) 0.4238(3) 0.68809(8)
F5? F 0.6728(10) 0.3835(9) 0.6479(3)
F6? F 0.6143(9) 0.5193(8) 0.6650(3)
F7? F 0.7611(8) 0.5033(11) 0.6702(3)
F8? F 0.6728(12) 0.4155(10) 0.6946(2)
loop_
_geom_bond_atom_site_label_1
_geom_bond_atom_site_label_2
_geom_bond_site_symmetry_1
_geom_bond_site_symmetry_2
Cu1 O1 1_555 1_555
O1 H1 1_555 1_555
H2 O1 1_555 1_555
N1 Cu1 1_555 1_555
N2 N3 1_555 1_555
N3 C2 1_555 1_555
N4 N5 1_555 1_555
N5 C18 1_555 1_555
N6 C17 1_555 1_555
C1 N1 1_555 1_555
H3 C1 1_555 1_555
C2 N1 1_555 1_555
H4 C2 1_555 1_555
C3 N3 1_555 1_555
C4 C3 1_555 1_555
C5 C4 1_555 1_555
H5 C5 1_555 1_555
C6 C5 1_555 1_555
H6 C6 1_555 1_555
C7 C6 1_555 1_555
H7 C7 1_555 1_555
C8 C7 1_555 1_555
H8 C8 1_555 1_555
C9 C4 1_555 1_555
C10 N4 1_555 1_555
C11 C10 1_555 1_555
C12 C11 1_555 1_555
H9 C12 1_555 1_555
C13 C12 1_555 1_555
H10 C13 1_555 1_555
C14 C13 1_555 1_555
H11 C14 1_555 1_555
C15 C14 1_555 1_555
H12 C15 1_555 1_555
C16 C3 1_555 1_555
C17 N4 1_555 1_555
H13 C17 1_555 1_555
C18 N6 1_555 1_555
H14 C18 1_555 1_555
B1 F1 1_555 1_555
F2 B1 1_555 1_555
F3 B1 1_555 1_555
F4 B1 1_555 1_555
O1E Cu1 1_555 1_555
H1E O1E 1_555 1_555
H2E O1E 1_555 1_555
N1E Cu1 1_555 1_555
N2E N3E 1_555 1_555
N3E C2E 1_555 1_555
N4E N5E 1_555 1_555
N5E C18E 1_555 1_555
N6E C17E 1_555 1_555
C1E N1E 1_555 1_555
H3E C1E 1_555 1_555
C2E N1E 1_555 1_555
H4E C2E 1_555 1_555
C3E N3E 1_555 1_555
C4E C3E 1_555 1_555
C5E C4E 1_555 1_555
H5E C5E 1_555 1_555
C6E C5E 1_555 1_555
H6E C6E 1_555 1_555
C7E C6E 1_555 1_555
H7E C7E 1_555 1_555
C8E C7E 1_555 1_555
H8E C8E 1_555 1_555
C9E C4E 1_555 1_555
C10E N4E 1_555 1_555
C11E C10E 1_555 1_555
C12E C11E 1_555 1_555
H9E C12E 1_555 1_555
C13E C12E 1_555 1_555
H10E C13E 1_555 1_555
C14E C13E 1_555 1_555
H11E C14E 1_555 1_555
C15E C14E 1_555 1_555
H12E C15E 1_555 1_555
C16E C3E 1_555 1_555
C17E N4E 1_555 1_555
H13E C17E 1_555 1_555
C18E N6E 1_555 1_555
H14E C18E 1_555 1_555
Cu1C N6 1_555 1_555
Cu1C_2 N6E 1_555 1_555
N6B Cu1 1_555 1_555
N6G Cu1 1_555 1_555
N2 C1 1_555 1_555
C8 C9 1_555 1_555
C9 C10 1_555 1_555
C11 C16 1_555 1_555
C15 C16 1_555 1_555
N2E C1E 1_555 1_555
C8E C9E 1_555 1_555
C9E C10E 1_555 1_555
C11E C16E 1_555 1_555
C15E C16E 1_555 1_555

#END
