
#######################################################################
#
#                 Cambridge Crystallographic Data Centre
#                                CCDC 
#
#######################################################################
#
# If this CIF has been generated from an entry in the Cambridge 
# Structural Database, then it will include bibliographic, chemical, 
# crystal, experimental, refinement or atomic coordinate data resulting 
# from the CCDC's data processing and validation procedures.
#
#######################################################################

data_KOMGAV
_symmetry_cell_setting           rhombohedral
_symmetry_space_group_name_H-M   'R -3 c'
_symmetry_Int_Tables_number      167
_space_group_name_Hall           '-R 3 2"c'
loop_
_symmetry_equiv_pos_site_id
_symmetry_equiv_pos_as_xyz
1 x,y,z
2 -y,x-y,z
3 -x+y,-x,z
4 y,x,1/2-z
5 2/3+x,1/3+y,1/3+z
6 2/3-y,1/3+x-y,1/3+z
7 2/3-x+y,1/3-x,1/3+z
8 2/3+y,1/3+x,5/6-z
9 1/3+x,2/3+y,2/3+z
10 1/3+y,2/3+x,1/6-z
11 x-y,-y,1/2-z
12 -x,-x+y,1/2-z
13 1/3-y,2/3+x-y,2/3+z
14 1/3-x+y,2/3-x,2/3+z
15 1/3+x-y,2/3-y,1/6-z
16 1/3-x,2/3-x+y,1/6-z
17 2/3+x-y,1/3-y,5/6-z
18 2/3-x,1/3-x+y,5/6-z
19 -x,-y,-z
20 y,-x+y,-z
21 x-y,x,-z
22 -y,-x,1/2+z
23 1/3-x,2/3-y,2/3-z
24 1/3+y,2/3-x+y,2/3-z
25 1/3+x-y,2/3+x,2/3-z
26 1/3-y,2/3-x,1/6+z
27 2/3-x,1/3-y,1/3-z
28 2/3-y,1/3-x,5/6+z
29 -x+y,y,1/2+z
30 x,x-y,1/2+z
31 2/3+y,1/3-x+y,1/3-z
32 2/3+x-y,1/3+x,1/3-z
33 2/3-x+y,1/3+y,5/6+z
34 2/3+x,1/3+x-y,5/6+z
35 1/3-x+y,2/3+y,1/6+z
36 1/3+x,2/3+x-y,1/6+z
_cell_length_a                   10.9709(11)
_cell_length_b                   10.9709(11)
_cell_length_c                   35.314(6)
_cell_angle_alpha                90
_cell_angle_beta                 90
_cell_angle_gamma                120.00
_cell_volume                     3680.97
loop_
_atom_site_label
_atom_site_type_symbol
_atom_site_fract_x
_atom_site_fract_y
_atom_site_fract_z
Cu1 Cu 1.0000 1.0000 0.0000
N1 N 0.9562(3) 0.6852(3) 0.07354(8)
N2 N 0.9317(4) 0.8193(5) 0.03390(9)
N3 N 0.8221(4) 0.7708(5) 0.05940(10)
C1 C 1.0101(4) 0.7670(4) 0.04264(10)
H1 H 1.0907 0.7831 0.0297
C2 C 0.8413(4) 0.6921(8) 0.08277(16)
H2 H 0.7833 0.6461 0.1033
Cu1I Cu 1.3333 0.6667 0.1667
Cu1I_2 Cu 1.3333 1.6667 0.1667
Cu1I_3 Cu 0.3333 0.6667 0.1667
N1I N 1.0185(3) 0.6229(3) 0.09313(8)
N1A N 1.3148(3) 1.2710(4) 0.07354(8)
N1O N 1.3771(3) 1.3957(4) 0.09313(8)
N1B N 0.7290(4) 1.0438(3) 0.07354(8)
N1N N 0.6043(4) 0.9815(3) 0.09313(8)
N2I N 1.1526(5) 0.5984(4) 0.13277(9)
N2A N 1.1807(5) 1.1124(6) 0.03390(9)
N2O N 1.4016(4) 1.5543(6) 0.13277(9)
N2B N 0.8876(6) 1.0683(4) 0.03390(9)
N2N N 0.4457(6) 0.8474(5) 0.13277(9)
N2R N 1.0683(4) 1.1807(5) -0.03390(9)
N2S N 0.8193(5) 0.8876(6) -0.03390(9)
N2T N 1.1124(6) 0.9317(4) -0.03390(9)
N3I N 1.1041(5) 0.4888(4) 0.10727(10)
N3A N 1.2292(5) 1.0513(6) 0.05940(10)
N3O N 1.5112(4) 1.6154(6) 0.10727(10)
N3B N 0.9487(6) 1.1779(4) 0.05940(10)
N3N N 0.3846(6) 0.8959(5) 0.10727(10)
C1I C 1.1003(4) 0.6768(4) 0.12403(10)
C1A C 1.2330(4) 1.2431(6) 0.04264(10)
C1O C 1.3232(4) 1.4236(6) 0.12403(10)
C1B C 0.7569(6) 0.9899(4) 0.04264(10)
C1N C 0.5764(6) 0.8997(4) 0.12403(10)
H1I H 1.1164 0.7574 0.1370
H1A H 1.2169 1.3076 0.0297
H1O H 1.2426 1.3591 0.1370
H1B H 0.6924 0.9093 0.0297
H1N H 0.6409 0.8836 0.1370
C2I C 1.0254(8) 0.5080(4) 0.08390(16)
C2A C 1.3079(8) 1.1492(9) 0.08277(16)
C2O C 1.4920(4) 1.5175(9) 0.08390(16)
C2B C 0.8508(9) 1.1587(4) 0.08277(16)
C2N C 0.4825(9) 0.9746(8) 0.08390(16)
H2I H 0.9794 0.4500 0.0634
H2A H 1.3539 1.1372 0.1033
H2O H 1.5500 1.5295 0.0634
H2B H 0.8628 1.2167 0.1033
H2N H 0.4705 1.0206 0.0634
Cl1 Cl 0.6667 0.3333 1.00557(10)
O1 O 0.6667 0.3333 1.0468(3)
O2 O 0.594(2) 0.1883(13) 0.9933(5)
O2A O 0.8117(13) 0.4057(24) 0.9933(5)
O2B O 0.5943(24) 0.406(2) 0.9933(5)
O3? O 0.699(2) 0.305(3) 0.9682(5)
O4? O 0.5198(11) 0.2449(16) 1.0131(6)
loop_
_geom_bond_atom_site_label_1
_geom_bond_atom_site_label_2
_geom_bond_site_symmetry_1
_geom_bond_site_symmetry_2
Cu1 N2 1_555 1_555
N1 C1 1_555 1_555
N2 N3 1_555 1_555
N3 C2 1_555 1_555
C1 N2 1_555 1_555
H1 C1 1_555 1_555
C2 N1 1_555 1_555
H2 C2 1_555 1_555
Cl1 O1 1_555 1_555
O2 Cl1 1_555 1_555
Cu1I N2I 1_555 1_555
Cu1I_2 N2O 1_555 1_555
Cu1I_3 N2N 1_555 1_555
N1I N1 1_555 1_555
N1A N1O 1_555 1_555
N1O C1O 1_555 1_555
N1B N1N 1_555 1_555
N1N C1N 1_555 1_555
N2I N3I 1_555 1_555
N2A Cu1 1_555 1_555
N2O N3O 1_555 1_555
N2B Cu1 1_555 1_555
N2N N3N 1_555 1_555
N2R Cu1 1_555 1_555
N2S Cu1 1_555 1_555
N2T Cu1 1_555 1_555
N3I C2I 1_555 1_555
N3A N2A 1_555 1_555
N3O C2O 1_555 1_555
N3B N2B 1_555 1_555
N3N C2N 1_555 1_555
C1I N1I 1_555 1_555
C1A N1A 1_555 1_555
C1O N2O 1_555 1_555
C1B N1B 1_555 1_555
C1N N2N 1_555 1_555
H1I C1I 1_555 1_555
H1A C1A 1_555 1_555
H1O C1O 1_555 1_555
H1B C1B 1_555 1_555
H1N C1N 1_555 1_555
C2I N1I 1_555 1_555
C2A N1A 1_555 1_555
C2O N1O 1_555 1_555
C2B N1B 1_555 1_555
C2N N1N 1_555 1_555
H2I C2I 1_555 1_555
H2A C2A 1_555 1_555
H2O C2O 1_555 1_555
H2B C2B 1_555 1_555
H2N C2N 1_555 1_555
O2A Cl1 1_555 1_555
O2B Cl1 1_555 1_555
N2I C1I 1_555 1_555
N2A C1A 1_555 1_555
N2B C1B 1_555 1_555
N3A C2A 1_555 1_555
N3B C2B 1_555 1_555

#END
