
#######################################################################
#
#                 Cambridge Crystallographic Data Centre
#                                CCDC 
#
#######################################################################
#
# If this CIF has been generated from an entry in the Cambridge 
# Structural Database, then it will include bibliographic, chemical, 
# crystal, experimental, refinement or atomic coordinate data resulting 
# from the CCDC's data processing and validation procedures.
#
#######################################################################

data_KOPXOE
_symmetry_cell_setting           orthorhombic
_symmetry_space_group_name_H-M   'P 21 21 2'
_symmetry_Int_Tables_number      18
_space_group_name_Hall           'P 2 2ab'
loop_
_symmetry_equiv_pos_site_id
_symmetry_equiv_pos_as_xyz
1 x,y,z
2 -x,-y,z
3 1/2+x,1/2-y,-z
4 1/2-x,1/2+y,-z
_cell_length_a                   14.8230(8)
_cell_length_b                   27.4058(14)
_cell_length_c                   9.2762(5)
_cell_angle_alpha                90
_cell_angle_beta                 90
_cell_angle_gamma                90
_cell_volume                     3768.33
loop_
_atom_site_label
_atom_site_type_symbol
_atom_site_fract_x
_atom_site_fract_y
_atom_site_fract_z
Cu1 Cu 0.05394(3) 0.439511(16) -0.61287(5)
Cu2 Cu 0.03071(3) 0.436643(17) -0.10961(5)
C1 C 0.0000 0.5000 -0.3326(6)
C2 C 0.0000 0.5000 0.1691(6)
O1 O 0.0000 0.5000 -0.1894(4)
O2 O 0.01948(19) 0.45993(9) -0.3927(3)
O3 O 0.0000 0.5000 0.3133(4)
O4 O 0.03129(18) 0.46236(10) 0.1090(3)
C3 C 0.1683(4) 0.39355(18) -0.0661(5)
O5 O 0.2372(3) 0.37054(15) -0.0281(5)
O6 O 0.0871(2) 0.37473(11) -0.0578(3)
O7 O 0.16884(19) 0.43740(12) -0.1155(3)
N1 N -0.0633(3) 0.40321(12) -0.6478(4)
N2 N -0.3872(3) 0.12445(13) -0.4400(4)
C4 C -0.0728(4) 0.37572(16) -0.7680(5)
H1 H -0.0230 0.3721 -0.8316
C5 C -0.1530(4) 0.35287(18) -0.8004(5)
H2 H -0.1577 0.3336 -0.8852
C6 C -0.2269(4) 0.3578(2) -0.7101(6)
C7 C -0.2144(4) 0.3841(2) -0.5843(6)
H3 H -0.2622 0.3867 -0.5165
C8 C -0.1323(3) 0.40663(17) -0.5569(5)
H4 H -0.1253 0.4250 -0.4708
C9 C -0.3161(5) 0.3337(3) -0.7469(8)
H5 H -0.3647 0.3581 -0.7341
H6 H -0.3149 0.3246 -0.8501
C10 C -0.3389(4) 0.2912(2) -0.6645(12)
H7 H -0.3902 0.3014 -0.6032
H8 H -0.3643 0.2680 -0.7355
C11 C -0.2850(6) 0.2631(3) -0.5757(8)
H9 H -0.2713 0.2828 -0.4889
H10 H -0.2272 0.2576 -0.6265
C12 C -0.3187(4) 0.21450(19) -0.5257(6)
C13 C -0.3540(4) 0.18223(18) -0.6246(6)
H11 H -0.3555 0.1906 -0.7239
C14 C -0.3870(4) 0.13790(18) -0.5795(5)
H12 H -0.4104 0.1160 -0.6494
C15 C -0.3165(3) 0.19985(17) -0.3823(6)
H13 H -0.2911 0.2207 -0.3113
C16 C -0.3510(3) 0.15506(16) -0.3429(5)
H14 H -0.3492 0.1456 -0.2444
N3 N 0.1774(2) 0.47076(13) -0.6141(4)
C17 C 0.2251(3) 0.47566(19) -0.4912(5)
H15 H 0.1996 0.4647 -0.4030
C18 C 0.3100(4) 0.4963(3) -0.4903(7)
H16 H 0.3421 0.4992 -0.4021
C19 C 0.3482(4) 0.5125(4) -0.6155(10)
C20 C 0.2980(4) 0.5077(3) -0.7434(7)
H17 H 0.3214 0.5193 -0.8324
C21 C 0.2146(3) 0.4860(2) -0.7374(6)
H18 H 0.1820 0.4816 -0.8246
C22 C 0.4437(13) 0.5379(8) -0.625(2)
H19 H 0.4427 0.5659 -0.6921
H20 H 0.4638 0.5494 -0.5286
C23 C 0.5000 0.5000 -0.676(4)
H21 H 0.5412 0.5179 -0.7416
N4 N -0.0946(3) 0.40987(13) -0.1370(4)
N5 N -0.5732(4) 0.2767(3) -0.5781(8)
C24 C -0.1072(4) 0.36293(17) -0.1767(5)
H22 H -0.0555 0.3433 -0.1935
C25 C -0.1902(4) 0.3423(2) -0.1939(6)
H23 H -0.1951 0.3091 -0.2216
C26 C -0.2658(4) 0.3693(2) -0.1716(6)
C27 C -0.2547(4) 0.4190(2) -0.1325(6)
H24 H -0.3059 0.4392 -0.1170
C28 C -0.1684(3) 0.4380(2) -0.1171(5)
H25 H -0.1610 0.4713 -0.0921
C29 C -0.3586(4) 0.3442(3) -0.1825(8)
H26 H -0.3641 0.3303 -0.2806
H27 H -0.3591 0.3166 -0.1140
C30 C -0.4388(5) 0.3735(3) -0.1553(11)
H28 H -0.4410 0.4002 -0.2270
H29 H -0.4331 0.3886 -0.0588
C31 C -0.5279(4) 0.3455(3) -0.1616(9)
H30 H -0.5278 0.3200 -0.0859
H31 H -0.5781 0.3682 -0.1404
C32 C -0.5444(4) 0.3218(3) -0.3053(9)
C33 C -0.5728(5) 0.3482(3) -0.4260(13)
H32 H -0.5844 0.3822 -0.4181
C34 C -0.5843(5) 0.3243(4) -0.5600(11)
H33 H -0.6008 0.3433 -0.6414
C35 C -0.5309(4) 0.2728(3) -0.3291(9)
H34 H -0.5106 0.2525 -0.2528
C36 C -0.5470(5) 0.2531(3) -0.4640(8)
H35 H -0.5379 0.2190 -0.4742
H21A H 0.4588 0.4821 -0.7416
O2A O -0.01948(19) 0.54007(9) -0.3927(3)
O4A O -0.03129(18) 0.53764(10) 0.1090(3)
N3A N 0.8226(2) 0.52924(13) -0.6141(4)
C17A C 0.7749(3) 0.52434(19) -0.4912(5)
H15A H 0.8004 0.5353 -0.4030
C18A C 0.6900(4) 0.5037(3) -0.4903(7)
H16A H 0.6579 0.5008 -0.4021
C19A C 0.6518(4) 0.4875(4) -0.6155(10)
C20A C 0.7020(4) 0.4923(3) -0.7434(7)
H17A H 0.6786 0.4807 -0.8324
C21A C 0.7854(3) 0.5140(2) -0.7374(6)
H18A H 0.8180 0.5184 -0.8246
C22A C 0.5563(13) 0.4621(8) -0.625(2)
H19A H 0.5573 0.4341 -0.6921
H20A H 0.5362 0.4506 -0.5286
Cu1A Cu -0.05394(3) 0.560489(16) -0.61287(5)
Cu2A Cu -0.03071(3) 0.563357(17) -0.10961(5)
C3A C -0.1683(4) 0.60645(18) -0.0661(5)
O5A O -0.2372(3) 0.62946(15) -0.0281(5)
O6A O -0.0871(2) 0.62527(11) -0.0578(3)
O7A O -0.16884(19) 0.56260(12) -0.1155(3)
N1A N 0.0633(3) 0.59679(12) -0.6478(4)
N2A N 0.3872(3) 0.87555(13) -0.4400(4)
C4A C 0.0728(4) 0.62428(16) -0.7680(5)
H1A H 0.0230 0.6279 -0.8316
C5A C 0.1530(4) 0.64713(18) -0.8004(5)
H2A H 0.1577 0.6664 -0.8852
C6A C 0.2269(4) 0.6422(2) -0.7101(6)
C7A C 0.2144(4) 0.6159(2) -0.5843(6)
H3A H 0.2622 0.6133 -0.5165
C8A C 0.1323(3) 0.59337(17) -0.5569(5)
H4A H 0.1253 0.5750 -0.4708
C9A C 0.3161(5) 0.6663(3) -0.7469(8)
H5A H 0.3647 0.6419 -0.7341
H6A H 0.3149 0.6754 -0.8501
C10A C 0.3389(4) 0.7088(2) -0.6645(12)
H7A H 0.3902 0.6986 -0.6032
H8A H 0.3643 0.7320 -0.7355
C11A C 0.2850(6) 0.7369(3) -0.5757(8)
H9A H 0.2713 0.7172 -0.4889
H10A H 0.2272 0.7424 -0.6265
C12A C 0.3187(4) 0.78550(19) -0.5257(6)
C13A C 0.3540(4) 0.81777(18) -0.6246(6)
H11A H 0.3555 0.8094 -0.7239
C14A C 0.3870(4) 0.86210(18) -0.5795(5)
H12A H 0.4104 0.8840 -0.6494
C15A C 0.3165(3) 0.80015(17) -0.3823(6)
H13A H 0.2911 0.7793 -0.3113
C16A C 0.3510(3) 0.84494(16) -0.3429(5)
H14A H 0.3492 0.8544 -0.2444
N4A N 0.0946(3) 0.59013(13) -0.1370(4)
N5A N 0.5732(4) 0.7233(3) -0.5781(8)
C24A C 0.1072(4) 0.63707(17) -0.1767(5)
H22A H 0.0555 0.6567 -0.1935
C25A C 0.1902(4) 0.6577(2) -0.1939(6)
H23A H 0.1951 0.6909 -0.2216
C26A C 0.2658(4) 0.6307(2) -0.1716(6)
C27A C 0.2547(4) 0.5810(2) -0.1325(6)
H24A H 0.3059 0.5608 -0.1170
C28A C 0.1684(3) 0.5620(2) -0.1171(5)
H25A H 0.1610 0.5287 -0.0921
C29A C 0.3586(4) 0.6558(3) -0.1825(8)
H26A H 0.3641 0.6697 -0.2806
H27A H 0.3591 0.6834 -0.1140
C30A C 0.4388(5) 0.6265(3) -0.1553(11)
H28A H 0.4410 0.5998 -0.2270
H29A H 0.4331 0.6114 -0.0588
C31A C 0.5279(4) 0.6545(3) -0.1616(9)
H30A H 0.5278 0.6800 -0.0859
H31A H 0.5781 0.6318 -0.1404
C32A C 0.5444(4) 0.6782(3) -0.3053(9)
C33A C 0.5728(5) 0.6518(3) -0.4260(13)
H32A H 0.5844 0.6178 -0.4181
C34A C 0.5843(5) 0.6757(4) -0.5600(11)
H33A H 0.6008 0.6567 -0.6414
C35A C 0.5309(4) 0.7272(3) -0.3291(9)
H34A H 0.5106 0.7475 -0.2528
C36A C 0.5470(5) 0.7469(3) -0.4640(8)
H35A H 0.5379 0.7810 -0.4742
Cu1_2 Cu 0.05394(3) 0.439511(16) 0.38713(5)
Cu1A_2 Cu -0.05394(3) 0.560489(16) 0.38713(5)
Cu1A_3 Cu 0.94606(3) 0.560489(16) -0.61287(5)
Cu1B Cu -0.44606(3) 0.060489(16) -0.38713(5)
Cu1C Cu 0.44606(3) 0.939511(16) -0.38713(5)
O3_2 O 0.0000 0.5000 -0.6867(4)
O4_2 O 0.03129(18) 0.46236(10) -0.8910(3)
O4A_2 O -0.03129(18) 0.53764(10) -0.8910(3)
N2B N 0.1128(3) 0.37555(13) -0.5600(4)
N2C N -0.1128(3) 0.62445(13) -0.5600(4)
N3A_2 N -0.1774(2) 0.52924(13) -0.6141(4)
O8 O 0.0672(3) 0.27821(14) 0.0120(5)
O9 O 0.0000 0.0000 0.2595(7)
O10 O 0.7553(3) 0.22919(16) -0.0035(6)
O11 O 0.8513(3) 0.03351(19) 0.0900(6)
O12 O 0.4257(4) 0.2663(3) 0.1258(8)
O13 O 0.3821(5) 0.3862(4) 0.1308(8)
H36? H 0.5412 0.5179 -0.7416
loop_
_geom_bond_atom_site_label_1
_geom_bond_atom_site_label_2
_geom_bond_site_symmetry_1
_geom_bond_site_symmetry_2
Cu1 O2 1_555 1_555
Cu2 O1 1_555 1_555
C1 O1 1_555 1_555
C2 O3 1_555 1_555
O1 Cu2A 1_555 1_555
O2 Cu2 1_555 1_555
O3 Cu1_2 1_555 1_555
O4 Cu2 1_555 1_555
C3 O5 1_555 1_555
O6 Cu2 1_555 1_555
O7 Cu2 1_555 1_555
N1 Cu1 1_555 1_555
N2 C14 1_555 1_555
C4 N1 1_555 1_555
H1 C4 1_555 1_555
C5 C4 1_555 1_555
H2 C5 1_555 1_555
C6 C5 1_555 1_555
C7 C6 1_555 1_555
H3 C7 1_555 1_555
C8 N1 1_555 1_555
H4 C8 1_555 1_555
C9 C6 1_555 1_555
H5 C9 1_555 1_555
H6 C9 1_555 1_555
C10 C9 1_555 1_555
H7 C10 1_555 1_555
H8 C10 1_555 1_555
C11 C10 1_555 1_555
H9 C11 1_555 1_555
H10 C11 1_555 1_555
C12 C11 1_555 1_555
C13 C12 1_555 1_555
H11 C13 1_555 1_555
C14 C13 1_555 1_555
H12 C14 1_555 1_555
C15 C12 1_555 1_555
H13 C15 1_555 1_555
C16 N2 1_555 1_555
H14 C16 1_555 1_555
N3 Cu1 1_555 1_555
C17 N3 1_555 1_555
H15 C17 1_555 1_555
C18 C17 1_555 1_555
H16 C18 1_555 1_555
C19 C18 1_555 1_555
C20 C19 1_555 1_555
H17 C20 1_555 1_555
C21 N3 1_555 1_555
H18 C21 1_555 1_555
C22 C19 1_555 1_555
H19 C22 1_555 1_555
H20 C22 1_555 1_555
C23 C22 1_555 1_555
H21 C23 1_555 1_555
N4 Cu2 1_555 1_555
N5 C34 1_555 1_555
C24 N4 1_555 1_555
H22 C24 1_555 1_555
C25 C24 1_555 1_555
H23 C25 1_555 1_555
C26 C25 1_555 1_555
C27 C26 1_555 1_555
H24 C27 1_555 1_555
C28 N4 1_555 1_555
H25 C28 1_555 1_555
C29 C26 1_555 1_555
H26 C29 1_555 1_555
H27 C29 1_555 1_555
C30 C29 1_555 1_555
H28 C30 1_555 1_555
H29 C30 1_555 1_555
C31 C30 1_555 1_555
H30 C31 1_555 1_555
H31 C31 1_555 1_555
C32 C31 1_555 1_555
C33 C32 1_555 1_555
H32 C33 1_555 1_555
C34 C33 1_555 1_555
H33 C34 1_555 1_555
C35 C32 1_555 1_555
H34 C35 1_555 1_555
C36 N5 1_555 1_555
H35 C36 1_555 1_555
H21A C23 1_555 1_555
O2A C1 1_555 1_555
O4A C2 1_555 1_555
N3A C17A 1_555 1_555
C17A H15A 1_555 1_555
C18A C17A 1_555 1_555
H16A C18A 1_555 1_555
C19A C18A 1_555 1_555
C20A C19A 1_555 1_555
H17A C20A 1_555 1_555
C21A N3A 1_555 1_555
H18A C21A 1_555 1_555
C22A C23 1_555 1_555
H19A C22A 1_555 1_555
H20A C22A 1_555 1_555
Cu1A O2A 1_555 1_555
Cu2A O2A 1_555 1_555
C3A O5A 1_555 1_555
O6A Cu2A 1_555 1_555
O7A Cu2A 1_555 1_555
N1A Cu1A 1_555 1_555
N2A C14A 1_555 1_555
C4A N1A 1_555 1_555
H1A C4A 1_555 1_555
C5A C4A 1_555 1_555
H2A C5A 1_555 1_555
C6A C5A 1_555 1_555
C7A C6A 1_555 1_555
H3A C7A 1_555 1_555
C8A N1A 1_555 1_555
H4A C8A 1_555 1_555
C9A C6A 1_555 1_555
H5A C9A 1_555 1_555
H6A C9A 1_555 1_555
C10A C9A 1_555 1_555
H7A C10A 1_555 1_555
H8A C10A 1_555 1_555
C11A C10A 1_555 1_555
H9A C11A 1_555 1_555
H10A C11A 1_555 1_555
C12A C11A 1_555 1_555
C13A C12A 1_555 1_555
H11A C13A 1_555 1_555
C14A C13A 1_555 1_555
H12A C14A 1_555 1_555
C15A C12A 1_555 1_555
H13A C15A 1_555 1_555
C16A N2A 1_555 1_555
H14A C16A 1_555 1_555
N4A Cu2A 1_555 1_555
N5A C34A 1_555 1_555
C24A N4A 1_555 1_555
H22A C24A 1_555 1_555
C25A C24A 1_555 1_555
H23A C25A 1_555 1_555
C26A C25A 1_555 1_555
C27A C26A 1_555 1_555
H24A C27A 1_555 1_555
C28A N4A 1_555 1_555
H25A C28A 1_555 1_555
C29A C26A 1_555 1_555
H26A C29A 1_555 1_555
H27A C29A 1_555 1_555
C30A C29A 1_555 1_555
H28A C30A 1_555 1_555
H29A C30A 1_555 1_555
C31A C30A 1_555 1_555
H30A C31A 1_555 1_555
H31A C31A 1_555 1_555
C32A C31A 1_555 1_555
C33A C32A 1_555 1_555
H32A C33A 1_555 1_555
C34A C33A 1_555 1_555
H33A C34A 1_555 1_555
C35A C32A 1_555 1_555
H34A C35A 1_555 1_555
C36A N5A 1_555 1_555
H35A C36A 1_555 1_555
Cu1_2 O4 1_555 1_555
Cu1A_2 O3 1_555 1_555
Cu1A_3 N3A 1_555 1_555
Cu1B N2 1_555 1_555
Cu1C N2A 1_555 1_555
O3_2 Cu1 1_555 1_555
O4_2 Cu1 1_555 1_555
O4A_2 Cu1A 1_555 1_555
N2B Cu1 1_555 1_555
N2C Cu1A 1_555 1_555
N3A_2 Cu1A 1_555 1_555
C1 O2 1_555 1_555
C2 O4 1_555 1_555
C3 O6 1_555 1_555
C3 O7 1_555 1_555
C7 C8 1_555 1_555
C15 C16 1_555 1_555
C20 C21 1_555 1_555
C27 C28 1_555 1_555
C35 C36 1_555 1_555
O4A Cu2A 1_555 1_555
O4A Cu1A_2 1_555 1_555
C19A C22A 1_555 1_555
C20A C21A 1_555 1_555
Cu1A O3_2 1_555 1_555
C3A O6A 1_555 1_555
C3A O7A 1_555 1_555
C7A C8A 1_555 1_555
C15A C16A 1_555 1_555
C27A C28A 1_555 1_555
C35A C36A 1_555 1_555

#END
