
#######################################################################
#
#                 Cambridge Crystallographic Data Centre
#                                CCDC 
#
#######################################################################
#
# If this CIF has been generated from an entry in the Cambridge 
# Structural Database, then it will include bibliographic, chemical, 
# crystal, experimental, refinement or atomic coordinate data resulting 
# from the CCDC's data processing and validation procedures.
#
#######################################################################

data_KORMOV
_symmetry_cell_setting           triclinic
_symmetry_space_group_name_H-M   'P -1'
_symmetry_Int_Tables_number      2
_space_group_name_Hall           '-P 1'
loop_
_symmetry_equiv_pos_site_id
_symmetry_equiv_pos_as_xyz
1 x,y,z
2 -x,-y,-z
_cell_length_a                   6.1210(5)
_cell_length_b                   10.7810(8)
_cell_length_c                   13.9870(10)
_cell_angle_alpha                98.901(6)
_cell_angle_beta                 96.715(6)
_cell_angle_gamma                103.861(7)
_cell_volume                     873.854
loop_
_atom_site_label
_atom_site_type_symbol
_atom_site_fract_x
_atom_site_fract_y
_atom_site_fract_z
Co1 Co 0.35132(8) 0.72333(4) 0.55691(4)
Co2 Co 0.59931(8) 0.52228(4) 0.61362(4)
C1 C 0.9062(6) 0.7779(3) 0.5845(3)
C2 C 0.9907(6) 0.9208(3) 0.6280(3)
C3 C 1.1729(6) 1.0011(3) 0.5991(3)
H1 H 1.2509 0.9675 0.5526
C4 C 1.2379(6) 1.1326(3) 0.6402(3)
C5 C 1.1271(7) 1.1818(4) 0.7111(3)
H2 H 1.1731 1.2699 0.7390
C6 C 0.9473(7) 1.1005(4) 0.7409(3)
C7 C 0.8757(7) 0.9708(4) 0.6983(3)
H3 H 0.7510 0.9168 0.7165
C8 C 1.4185(6) 1.2258(4) 0.6039(3)
C9 C 0.6646(8) 1.0784(5) 0.8469(3)
H4 H 0.6890 0.9935 0.8503
H5 H 0.5261 1.0668 0.8012
C10 C 0.6435(8) 1.1453(4) 0.9460(3)
C11 C 0.7923(9) 1.1411(5) 1.0249(3)
H6 H 0.9105 1.1024 1.0154
C12 C 0.7715(8) 1.1929(4) 1.1183(3)
H7 H 0.8727 1.1867 1.1712
C13 C 0.6026(7) 1.2537(4) 1.1341(3)
C14 C 0.4586(9) 1.2615(6) 1.0553(3)
H8 H 0.3463 1.3050 1.0645
C15 C 0.4761(9) 1.2058(6) 0.9615(4)
H9 H 0.3724 1.2097 0.9086
C16 C 0.5786(7) 1.3065(4) 1.2370(3)
O1 O 0.7176(4) 0.7184(2) 0.60347(19)
O2 O 1.0200(4) 0.7233(2) 0.53084(18)
O3 O 1.5169(5) 1.1785(2) 0.53855(19)
O4 O 1.4543(5) 1.3430(2) 0.6396(2)
O5 O 0.4877(5) 1.3972(3) 1.2529(2)
O6 O 0.6565(5) 1.2495(3) 1.3011(2)
O7 O 0.8533(6) 1.1576(3) 0.8149(2)
O8 O 0.3117(4) 0.5345(2) 0.52170(19)
H10 H 0.194(5) 0.473(3) 0.530(3)
O9 O 0.9126(6) 0.5174(3) 0.6915(3)
H11 H 1.039(5) 0.582(4) 0.698(4)
H12 H 0.916(10) 0.499(5) 0.7517(18)
Co1_2 Co 1.35132(8) 0.72333(4) 0.55691(4)
Co1A Co 0.64868(8) 1.27667(4) 1.44309(4)
Co1A_2 Co 1.64868(8) 1.27667(4) 0.44309(4)
Co2_2 Co 1.59931(8) 1.52228(4) 0.61362(4)
Co2A Co 0.40069(8) 0.47772(4) 0.38638(4)
Co2A_2 Co 0.40069(8) 1.47772(4) 1.38638(4)
O2_2 O 0.0200(4) 0.7233(2) 0.53084(18)
O3A O 0.4831(5) 0.8215(2) 0.46145(19)
O4_2 O 0.4543(5) 0.3430(2) 0.6396(2)
O5A O 0.5123(5) 0.6028(3) 0.7471(2)
O6A O 0.3435(5) 0.7505(3) 0.6989(2)
O8A O 0.6883(4) 0.4655(2) 0.47830(19)
O10 O 0.9303(14) 0.4425(5) 0.8751(5)
O11 O 0.559(3) 1.5500(10) 1.1071(9)
loop_
_geom_bond_atom_site_label_1
_geom_bond_atom_site_label_2
_geom_bond_site_symmetry_1
_geom_bond_site_symmetry_2
Co1 O1 1_555 1_555
Co2 O1 1_555 1_555
C1 C2 1_555 1_555
C2 C3 1_555 1_555
C3 H1 1_555 1_555
C4 C3 1_555 1_555
C5 C4 1_555 1_555
H2 C5 1_555 1_555
C6 C5 1_555 1_555
C7 C2 1_555 1_555
H3 C7 1_555 1_555
C8 C4 1_555 1_555
C9 H4 1_555 1_555
H5 C9 1_555 1_555
C10 C9 1_555 1_555
C11 C10 1_555 1_555
H6 C11 1_555 1_555
C12 C11 1_555 1_555
H7 C12 1_555 1_555
C13 C12 1_555 1_555
C14 C13 1_555 1_555
H8 C14 1_555 1_555
C15 C10 1_555 1_555
H9 C15 1_555 1_555
C16 C13 1_555 1_555
O1 C1 1_555 1_555
O2 C1 1_555 1_555
O3 C8 1_555 1_555
O4 C8 1_555 1_555
O5 C16 1_555 1_555
O6 C16 1_555 1_555
O7 C6 1_555 1_555
O8 Co1 1_555 1_555
H10 O8 1_555 1_555
O9 Co2 1_555 1_555
H11 O9 1_555 1_555
H12 O9 1_555 1_555
Co1_2 O2 1_555 1_555
Co1A O6 1_555 1_555
Co1A_2 O3 1_555 1_555
Co2_2 O4 1_555 1_555
Co2A O8 1_555 1_555
Co2A_2 O5 1_555 1_555
O2_2 Co1 1_555 1_555
O3A Co1 1_555 1_555
O4_2 Co2 1_555 1_555
O5A Co2 1_555 1_555
O6A Co1 1_555 1_555
O8A Co2 1_555 1_555
Co2 O8 1_555 1_555
C6 C7 1_555 1_555
C9 O7 1_555 1_555
C14 C15 1_555 1_555
Co2A O8A 1_555 1_555

#END
