
#######################################################################
#
#                 Cambridge Crystallographic Data Centre
#                                CCDC 
#
#######################################################################
#
# If this CIF has been generated from an entry in the Cambridge 
# Structural Database, then it will include bibliographic, chemical, 
# crystal, experimental, refinement or atomic coordinate data resulting 
# from the CCDC's data processing and validation procedures.
#
#######################################################################

data_KOSJOT
_symmetry_cell_setting           rhombohedral
_symmetry_space_group_name_H-M   'R 3 m'
_symmetry_Int_Tables_number      160
_space_group_name_Hall           'R 3 -2"'
loop_
_symmetry_equiv_pos_site_id
_symmetry_equiv_pos_as_xyz
1 x,y,z
2 -y,x-y,z
3 -x+y,-x,z
4 -x+y,y,z
5 -y,-x,z
6 x,x-y,z
7 1/3+x,2/3+y,2/3+z
8 1/3-y,2/3+x-y,2/3+z
9 1/3-x+y,2/3-x,2/3+z
10 1/3-x+y,2/3+y,2/3+z
11 1/3-y,2/3-x,2/3+z
12 1/3+x,2/3+x-y,2/3+z
13 2/3+x,1/3+y,1/3+z
14 2/3-y,1/3+x-y,1/3+z
15 2/3-x+y,1/3-x,1/3+z
16 2/3-x+y,1/3+y,1/3+z
17 2/3-y,1/3-x,1/3+z
18 2/3+x,1/3+x-y,1/3+z
_cell_length_a                   25.8826(10)
_cell_length_b                   25.8826
_cell_length_c                   6.8030(4)
_cell_angle_alpha                90
_cell_angle_beta                 90
_cell_angle_gamma                120
_cell_volume                     3946.82
loop_
_atom_site_label
_atom_site_type_symbol
_atom_site_fract_x
_atom_site_fract_y
_atom_site_fract_z
D1 D 0.2065(4) 0.2157(4) 0.0062(18)
D2 D 0.7777(8) 0.9466(6) 0.4262(26)
D3 D 0.5746(20) 0.149(4) 0.471(12)
C1 C 0.6567(6) 0.8755(5) -0.1645(22)
C2 C 0.6672(8) 0.8336(4) -0.2542(34)
C3 C 0.6414(6) 0.8680(5) 0.0453(23)
C4 C 0.6341(4) 0.9101(5) 0.1627(20)
H1 H 0.6775(19) 0.8387(9) -0.401(8)
O1 O 0.6732(5) 0.9279(5) -0.2526(23)
O2 O 0.6520(6) 0.9635(6) 0.0923(21)
O3 O 0.6119(6) 0.8957(6) 0.3360(22)
C5 C 0.6287(7) 0.8143(4) 0.1428(29)
H2 H 0.6210(15) 0.8105(8) 0.272(6)
Co1 Co 0.6273(11) 0.9552(18) -0.429(4)
C3E C 0.6414(6) 0.7734(8) 0.0453(23)
C4E C 0.6341(4) 0.7240(6) 0.1627(20)
O2E O 0.6520(6) 0.6885(8) 0.0923(21)
O3E O 0.6119(6) 0.7162(8) 0.3360(22)
C1E C 0.6567(6) 0.7812(8) -0.1645(22)
O1E O 0.6732(5) 0.7453(7) -0.2526(23)
Co1E Co 0.6273(11) 0.6721(21) -0.429(4)
O1H O 0.5880(7) 0.9935(5) -0.5859(23)
O1I O 0.5880(7) 0.5946(5) -0.5859(23)
O2H O 0.6448(8) 1.0147(6) -0.2410(21)
O2I O 0.6448(8) 0.6302(6) -0.2410(21)
O2M O 0.7032(6) 1.0218(8) -0.5744(21)
O2P O 0.7032(6) 0.6813(6) -0.5744(21)
O3_2 O 0.6119(6) 0.8957(6) -0.6640(22)
O3E_2 O 0.6119(6) 0.7162(8) -0.6640(22)
Co1_2 Co 0.6273(11) 0.9552(18) 0.571(4)
Co1E_2 Co 0.6273(11) 0.6721(21) 0.571(4)
Co1H Co 0.6612(21) 1.0394(11) -0.762(4)
Co1H_2 Co 0.6612(21) 1.0394(11) 0.238(4)
Co1I Co 0.6612(21) 0.6219(18) -0.762(4)
Co1I_2 Co 0.6612(21) 0.6219(18) 0.238(4)
Co1M Co 0.7115(18) 1.0054(21) -0.096(4)
Co1P Co 0.7115(18) 0.7060(11) -0.096(4)
loop_
_geom_bond_atom_site_label_1
_geom_bond_atom_site_label_2
_geom_bond_site_symmetry_1
_geom_bond_site_symmetry_2
C1 C2 1_555 1_555
C2 H1 1_555 1_555
C3 C1 1_555 1_555
C4 C3 1_555 1_555
O1 C1 1_555 1_555
O2 C4 1_555 1_555
O3 C4 1_555 1_555
C5 C3 1_555 1_555
H2 C5 1_555 1_555
Co1 O1 1_555 1_555
C3E C5 1_555 1_555
C4E C3E 1_555 1_555
O2E C4E 1_555 1_555
O3E C4E 1_555 1_555
C1E C2 1_555 1_555
O1E C1E 1_555 1_555
Co1E O1E 1_555 1_555
O1H Co1 1_555 1_555
O1I Co1E 1_555 1_555
O2H Co1 1_555 1_555
O2I Co1E 1_555 1_555
O2M Co1 1_555 1_555
O2P Co1E 1_555 1_555
O3_2 Co1 1_555 1_555
O3E_2 Co1E 1_555 1_555
Co1_2 O3 1_555 1_555
Co1E_2 O3E 1_555 1_555
Co1H Co1 1_555 1_555
Co1H_2 O2 1_555 1_555
Co1I Co1E 1_555 1_555
Co1I_2 O2E 1_555 1_555
Co1M O1 1_555 1_555
Co1P O2E 1_555 1_555
O2 Co1M 1_555 1_555
Co1 Co1M 1_555 1_555
C3E C1E 1_555 1_555
O1E Co1P 1_555 1_555
Co1E Co1P 1_555 1_555
O1H Co1H 1_555 1_555
O1I Co1I 1_555 1_555
O2H Co1M 1_555 1_555
O2I Co1P 1_555 1_555
O2M Co1H 1_555 1_555
O2P Co1I 1_555 1_555
Co1_2 Co1H_2 1_555 1_555
Co1E_2 Co1I_2 1_555 1_555
Co1H_2 Co1M 1_555 1_555
Co1I_2 Co1P 1_555 1_555

#END
