
#######################################################################
#
#                 Cambridge Crystallographic Data Centre
#                                CCDC 
#
#######################################################################
#
# If this CIF has been generated from an entry in the Cambridge 
# Structural Database, then it will include bibliographic, chemical, 
# crystal, experimental, refinement or atomic coordinate data resulting 
# from the CCDC's data processing and validation procedures.
#
#######################################################################

data_KOSKIO
_symmetry_cell_setting           rhombohedral
_symmetry_space_group_name_H-M   'R 3 m'
_symmetry_Int_Tables_number      160
_space_group_name_Hall           'R 3 -2"'
loop_
_symmetry_equiv_pos_site_id
_symmetry_equiv_pos_as_xyz
1 x,y,z
2 -y,x-y,z
3 -x+y,-x,z
4 -x+y,y,z
5 -y,-x,z
6 x,x-y,z
7 1/3+x,2/3+y,2/3+z
8 1/3-y,2/3+x-y,2/3+z
9 1/3-x+y,2/3-x,2/3+z
10 1/3-x+y,2/3+y,2/3+z
11 1/3-y,2/3-x,2/3+z
12 1/3+x,2/3+x-y,2/3+z
13 2/3+x,1/3+y,1/3+z
14 2/3-y,1/3+x-y,1/3+z
15 2/3-x+y,1/3-x,1/3+z
16 2/3-x+y,1/3+y,1/3+z
17 2/3-y,1/3-x,1/3+z
18 2/3+x,1/3+x-y,1/3+z
_cell_length_a                   25.8734(23)
_cell_length_b                   25.8734
_cell_length_c                   6.7677(9)
_cell_angle_alpha                90
_cell_angle_beta                 90
_cell_angle_gamma                120
_cell_volume                     3923.55
loop_
_atom_site_label
_atom_site_type_symbol
_atom_site_fract_x
_atom_site_fract_y
_atom_site_fract_z
C1 C 0.6577(10) 0.8783(11) -0.163(4)
C2 C 0.6653(13) 0.8327(7) -0.256(5)
C3 C 0.6391(10) 0.8661(8) 0.040(4)
C4 C 0.6322(8) 0.9088(8) 0.1632(29)
H1 H 0.6796(26) 0.8398(13) -0.412(10)
O1 O 0.6699(10) 0.9263(11) -0.252(4)
O2 O 0.6515(10) 0.9616(10) 0.0961(33)
O3 O 0.6098(11) 0.8912(10) 0.334(4)
C5 C 0.6281(13) 0.8141(6) 0.125(4)
H2 H 0.6173(23) 0.8086(12) 0.282(8)
Co1 Co 0.6244(23) 0.9526(37) -0.444(8)
C3E C 0.6391(10) 0.7730(13) 0.040(4)
C4E C 0.6322(8) 0.7234(11) 0.1632(29)
O2E O 0.6515(10) 0.6899(14) 0.0961(33)
O3E O 0.6098(11) 0.7186(15) 0.334(4)
C1E C 0.6577(10) 0.7794(15) -0.163(4)
O1E O 0.6699(10) 0.7436(15) -0.252(4)
Co1E Co 0.6244(23) 0.6718(44) -0.444(8)
O1H O 0.5897(15) 0.9968(10) -0.585(4)
O1I O 0.5897(15) 0.5930(11) -0.585(4)
O2H O 0.6434(14) 1.0152(10) -0.2372(33)
O2I O 0.6434(14) 0.6283(10) -0.2372(33)
O2M O 0.7051(10) 1.0232(14) -0.5706(33)
O2P O 0.7051(10) 0.6818(10) -0.5706(33)
O3_2 O 0.6098(11) 0.8912(10) -0.666(4)
O3E_2 O 0.6098(11) 0.7186(15) -0.666(4)
Co1_2 Co 0.6244(23) 0.9526(37) 0.556(8)
Co1E_2 Co 0.6244(23) 0.6718(44) 0.556(8)
Co1H Co 0.6615(44) 1.0423(23) -0.777(8)
Co1H_2 Co 0.6615(44) 1.0423(23) 0.223(8)
Co1I Co 0.6615(44) 0.6193(37) -0.777(8)
Co1I_2 Co 0.6615(44) 0.6193(37) 0.223(8)
Co1M Co 0.7141(37) 1.0051(44) -0.111(8)
Co1P Co 0.7141(37) 0.7089(23) -0.111(8)
loop_
_geom_bond_atom_site_label_1
_geom_bond_atom_site_label_2
_geom_bond_site_symmetry_1
_geom_bond_site_symmetry_2
C1 C2 1_555 1_555
C2 H1 1_555 1_555
C3 C1 1_555 1_555
C4 C3 1_555 1_555
O1 C1 1_555 1_555
O2 C4 1_555 1_555
O3 C4 1_555 1_555
C5 C3 1_555 1_555
H2 C5 1_555 1_555
Co1 O1 1_555 1_555
C3E C5 1_555 1_555
C4E C3E 1_555 1_555
O2E C4E 1_555 1_555
O3E C4E 1_555 1_555
C1E C2 1_555 1_555
O1E C1E 1_555 1_555
Co1E O1E 1_555 1_555
O1H Co1 1_555 1_555
O1I Co1E 1_555 1_555
O2H Co1 1_555 1_555
O2I Co1E 1_555 1_555
O2M Co1 1_555 1_555
O2P Co1E 1_555 1_555
O3_2 Co1 1_555 1_555
O3E_2 Co1E 1_555 1_555
Co1_2 O3 1_555 1_555
Co1E_2 O3E 1_555 1_555
Co1H Co1 1_555 1_555
Co1H_2 O2 1_555 1_555
Co1I Co1E 1_555 1_555
Co1I_2 O2E 1_555 1_555
Co1M O1 1_555 1_555
Co1P O2E 1_555 1_555
O2 Co1M 1_555 1_555
Co1 Co1M 1_555 1_555
C3E C1E 1_555 1_555
O1E Co1P 1_555 1_555
Co1E Co1P 1_555 1_555
O1H Co1H 1_555 1_555
O1I Co1I 1_555 1_555
O2H Co1M 1_555 1_555
O2I Co1P 1_555 1_555
O2M Co1H 1_555 1_555
O2P Co1I 1_555 1_555
Co1_2 Co1H_2 1_555 1_555
Co1E_2 Co1I_2 1_555 1_555
Co1H_2 Co1M 1_555 1_555
Co1I_2 Co1P 1_555 1_555

#END
