
#######################################################################
#
#                 Cambridge Crystallographic Data Centre
#                                CCDC 
#
#######################################################################
#
# If this CIF has been generated from an entry in the Cambridge 
# Structural Database, then it will include bibliographic, chemical, 
# crystal, experimental, refinement or atomic coordinate data resulting 
# from the CCDC's data processing and validation procedures.
#
#######################################################################

data_KOSLEL
_symmetry_cell_setting           rhombohedral
_symmetry_space_group_name_H-M   'R 3 m'
_symmetry_Int_Tables_number      160
_space_group_name_Hall           'R 3 -2"'
loop_
_symmetry_equiv_pos_site_id
_symmetry_equiv_pos_as_xyz
1 x,y,z
2 -y,x-y,z
3 -x+y,-x,z
4 -x+y,y,z
5 -y,-x,z
6 x,x-y,z
7 1/3+x,2/3+y,2/3+z
8 1/3-y,2/3+x-y,2/3+z
9 1/3-x+y,2/3-x,2/3+z
10 1/3-x+y,2/3+y,2/3+z
11 1/3-y,2/3-x,2/3+z
12 1/3+x,2/3+x-y,2/3+z
13 2/3+x,1/3+y,1/3+z
14 2/3-y,1/3+x-y,1/3+z
15 2/3-x+y,1/3-x,1/3+z
16 2/3-x+y,1/3+y,1/3+z
17 2/3-y,1/3-x,1/3+z
18 2/3+x,1/3+x-y,1/3+z
_cell_length_a                   25.749(4)
_cell_length_b                   25.749
_cell_length_c                   6.7390(12)
_cell_angle_alpha                90
_cell_angle_beta                 90
_cell_angle_gamma                120
_cell_volume                     3869.43
loop_
_atom_site_label
_atom_site_type_symbol
_atom_site_fract_x
_atom_site_fract_y
_atom_site_fract_z
D1 D 0.5428(9) 0.8854(10) -0.3153(35)
Ni1 Ni 0.6280(8) 0.9542(11) -0.4366(21)
O1 O 0.6731(11) 0.9290(11) -0.241(4)
O2 O 0.6539(11) 0.9646(20) 0.100(5)
O3 O 0.6098(17) 0.8925(15) 0.357(5)
C1 C 0.6577(13) 0.8746(12) -0.164(5)
C2 C 0.6678(17) 0.8339(8) -0.252(7)
C3 C 0.6473(12) 0.8691(14) 0.054(5)
C4 C 0.6345(13) 0.9118(11) 0.172(4)
H1 H 0.6711(31) 0.8355(15) -0.387(9)
C5 C 0.6296(16) 0.8148(8) 0.135(5)
H2 H 0.6243(24) 0.8121(12) 0.268(10)
O1E O 0.6731(11) 0.7441(16) -0.241(4)
C1E C 0.6577(13) 0.7831(18) -0.164(5)
C3E C 0.6473(12) 0.7782(18) 0.054(5)
C4E C 0.6345(13) 0.7227(17) 0.172(4)
O2E O 0.6539(11) 0.6893(23) 0.100(5)
O3E O 0.6098(17) 0.7173(23) 0.357(5)
Ni1E Ni 0.6280(8) 0.6738(14) -0.4366(21)
Ni1_2 Ni 0.6280(8) 0.9542(11) 0.5634(21)
Ni1E_2 Ni 0.6280(8) 0.6738(14) 0.5634(21)
Ni1H Ni 0.6595(14) 1.0387(8) -0.7699(21)
Ni1H_2 Ni 0.6595(14) 1.0387(8) 0.2301(21)
Ni1I Ni 0.6595(14) 0.6209(11) -0.7699(21)
Ni1I_2 Ni 0.6595(14) 0.6209(11) 0.2301(21)
Ni1M Ni 0.7125(11) 1.0071(14) -0.1033(21)
Ni1P Ni 0.7125(11) 0.7053(8) -0.1033(21)
O1H O 0.5892(16) 0.9936(11) -0.574(4)
O1I O 0.5892(16) 0.5957(11) -0.574(4)
O2H O 0.6440(23) 1.0128(11) -0.233(5)
O2I O 0.6440(23) 0.6313(20) -0.233(5)
O2M O 0.7021(20) 1.0226(23) -0.567(5)
O2P O 0.7021(20) 0.6794(11) -0.567(5)
O3_2 O 0.6098(17) 0.8925(15) -0.643(5)
O3E_2 O 0.6098(17) 0.7173(23) -0.643(5)
loop_
_geom_bond_atom_site_label_1
_geom_bond_atom_site_label_2
_geom_bond_site_symmetry_1
_geom_bond_site_symmetry_2
Ni1 O1 1_555 1_555
O1 C1 1_555 1_555
O2 C4 1_555 1_555
O3 C4 1_555 1_555
C1 C2 1_555 1_555
C2 H1 1_555 1_555
C3 C1 1_555 1_555
C4 C3 1_555 1_555
C5 C3 1_555 1_555
H2 C5 1_555 1_555
O1E C1E 1_555 1_555
C1E C2 1_555 1_555
C3E C5 1_555 1_555
C4E C3E 1_555 1_555
O2E C4E 1_555 1_555
O3E C4E 1_555 1_555
Ni1E O1E 1_555 1_555
Ni1_2 O3 1_555 1_555
Ni1E_2 O3E 1_555 1_555
Ni1H Ni1 1_555 1_555
Ni1H_2 O2 1_555 1_555
Ni1I Ni1E 1_555 1_555
Ni1I_2 O2E 1_555 1_555
Ni1M Ni1 1_555 1_555
Ni1P O1E 1_555 1_555
O1H Ni1 1_555 1_555
O1I Ni1E 1_555 1_555
O2H Ni1 1_555 1_555
O2I Ni1E 1_555 1_555
O2M Ni1 1_555 1_555
O2P Ni1E 1_555 1_555
O3_2 Ni1 1_555 1_555
O3E_2 Ni1E 1_555 1_555
O1 Ni1M 1_555 1_555
O2 Ni1M 1_555 1_555
C1E C3E 1_555 1_555
O2E Ni1P 1_555 1_555
Ni1E Ni1P 1_555 1_555
Ni1_2 Ni1H_2 1_555 1_555
Ni1E_2 Ni1I_2 1_555 1_555
Ni1H O1H 1_555 1_555
Ni1H O2M 1_555 1_555
Ni1H_2 Ni1M 1_555 1_555
Ni1I O1I 1_555 1_555
Ni1I O2P 1_555 1_555
Ni1I_2 Ni1P 1_555 1_555
Ni1M O2H 1_555 1_555
Ni1P O2I 1_555 1_555

#END
