
#######################################################################
#
#                 Cambridge Crystallographic Data Centre
#                                CCDC 
#
#######################################################################
#
# If this CIF has been generated from an entry in the Cambridge 
# Structural Database, then it will include bibliographic, chemical, 
# crystal, experimental, refinement or atomic coordinate data resulting 
# from the CCDC's data processing and validation procedures.
#
#######################################################################

data_KOXFUA
_symmetry_cell_setting           monoclinic
_symmetry_space_group_name_H-M   'C 2/c'
_symmetry_Int_Tables_number      15
_space_group_name_Hall           '-C 2yn'
loop_
_symmetry_equiv_pos_site_id
_symmetry_equiv_pos_as_xyz
1 x,y,z
2 -x,y,1/2-z
3 1/2+x,1/2+y,z
4 1/2-x,1/2+y,1/2-z
5 -x,-y,-z
6 x,-y,1/2+z
7 1/2-x,1/2-y,-z
8 1/2+x,1/2-y,1/2+z
_cell_length_a                   18.369(4)
_cell_length_b                   17.305(4)
_cell_length_c                   28.133(6)
_cell_angle_alpha                90
_cell_angle_beta                 91.083(6)
_cell_angle_gamma                90
_cell_volume                     8941.2
loop_
_atom_site_label
_atom_site_type_symbol
_atom_site_fract_x
_atom_site_fract_y
_atom_site_fract_z
Cd1 Cd 0.440296(17) -0.26239(2) 0.524422(11)
Cl1 Cl 0.54095(6) -0.37301(7) 0.53146(4)
Cl2 Cl 0.34791(6) -0.14990(7) 0.51819(4)
O1 O 0.58714(15) -0.10575(18) 0.30385(10)
O2 O 0.77485(16) 0.08448(18) 0.29757(10)
O3 O 0.76135(17) -0.11453(19) 0.24634(11)
O4 O 0.58901(15) 0.09099(18) 0.25017(10)
N1 N 0.5113(2) -0.1944(2) 0.46946(13)
N2 N 0.8870(2) 0.1651(2) 0.46217(12)
N3 N 0.8667(2) -0.1788(2) 0.08055(13)
N4 N 0.50631(19) 0.1981(2) 0.08476(13)
C1 C 0.4759(2) 0.1600(3) 0.11997(15)
H1 H 0.4259 0.1643 0.1235
C2 C 0.5144(2) 0.1141(3) 0.15176(15)
H2 H 0.4906 0.0899 0.1766
C3 C 0.5898(2) 0.1045(3) 0.14626(15)
C4 C 0.5788(2) 0.1919(3) 0.08047(16)
H3 H 0.6013 0.2202 0.0568
C5 C 0.6211(2) 0.1460(3) 0.10923(16)
H4 H 0.6709 0.1424 0.1042
C6 C 0.5179(3) -0.1180(3) 0.47479(17)
H5 H 0.4930 -0.0941 0.4992
C7 C 0.5602(3) -0.0729(3) 0.44546(17)
H6 H 0.5655 -0.0203 0.4513
C8 C 0.5944(2) -0.1068(3) 0.40770(15)
C9 C 0.5864(3) -0.1860(3) 0.40172(16)
H7 H 0.6084 -0.2110 0.3765
C10 C 0.5458(3) -0.2272(3) 0.43346(16)
H8 H 0.5422 -0.2804 0.4296
C11 C 0.6409(2) -0.0582(3) 0.37710(15)
C12 C 0.6929(2) -0.0115(3) 0.39933(15)
H9 H 0.6968 -0.0117 0.4323
C13 C 0.7395(2) 0.0357(3) 0.37364(15)
C14 C 0.7328(2) 0.0362(3) 0.32426(15)
C15 C 0.6359(2) -0.0580(3) 0.32777(15)
C16 C 0.6807(2) -0.0114(3) 0.30097(14)
C17 C 0.5115(3) -0.0837(3) 0.30876(18)
H10 H 0.5006 -0.0789 0.3419
H11 H 0.4808 -0.1224 0.2945
H12 H 0.5032 -0.0350 0.2932
C18 C 0.8477(2) 0.0551(3) 0.29053(18)
H13 H 0.8718 0.0482 0.3208
H14 H 0.8747 0.0912 0.2719
H15 H 0.8450 0.0064 0.2743
C19 C 0.7943(2) 0.0818(3) 0.40128(15)
C20 C 0.8364(2) 0.0453(3) 0.43649(16)
H16 H 0.8340 -0.0080 0.4403
C21 C 0.8814(3) 0.0885(3) 0.46537(17)
H17 H 0.9095 0.0631 0.4884
C22 C 0.8482(2) 0.2002(3) 0.42749(15)
H18 H 0.8524 0.2535 0.4243
C23 C 0.8024(2) 0.1608(3) 0.39616(15)
H19 H 0.7775 0.1871 0.3721
C24 C 0.6771(2) -0.0102(2) 0.24813(14)
C25 C 0.7199(2) -0.0601(3) 0.22193(15)
C26 C 0.7233(2) -0.0548(3) 0.17242(15)
C27 C 0.6799(2) 0.0006(3) 0.14973(15)
H20 H 0.6816 0.0048 0.1168
C28 C 0.6342(2) 0.0498(3) 0.17450(15)
C29 C 0.6340(2) 0.0445(3) 0.22383(14)
C30 C 0.6126(3) 0.1691(3) 0.25511(17)
H21 H 0.6575 0.1706 0.2731
H22 H 0.5763 0.1984 0.2713
H23 H 0.6200 0.1910 0.2242
C31 C 0.7281(3) -0.1904(3) 0.2464(2)
H24 H 0.6805 -0.1871 0.2597
H25 H 0.7577 -0.2251 0.2651
H26 H 0.7242 -0.2093 0.2144
C32 C 0.7725(2) -0.1022(3) 0.14277(15)
C33 C 0.8442(3) -0.1204(3) 0.15663(16)
H27 H 0.8617 -0.1078 0.1869
C34 C 0.8883(2) -0.1573(3) 0.12465(16)
H28 H 0.9361 -0.1680 0.1341
C35 C 0.7972(2) -0.1641(3) 0.06825(16)
H29 H 0.7802 -0.1806 0.0386
C36 C 0.7497(2) -0.1257(3) 0.09741(15)
H30 H 0.7024 -0.1154 0.0868
Cd1B Cd 0.940296(17) 0.23761(2) 0.524422(11)
Cd1E Cd 0.440296(17) 0.26239(2) 0.024422(11)
Cd1G Cd 0.940296(17) -0.23761(2) 0.024422(11)
N2B N 0.3870(2) -0.3349(2) 0.46217(12)
N3G N 0.3667(2) -0.3212(2) 0.58055(13)
N4E N 0.50631(19) -0.1981(2) 0.58476(13)
O5 O 0.6863(8) 0.0161(7) 0.0303(4)
O6 O 1.2024(7) 0.1319(8) 0.4139(4)
N5 N 1.0998(5) 0.0812(5) 0.3843(3)
C37 C 1.1137(7) 0.1018(9) 0.3350(3)
H31 H 1.1604 0.1265 0.3332
H32 H 1.0766 0.1366 0.3237
H33 H 1.1133 0.0560 0.3158
C38 C 1.0318(6) 0.0426(8) 0.3960(5)
H34 H 1.0311 0.0323 0.4295
H35 H 1.0281 -0.0052 0.3788
H36 H 0.9914 0.0753 0.3873
C39 C 1.1463(7) 0.0959(8) 0.4196(4)
H37 H 1.1357 0.0781 0.4499
O7 O 1.3330(6) 0.3505(9) 0.3610(5)
H38 H 1.3086 0.3798 0.3442
C40 C 1.4066(5) 0.3763(7) 0.3626(4)
H39 H 1.4083 0.4303 0.3550
H40 H 1.4343 0.3477 0.3400
H41 H 1.4267 0.3681 0.3940
O8 O 1.2397(14) 0.1796(14) 0.5226(8)
H42 H 1.2822 0.1667 0.5274
C41 C 1.2041(12) 0.1232(13) 0.4942(8)
H43 H 1.2160 0.0726 0.5059
H44 H 1.2197 0.1279 0.4619
H45 H 1.1524 0.1309 0.4953
O9? O 1.0359(5) 0.0446(6) 0.2916(3)
N6? N 1.0820(5) 0.0548(5) 0.3671(3)
C42? C 1.0804(7) 0.0273(7) 0.4162(3)
H46? H 1.0401 -0.0073 0.4198
H47? H 1.0753 0.0706 0.4372
H48? H 1.1250 0.0006 0.4237
C43? C 1.1392(5) 0.1092(7) 0.3533(3)
H49? H 1.1333 0.1217 0.3202
H50? H 1.1861 0.0859 0.3587
H51? H 1.1356 0.1554 0.3720
C44? C 1.0357(6) 0.0262(7) 0.3332(3)
H52? H 1.0015 -0.0101 0.3426
O10? O 1.232(2) 0.1499(16) 0.4990(13)
H53? H 1.2180 0.1228 0.4768
C45? C 1.2469(12) 0.2263(13) 0.4821(8)
H54? H 1.2050 0.2584 0.4866
H55? H 1.2578 0.2242 0.4489
H56? H 1.2878 0.2474 0.4994
O11? O 1.4232(5) 0.4039(6) 0.3601(3)
H57? H 1.4578 0.3756 0.3665
C46? C 1.3626(7) 0.3589(9) 0.3476(5)
H58? H 1.3264 0.3635 0.3716
H59? H 1.3770 0.3059 0.3447
H60? H 1.3426 0.3766 0.3177
O12? O 1.4860(7) 0.3168(8) 0.2884(5)
H61? H 1.5222 0.3038 0.2738
C47? C 1.487(3) 0.3992(10) 0.2953(15)
H62? H 1.5199 0.4118 0.3211
H63? H 1.4389 0.4168 0.3027
H64? H 1.5028 0.4241 0.2668
O13? O 1.5097(6) 0.4443(6) 0.2797(4)
H65? H 1.4893 0.4558 0.3044
C48? C 1.4968(19) 0.3641(9) 0.2692(9)
H66? H 1.4541 0.3594 0.2492
H67? H 1.4897 0.3363 0.2982
H68? H 1.5379 0.3431 0.2531
loop_
_geom_bond_atom_site_label_1
_geom_bond_atom_site_label_2
_geom_bond_site_symmetry_1
_geom_bond_site_symmetry_2
Cd1 Cl1 1_555 1_555
Cl2 Cd1 1_555 1_555
O1 C15 1_555 1_555
O2 C14 1_555 1_555
O3 C25 1_555 1_555
O4 C29 1_555 1_555
N1 Cd1 1_555 1_555
N2 C21 1_555 1_555
N3 C34 1_555 1_555
N4 C1 1_555 1_555
C1 H1 1_555 1_555
C2 C1 1_555 1_555
H2 C2 1_555 1_555
C3 C2 1_555 1_555
C4 N4 1_555 1_555
H3 C4 1_555 1_555
C5 C3 1_555 1_555
H4 C5 1_555 1_555
C6 N1 1_555 1_555
H5 C6 1_555 1_555
C7 C6 1_555 1_555
H6 C7 1_555 1_555
C8 C7 1_555 1_555
C9 C8 1_555 1_555
H7 C9 1_555 1_555
C10 N1 1_555 1_555
H8 C10 1_555 1_555
C11 C8 1_555 1_555
C12 C11 1_555 1_555
H9 C12 1_555 1_555
C13 C12 1_555 1_555
C14 C13 1_555 1_555
C15 C11 1_555 1_555
C16 C14 1_555 1_555
C17 O1 1_555 1_555
H10 C17 1_555 1_555
H11 C17 1_555 1_555
H12 C17 1_555 1_555
C18 O2 1_555 1_555
H13 C18 1_555 1_555
H14 C18 1_555 1_555
H15 C18 1_555 1_555
C19 C13 1_555 1_555
C20 C19 1_555 1_555
H16 C20 1_555 1_555
C21 C20 1_555 1_555
H17 C21 1_555 1_555
C22 N2 1_555 1_555
H18 C22 1_555 1_555
C23 C19 1_555 1_555
H19 C23 1_555 1_555
C24 C16 1_555 1_555
C25 C24 1_555 1_555
C26 C25 1_555 1_555
C27 C26 1_555 1_555
H20 C27 1_555 1_555
C28 C3 1_555 1_555
C29 C24 1_555 1_555
C30 O4 1_555 1_555
H21 C30 1_555 1_555
H22 C30 1_555 1_555
H23 C30 1_555 1_555
C31 O3 1_555 1_555
H24 C31 1_555 1_555
H25 C31 1_555 1_555
H26 C31 1_555 1_555
C32 C26 1_555 1_555
C33 C32 1_555 1_555
H27 C33 1_555 1_555
C34 C33 1_555 1_555
H28 C34 1_555 1_555
C35 N3 1_555 1_555
H29 C35 1_555 1_555
C36 C32 1_555 1_555
H30 C36 1_555 1_555
O6 C39 1_555 1_555
N5 C37 1_555 1_555
C37 H31 1_555 1_555
H32 C37 1_555 1_555
H33 C37 1_555 1_555
C38 N5 1_555 1_555
H34 C38 1_555 1_555
H35 C38 1_555 1_555
H36 C38 1_555 1_555
C39 N5 1_555 1_555
H37 C39 1_555 1_555
O7 H38 1_555 1_555
C40 O7 1_555 1_555
H39 C40 1_555 1_555
H40 C40 1_555 1_555
H41 C40 1_555 1_555
O8 H42 1_555 1_555
C41 O8 1_555 1_555
H43 C41 1_555 1_555
H44 C41 1_555 1_555
H45 C41 1_555 1_555
Cd1B N2 1_555 1_555
Cd1E N4 1_555 1_555
Cd1G N3 1_555 1_555
N2B Cd1 1_555 1_555
N3G Cd1 1_555 1_555
N4E Cd1 1_555 1_555
C4 C5 1_555 1_555
C9 C10 1_555 1_555
C15 C16 1_555 1_555
C22 C23 1_555 1_555
C27 C28 1_555 1_555
C28 C29 1_555 1_555
C35 C36 1_555 1_555

#END
