
#######################################################################
#
#                 Cambridge Crystallographic Data Centre
#                                CCDC 
#
#######################################################################
#
# If this CIF has been generated from an entry in the Cambridge 
# Structural Database, then it will include bibliographic, chemical, 
# crystal, experimental, refinement or atomic coordinate data resulting 
# from the CCDC's data processing and validation procedures.
#
#######################################################################

data_KOZSID
_symmetry_cell_setting           rhombohedral
_symmetry_space_group_name_H-M   'R -3'
_symmetry_Int_Tables_number      148
_space_group_name_Hall           '-R 3'
loop_
_symmetry_equiv_pos_site_id
_symmetry_equiv_pos_as_xyz
1 x,y,z
2 -y,x-y,z
3 -x+y,-x,z
4 2/3+x,1/3+y,1/3+z
5 2/3-y,1/3+x-y,1/3+z
6 2/3-x+y,1/3-x,1/3+z
7 1/3+x,2/3+y,2/3+z
8 1/3-y,2/3+x-y,2/3+z
9 1/3-x+y,2/3-x,2/3+z
10 -x,-y,-z
11 y,-x+y,-z
12 x-y,x,-z
13 1/3-x,2/3-y,2/3-z
14 1/3+y,2/3-x+y,2/3-z
15 1/3+x-y,2/3+x,2/3-z
16 2/3-x,1/3-y,1/3-z
17 2/3+y,1/3-x+y,1/3-z
18 2/3+x-y,1/3+x,1/3-z
_cell_length_a                   32.721(5)
_cell_length_b                   32.721(5)
_cell_length_c                   9.3160(19)
_cell_angle_alpha                90
_cell_angle_beta                 90
_cell_angle_gamma                120
_cell_volume                     8638
loop_
_atom_site_label
_atom_site_type_symbol
_atom_site_fract_x
_atom_site_fract_y
_atom_site_fract_z
Co1 Co 0.5000 1.0000 1.0000
N1 N 0.53316(7) 0.99786(7) 0.8212(2)
N2 N 0.44174(6) 0.94325(6) 0.9291(2)
N3 N 0.24045(10) 0.86321(7) 1.2382(2)
C1 C 0.58079(8) 1.02505(9) 0.7948(3)
C2 C 0.59308(9) 1.00873(10) 0.6668(3)
H1 H 0.6237 1.0215 0.6259
C3 C 0.55316(9) 0.97208(10) 0.6167(3)
H2 H 0.5501 0.9541 0.5332
C4 C 0.51575(8) 0.96502(8) 0.7128(3)
C5 C 0.46936(8) 0.92796(8) 0.7006(3)
C6 C 0.43496(8) 0.91847(8) 0.8036(3)
C7 C 0.38605(9) 0.88202(9) 0.7897(3)
H3 H 0.3725 0.8600 0.7134
C8 C 0.36346(9) 0.88532(9) 0.9050(3)
H4 H 0.3308 0.8661 0.9254
C9 C 0.39767(8) 0.92327(8) 0.9925(3)
C10 C 0.38685(8) 0.93837(9) 1.1192(3)
C11 C 0.33615(8) 0.91301(9) 1.1633(3)
C12 C 0.31991(9) 0.87996(10) 1.2729(3)
H5 H 0.3412 0.8737 1.3247
C13 C 0.27236(13) 0.85627(9) 1.3057(3)
H6 H 0.2618 0.8336 1.3810
C14 C 0.25642(13) 0.89519(10) 1.1334(3)
H7 H 0.2344 0.9008 1.0838
C15 C 0.30325(9) 0.92068(10) 1.0925(3)
H8 H 0.3128 0.9431 1.0169
C16 C 0.45581(8) 0.89620(9) 0.5719(3)
C17 C 0.44225(10) 0.84905(10) 0.5856(3)
H9 H 0.4419 0.8365 0.6778
C18 C 0.42905(11) 0.81956(11) 0.4652(4)
H10 H 0.4200 0.7873 0.4767
C19 C 0.42897(10) 0.83682(11) 0.3297(3)
C20 C 0.44251(10) 0.88404(11) 0.3167(3)
H11 H 0.4426 0.8965 0.2245
C21 C 0.45592(9) 0.91348(10) 0.4350(3)
H12 H 0.4653 0.9458 0.4229
C22 C 0.41604(15) 0.80554(15) 0.1974(4)
H13 H 0.4033 0.8174 0.1235
H14 H 0.3922 0.7732 0.2230
H15 H 0.4442 0.8059 0.1605
N1I N 0.46684(7) 1.00214(7) 1.1788(2)
N2I N 0.55826(6) 1.05675(6) 1.0709(2)
C1I C 0.41921(8) 0.97495(9) 1.2052(3)
C2I C 0.40692(9) 0.99127(10) 1.3332(3)
H1I H 0.3763 0.9785 1.3741
C3I C 0.44684(9) 1.02792(10) 1.3833(3)
H2I H 0.4499 1.0459 1.4668
C4I C 0.48425(8) 1.03498(8) 1.2872(3)
C5I C 0.53064(8) 1.07204(8) 1.2994(3)
C6I C 0.56504(8) 1.08153(8) 1.1964(3)
C7I C 0.61395(9) 1.11798(9) 1.2103(3)
H3I H 0.6275 1.1400 1.2866
C8I C 0.63654(9) 1.11468(9) 1.0950(3)
H4I H 0.6692 1.1339 1.0746
C9I C 0.60233(8) 1.07673(8) 1.0075(3)
C10I C 0.61315(8) 1.06163(9) 0.8808(3)
C11I C 0.66385(8) 1.08699(9) 0.8367(3)
C12I C 0.68009(9) 1.12004(10) 0.7271(3)
H5I H 0.6588 1.1263 0.6753
C15I C 0.69675(9) 1.07932(10) 0.9075(3)
H8I H 0.6872 1.0569 0.9831
C16I C 0.54419(8) 1.10380(9) 1.4281(3)
C17I C 0.55775(10) 1.15095(10) 1.4144(3)
H9I H 0.5581 1.1635 1.3222
C18I C 0.57095(11) 1.18044(11) 1.5348(4)
H10I H 0.5800 1.2127 1.5233
C19I C 0.57103(10) 1.16318(11) 1.6703(3)
C20I C 0.55749(10) 1.11596(11) 1.6833(3)
H11I H 0.5574 1.1035 1.7755
C21I C 0.54408(9) 1.08652(10) 1.5650(3)
H12I H 0.5347 1.0542 1.5771
C22I C 0.58396(15) 1.19446(15) 1.8026(4)
H13I H 0.5967 1.1826 1.8765
H14I H 0.6078 1.2268 1.7770
H15I H 0.5558 1.1941 1.8395
N3I N 0.75955(10) 1.13679(7) 0.7618(2)
C13I C 0.72764(13) 1.14373(9) 0.6943(3)
H6I H 0.7382 1.1664 0.6190
C14I C 0.74358(13) 1.10481(10) 0.8666(3)
H7I H 0.7656 1.0992 0.9162
Co1E Co 0.1667 0.8333 1.3333
Co1H Co 0.8333 1.1667 0.6667
N3G N 0.47012(7) 1.04391(12) 0.9049(2)
N3P N 0.52988(7) 0.95609(12) 1.0951(2)
C23 C 0.3333 0.6667 0.6667
O1 O 0.3333 0.6667 0.5420(2)
O1O O 0.3334 0.6666 0.7913(2)
loop_
_geom_bond_atom_site_label_1
_geom_bond_atom_site_label_2
_geom_bond_site_symmetry_1
_geom_bond_site_symmetry_2
Co1 N1 1_555 1_555
N1 C1 1_555 1_555
N2 Co1 1_555 1_555
N3 C13 1_555 1_555
C1 C2 1_555 1_555
C2 H1 1_555 1_555
C3 C2 1_555 1_555
H2 C3 1_555 1_555
C4 N1 1_555 1_555
C5 C4 1_555 1_555
C6 N2 1_555 1_555
C7 C6 1_555 1_555
H3 C7 1_555 1_555
C8 C7 1_555 1_555
H4 C8 1_555 1_555
C9 N2 1_555 1_555
C10 C9 1_555 1_555
C11 C10 1_555 1_555
C12 C11 1_555 1_555
H5 C12 1_555 1_555
C13 C12 1_555 1_555
H6 C13 1_555 1_555
C14 N3 1_555 1_555
H7 C14 1_555 1_555
C15 C11 1_555 1_555
H8 C15 1_555 1_555
C16 C5 1_555 1_555
C17 C16 1_555 1_555
H9 C17 1_555 1_555
C18 C17 1_555 1_555
H10 C18 1_555 1_555
C19 C18 1_555 1_555
C20 C19 1_555 1_555
H11 C20 1_555 1_555
C21 C16 1_555 1_555
H12 C21 1_555 1_555
C22 C19 1_555 1_555
H13 C22 1_555 1_555
H14 C22 1_555 1_555
H15 C22 1_555 1_555
C23 O1 1_555 1_555
N1I Co1 1_555 1_555
N2I Co1 1_555 1_555
C1I C10 1_555 1_555
C2I C1I 1_555 1_555
H1I C2I 1_555 1_555
C3I C2I 1_555 1_555
H2I C3I 1_555 1_555
C4I N1I 1_555 1_555
C5I C4I 1_555 1_555
C6I N2I 1_555 1_555
C7I C6I 1_555 1_555
H3I C7I 1_555 1_555
C8I C7I 1_555 1_555
H4I C8I 1_555 1_555
C9I N2I 1_555 1_555
C10I C1 1_555 1_555
C11I C10I 1_555 1_555
C12I C11I 1_555 1_555
H5I C12I 1_555 1_555
C15I C11I 1_555 1_555
H8I C15I 1_555 1_555
C16I C5I 1_555 1_555
C17I C16I 1_555 1_555
H9I C17I 1_555 1_555
C18I C17I 1_555 1_555
H10I C18I 1_555 1_555
C19I C18I 1_555 1_555
C20I C19I 1_555 1_555
H11I C20I 1_555 1_555
C21I C16I 1_555 1_555
H12I C21I 1_555 1_555
C22I C19I 1_555 1_555
H13I C22I 1_555 1_555
H14I C22I 1_555 1_555
H15I C22I 1_555 1_555
N3I C13I 1_555 1_555
C13I C12I 1_555 1_555
H6I C13I 1_555 1_555
C14I C15I 1_555 1_555
H7I C14I 1_555 1_555
Co1E N3 1_555 1_555
Co1H N3I 1_555 1_555
N3G Co1 1_555 1_555
N3P Co1 1_555 1_555
O1O C23 1_555 1_555
C3 C4 1_555 1_555
C5 C6 1_555 1_555
C8 C9 1_555 1_555
C14 C15 1_555 1_555
C20 C21 1_555 1_555
N1I C1I 1_555 1_555
C3I C4I 1_555 1_555
C5I C6I 1_555 1_555
C8I C9I 1_555 1_555
C9I C10I 1_555 1_555
C20I C21I 1_555 1_555
N3I C14I 1_555 1_555

#END
