
#######################################################################
#
#                 Cambridge Crystallographic Data Centre
#                                CCDC 
#
#######################################################################
#
# If this CIF has been generated from an entry in the Cambridge 
# Structural Database, then it will include bibliographic, chemical, 
# crystal, experimental, refinement or atomic coordinate data resulting 
# from the CCDC's data processing and validation procedures.
#
#######################################################################

data_KOZSEZ
_symmetry_cell_setting           rhombohedral
_symmetry_space_group_name_H-M   'R -3'
_symmetry_Int_Tables_number      148
_space_group_name_Hall           '-R 3'
loop_
_symmetry_equiv_pos_site_id
_symmetry_equiv_pos_as_xyz
1 x,y,z
2 -y,x-y,z
3 -x+y,-x,z
4 2/3+x,1/3+y,1/3+z
5 2/3-y,1/3+x-y,1/3+z
6 2/3-x+y,1/3-x,1/3+z
7 1/3+x,2/3+y,2/3+z
8 1/3-y,2/3+x-y,2/3+z
9 1/3-x+y,2/3-x,2/3+z
10 -x,-y,-z
11 y,-x+y,-z
12 x-y,x,-z
13 1/3-x,2/3-y,2/3-z
14 1/3+y,2/3-x+y,2/3-z
15 1/3+x-y,2/3+x,2/3-z
16 2/3-x,1/3-y,1/3-z
17 2/3+y,1/3-x+y,1/3-z
18 2/3+x-y,1/3+x,1/3-z
_cell_length_a                   32.9136(15)
_cell_length_b                   32.9136(15)
_cell_length_c                   9.2886(5)
_cell_angle_alpha                90
_cell_angle_beta                 90
_cell_angle_gamma                120
_cell_volume                     8714.28
loop_
_atom_site_label
_atom_site_type_symbol
_atom_site_fract_x
_atom_site_fract_y
_atom_site_fract_z
Zn1 Zn 0.5000 0.0000 0.0000
N1 N 0.49917(5) 0.05897(5) 0.07195(14)
N2 N 0.53442(5) 0.00111(5) 0.18889(14)
N3 N 0.62322(5) -0.13443(7) 0.24223(15)
C1 C 0.47470(6) 0.07750(6) 0.00794(17)
C2 C 0.47737(6) 0.11489(6) 0.09648(18)
H1 H 0.4639 0.1339 0.0756
C3 C 0.50266(6) 0.11773(6) 0.21459(19)
H2 H 0.5102 0.1390 0.2925
C4 C 0.51608(6) 0.08215(6) 0.19993(17)
C5 C 0.54092(6) 0.07198(6) 0.30359(17)
C6 C 0.55049(6) 0.03478(6) 0.29424(17)
C7 C 0.58156(6) 0.02828(6) 0.38907(19)
H3 H 0.5970 0.0465 0.4718
C8 C 0.58459(6) -0.00850(6) 0.33815(19)
H4 H 0.6027 -0.0210 0.3780
C9 C 0.55515(6) -0.02542(6) 0.21138(17)
C10 C 0.55051(6) -0.06185(6) 0.12199(18)
C11 C 0.55902(6) 0.10334(6) 0.43211(18)
C12 C 0.54334(6) 0.08565(6) 0.57014(18)
H5 H 0.5214 0.0532 0.5826
C13 C 0.55945(6) 0.11495(7) 0.68951(19)
H6 H 0.5480 0.1023 0.7824
C14 C 0.59193(7) 0.16243(7) 0.6758(2)
C15 C 0.60774(7) 0.17987(7) 0.5385(2)
H7 H 0.6300 0.2122 0.5267
C16 C 0.59164(6) 0.15103(6) 0.4184(2)
H8 H 0.6030 0.1639 0.3256
C17 C 0.61014(9) 0.19324(8) 0.8080(2)
H9 H 0.5853 0.1822 0.8807
H10 H 0.6200 0.2257 0.7818
H11 H 0.6370 0.1918 0.8472
C18 C 0.57621(6) -0.08648(8) 0.16614(18)
C19 C 0.56019(6) -0.11883(8) 0.27794(19)
H12 H 0.5329 -0.1252 0.3306
C20 C 0.58453(6) -0.14175(8) 0.31142(19)
H13 H 0.5731 -0.1640 0.3878
C21 C 0.63883(6) -0.10298(8) 0.13578(18)
H14 H 0.6665 -0.0971 0.0860
C22 C 0.61665(6) -0.07851(8) 0.09452(18)
H15 H 0.6290 -0.0565 0.0179
N1I N 0.50083(5) -0.05897(5) -0.07195(14)
N2I N 0.46558(5) -0.00111(5) -0.18889(14)
C1I C 0.52530(6) -0.07750(6) -0.00794(17)
C2I C 0.52263(6) -0.11489(6) -0.09648(18)
H1I H 0.5361 -0.1339 -0.0756
C3I C 0.49734(6) -0.11773(6) -0.21459(19)
H2I H 0.4898 -0.1390 -0.2925
C4I C 0.48392(6) -0.08215(6) -0.19993(17)
C5I C 0.45908(6) -0.07198(6) -0.30359(17)
C6I C 0.44951(6) -0.03478(6) -0.29424(17)
C7I C 0.41844(6) -0.02828(6) -0.38907(19)
H3I H 0.4030 -0.0465 -0.4718
C8I C 0.41541(6) 0.00850(6) -0.33815(19)
H4I H 0.3973 0.0210 -0.3780
C9I C 0.44485(6) 0.02542(6) -0.21138(17)
C10I C 0.44949(6) 0.06185(6) -0.12199(18)
C11I C 0.44098(6) -0.10334(6) -0.43211(18)
C12I C 0.45666(6) -0.08565(6) -0.57014(18)
H5I H 0.4786 -0.0532 -0.5826
C13I C 0.44055(6) -0.11495(7) -0.68951(19)
H6I H 0.4520 -0.1023 -0.7824
C14I C 0.40807(7) -0.16243(7) -0.6758(2)
C15I C 0.39226(7) -0.17987(7) -0.5385(2)
H7I H 0.3700 -0.2122 -0.5267
C16I C 0.40836(6) -0.15103(6) -0.4184(2)
H8I H 0.3970 -0.1639 -0.3256
C17I C 0.38986(9) -0.19324(8) -0.8080(2)
H9I H 0.4147 -0.1822 -0.8807
H10I H 0.3800 -0.2257 -0.7818
H11I H 0.3630 -0.1918 -0.8472
N3I N 0.37678(5) 0.13443(7) -0.24223(15)
C18I C 0.42379(6) 0.08648(8) -0.16614(18)
C19I C 0.43981(6) 0.11883(8) -0.27794(19)
H12I H 0.4671 0.1252 -0.3306
C20I C 0.41547(6) 0.14175(8) -0.31142(19)
H13I H 0.4269 0.1640 -0.3878
C21I C 0.36117(6) 0.10298(8) -0.13578(18)
H14I H 0.3335 0.0971 -0.0860
C22I C 0.38335(6) 0.07851(8) -0.09452(18)
H15I H 0.3710 0.0565 -0.0179
Zn1D Zn 0.6667 -0.1667 0.3333
Zn1G Zn 0.3333 0.1667 -0.3333
N3H N 0.57568(9) 0.04345(5) -0.09110(15)
N3Q N 0.42432(9) -0.04345(5) 0.09110(15)
loop_
_geom_bond_atom_site_label_1
_geom_bond_atom_site_label_2
_geom_bond_site_symmetry_1
_geom_bond_site_symmetry_2
Zn1 N1 1_555 1_555
N1 C1 1_555 1_555
N2 Zn1 1_555 1_555
N3 C20 1_555 1_555
C1 C2 1_555 1_555
C2 H1 1_555 1_555
C3 C2 1_555 1_555
H2 C3 1_555 1_555
C4 N1 1_555 1_555
C5 C4 1_555 1_555
C6 N2 1_555 1_555
C7 C6 1_555 1_555
H3 C7 1_555 1_555
C8 C7 1_555 1_555
H4 C8 1_555 1_555
C9 N2 1_555 1_555
C10 C9 1_555 1_555
C11 C5 1_555 1_555
C12 C11 1_555 1_555
H5 C12 1_555 1_555
C13 C12 1_555 1_555
H6 C13 1_555 1_555
C14 C13 1_555 1_555
C15 C14 1_555 1_555
H7 C15 1_555 1_555
C16 C11 1_555 1_555
H8 C16 1_555 1_555
C17 C14 1_555 1_555
H9 C17 1_555 1_555
H10 C17 1_555 1_555
H11 C17 1_555 1_555
C18 C10 1_555 1_555
C19 C18 1_555 1_555
H12 C19 1_555 1_555
C20 C19 1_555 1_555
H13 C20 1_555 1_555
C21 N3 1_555 1_555
H14 C21 1_555 1_555
C22 C18 1_555 1_555
H15 C22 1_555 1_555
N1I Zn1 1_555 1_555
N2I Zn1 1_555 1_555
C1I C10 1_555 1_555
C2I C1I 1_555 1_555
H1I C2I 1_555 1_555
C3I C2I 1_555 1_555
H2I C3I 1_555 1_555
C4I N1I 1_555 1_555
C5I C4I 1_555 1_555
C6I N2I 1_555 1_555
C7I C6I 1_555 1_555
H3I C7I 1_555 1_555
C8I C7I 1_555 1_555
H4I C8I 1_555 1_555
C9I N2I 1_555 1_555
C10I C1 1_555 1_555
C11I C5I 1_555 1_555
C12I C11I 1_555 1_555
H5I C12I 1_555 1_555
C13I C12I 1_555 1_555
H6I C13I 1_555 1_555
C14I C13I 1_555 1_555
C15I C14I 1_555 1_555
H7I C15I 1_555 1_555
C16I C11I 1_555 1_555
H8I C16I 1_555 1_555
C17I C14I 1_555 1_555
H9I C17I 1_555 1_555
H10I C17I 1_555 1_555
H11I C17I 1_555 1_555
N3I C20I 1_555 1_555
C18I C10I 1_555 1_555
C19I C18I 1_555 1_555
H12I C19I 1_555 1_555
C20I C19I 1_555 1_555
H13I C20I 1_555 1_555
C21I N3I 1_555 1_555
H14I C21I 1_555 1_555
C22I C18I 1_555 1_555
H15I C22I 1_555 1_555
Zn1D N3 1_555 1_555
Zn1G N3I 1_555 1_555
N3H Zn1 1_555 1_555
N3Q Zn1 1_555 1_555
C3 C4 1_555 1_555
C5 C6 1_555 1_555
C8 C9 1_555 1_555
C15 C16 1_555 1_555
C21 C22 1_555 1_555
N1I C1I 1_555 1_555
C3I C4I 1_555 1_555
C5I C6I 1_555 1_555
C8I C9I 1_555 1_555
C9I C10I 1_555 1_555
C15I C16I 1_555 1_555
C21I C22I 1_555 1_555

#END
