
#######################################################################
#
#                 Cambridge Crystallographic Data Centre
#                                CCDC 
#
#######################################################################
#
# If this CIF has been generated from an entry in the Cambridge 
# Structural Database, then it will include bibliographic, chemical, 
# crystal, experimental, refinement or atomic coordinate data resulting 
# from the CCDC's data processing and validation procedures.
#
#######################################################################

data_KUBXOW
_symmetry_cell_setting           monoclinic
_symmetry_space_group_name_H-M   'C 2/c'
_symmetry_Int_Tables_number      15
_space_group_name_Hall           '-C 2yn'
loop_
_symmetry_equiv_pos_site_id
_symmetry_equiv_pos_as_xyz
1 x,y,z
2 -x,y,1/2-z
3 1/2+x,1/2+y,z
4 1/2-x,1/2+y,1/2-z
5 -x,-y,-z
6 x,-y,1/2+z
7 1/2-x,1/2-y,-z
8 1/2+x,1/2-y,1/2+z
_cell_length_a                   19.0449(7)
_cell_length_b                   15.5344(5)
_cell_length_c                   8.4791(4)
_cell_angle_alpha                90
_cell_angle_beta                 110.522(5)
_cell_angle_gamma                90
_cell_volume                     2349.35
loop_
_atom_site_label
_atom_site_type_symbol
_atom_site_fract_x
_atom_site_fract_y
_atom_site_fract_z
Mg1 Mg 0.5000 0.07416(6) 0.7500
O1 O 0.43721(9) 0.01637(11) 1.0913(2)
O2 O 0.41785(9) 0.08928(11) 0.8539(2)
N1 N 0.06367(12) 0.32331(13) 0.4355(3)
C1 C 0.39719(13) 0.05876(14) 0.9675(3)
C2 C 0.31762(14) 0.07797(16) 0.9553(3)
C3 C 0.29016(18) 0.0435(2) 1.0711(4)
H1 H 0.3200 0.0068 1.1544
C4 C 0.2182(2) 0.0632(3) 1.0641(6)
H2 H 0.1995 0.0391 1.1418
C5 C 0.1741(2) 0.1187(3) 0.9415(5)
H3 H 0.1266 0.1334 0.9402
C6 C 0.19991(16) 0.1526(2) 0.8206(4)
C7 C 0.27207(14) 0.13119(16) 0.8292(3)
H4 H 0.2902 0.1530 0.7487
C8 C 0.06439(16) 0.32625(19) 0.5937(4)
H5 H 0.0351 0.3676 0.6204
C9 C 0.10609(17) 0.2715(2) 0.7191(4)
H6 H 0.1032 0.2755 0.8261
C10 C 0.15218(15) 0.21060(18) 0.6868(4)
C11 C 0.15169(17) 0.20727(19) 0.5225(4)
H7 H 0.1815 0.1675 0.4933
C12 C 0.10673(16) 0.26331(18) 0.4024(4)
H8 H 0.1065 0.2589 0.2929
O1A O 0.56279(9) 0.01637(11) 0.4087(2)
O2A O 0.58215(9) 0.08928(11) 0.6461(2)
N1A N 0.93633(12) 0.32331(13) 1.0645(3)
C1A C 0.60281(13) 0.05876(14) 0.5325(3)
C2A C 0.68238(14) 0.07797(16) 0.5447(3)
C3A C 0.70984(18) 0.0435(2) 0.4289(4)
H1A H 0.6800 0.0068 0.3456
C4A C 0.7818(2) 0.0632(3) 0.4359(6)
H2A H 0.8005 0.0391 0.3582
C5A C 0.8259(2) 0.1187(3) 0.5585(5)
H3A H 0.8734 0.1334 0.5598
C6A C 0.80009(16) 0.1526(2) 0.6794(4)
C7A C 0.72793(14) 0.13119(16) 0.6708(3)
H4A H 0.7098 0.1530 0.7513
C8A C 0.93561(16) 0.32625(19) 0.9063(4)
H5A H 0.9649 0.3676 0.8796
C9A C 0.89391(17) 0.2715(2) 0.7809(4)
H6A H 0.8968 0.2755 0.6739
C10A C 0.84782(15) 0.21060(18) 0.8132(4)
C11A C 0.84831(17) 0.20727(19) 0.9775(4)
H7A H 0.8185 0.1675 1.0067
C12A C 0.89327(16) 0.26331(18) 1.0976(4)
H8A H 0.8935 0.2589 1.2071
Mg1D Mg 0.5000 -0.07416(6) 0.2500
Mg1D_2 Mg 0.5000 -0.07416(6) 1.2500
Mg1F Mg 0.0000 0.42584(6) 0.2500
Mg1F_2 Mg 1.0000 0.42584(6) 1.2500
O1D O 0.56279(9) -0.01637(11) 0.9087(2)
O1E O 0.43721(9) -0.01637(11) 0.5913(2)
N1F N 0.43633(12) 0.17669(13) 0.5645(3)
N1G N 0.56367(12) 0.17669(13) 0.9355(3)
loop_
_geom_bond_atom_site_label_1
_geom_bond_atom_site_label_2
_geom_bond_site_symmetry_1
_geom_bond_site_symmetry_2
Mg1 O2 1_555 1_555
O1 C1 1_555 1_555
O2 C1 1_555 1_555
N1 C8 1_555 1_555
C1 C2 1_555 1_555
C2 C3 1_555 1_555
C3 H1 1_555 1_555
C4 C3 1_555 1_555
H2 C4 1_555 1_555
C5 C4 1_555 1_555
H3 C5 1_555 1_555
C6 C5 1_555 1_555
C7 C2 1_555 1_555
H4 C7 1_555 1_555
C8 H5 1_555 1_555
C9 C8 1_555 1_555
H6 C9 1_555 1_555
C10 C6 1_555 1_555
C11 C10 1_555 1_555
H7 C11 1_555 1_555
C12 N1 1_555 1_555
H8 C12 1_555 1_555
O1A C1A 1_555 1_555
O2A Mg1 1_555 1_555
N1A C8A 1_555 1_555
C1A O2A 1_555 1_555
C2A C1A 1_555 1_555
C3A C2A 1_555 1_555
H1A C3A 1_555 1_555
C4A C3A 1_555 1_555
H2A C4A 1_555 1_555
C5A C4A 1_555 1_555
H3A C5A 1_555 1_555
C6A C5A 1_555 1_555
C7A C2A 1_555 1_555
H4A C7A 1_555 1_555
C8A H5A 1_555 1_555
C9A C8A 1_555 1_555
H6A C9A 1_555 1_555
C10A C6A 1_555 1_555
C11A C10A 1_555 1_555
H7A C11A 1_555 1_555
C12A N1A 1_555 1_555
H8A C12A 1_555 1_555
Mg1D O1A 1_555 1_555
Mg1D_2 O1 1_555 1_555
Mg1F N1 1_555 1_555
Mg1F_2 N1A 1_555 1_555
O1D Mg1 1_555 1_555
O1E Mg1 1_555 1_555
N1F Mg1 1_555 1_555
N1G Mg1 1_555 1_555
C6 C7 1_555 1_555
C9 C10 1_555 1_555
C11 C12 1_555 1_555
C6A C7A 1_555 1_555
C9A C10A 1_555 1_555
C11A C12A 1_555 1_555

#END
