
#######################################################################
#
#                 Cambridge Crystallographic Data Centre
#                                CCDC 
#
#######################################################################
#
# If this CIF has been generated from an entry in the Cambridge 
# Structural Database, then it will include bibliographic, chemical, 
# crystal, experimental, refinement or atomic coordinate data resulting 
# from the CCDC's data processing and validation procedures.
#
#######################################################################

data_KUKHAB
_symmetry_cell_setting           monoclinic
_symmetry_space_group_name_H-M   'C 2/c'
_symmetry_Int_Tables_number      15
_space_group_name_Hall           '-C 2yn'
loop_
_symmetry_equiv_pos_site_id
_symmetry_equiv_pos_as_xyz
1 x,y,z
2 -x,y,1/2-z
3 1/2+x,1/2+y,z
4 1/2-x,1/2+y,1/2-z
5 -x,-y,-z
6 x,-y,1/2+z
7 1/2-x,1/2-y,-z
8 1/2+x,1/2-y,1/2+z
_cell_length_a                   26.0328(6)
_cell_length_b                   9.1655(2)
_cell_length_c                   27.4382(6)
_cell_angle_alpha                90
_cell_angle_beta                 117.8140(10)
_cell_angle_gamma                90
_cell_volume                     5790.48
loop_
_atom_site_label
_atom_site_type_symbol
_atom_site_fract_x
_atom_site_fract_y
_atom_site_fract_z
Zn1 Zn 0.113173(11) 0.13603(3) 0.164574(11)
N2 N 0.25625(8) 0.4711(2) 0.48284(8)
N3 N 0.15023(9) -0.0723(3) 0.18693(9)
C3 C 0.16437(11) 0.3693(3) 0.31366(10)
C4 C 0.14670(11) 0.4840(3) 0.33493(11)
H8 H 0.1147 0.5396 0.3116
C5 C 0.17629(10) 0.5173(3) 0.39087(10)
H9 H 0.1633 0.5932 0.4048
C6 C 0.22498(9) 0.4379(3) 0.42591(9)
C7 C 0.24286(11) 0.3234(3) 0.40395(10)
H10 H 0.2756 0.2693 0.4267
C8 C 0.21254(11) 0.2898(3) 0.34903(10)
H11 H 0.2247 0.2118 0.3353
C9 C 0.31806(9) 0.4635(3) 0.51029(9)
C10 C 0.34809(10) 0.4149(3) 0.56471(10)
H12 H 0.3277 0.3869 0.5834
C11 C 0.40797(10) 0.4082(3) 0.59087(10)
H13 H 0.4275 0.3753 0.6271
C12 C 0.43937(10) 0.4495(3) 0.56418(10)
C13 C 0.40953(10) 0.4968(3) 0.50997(10)
H14 H 0.4302 0.5242 0.4914
C14 C 0.34984(10) 0.5039(3) 0.48325(9)
H15 H 0.3306 0.5358 0.4469
C15 C 0.22662(9) 0.5206(3) 0.51187(9)
C16 C 0.17390(10) 0.4597(3) 0.50230(10)
H16 H 0.1583 0.3835 0.4772
C17 C 0.14447(10) 0.5109(3) 0.52957(10)
H17 H 0.1089 0.4698 0.5223
C18 C 0.16746(11) 0.6240(3) 0.56800(10)
C19 C 0.22107(11) 0.6807(3) 0.57852(10)
H18 H 0.2376 0.7541 0.6047
C20 C 0.25022(10) 0.6307(3) 0.55097(10)
H19 H 0.2860 0.6709 0.5586
C21 C 0.13261(11) 0.3325(3) 0.25244(11)
C22 C 0.50518(10) 0.4441(3) 0.59277(10)
C23 C 0.13346(11) 0.6840(3) 0.59564(10)
C24 C 0.17943(15) -0.1147(4) 0.23944(14)
H20 H 0.1852 -0.0478 0.2670
C25 C 0.20127(19) -0.2535(5) 0.25428(18)
H21 H 0.2220 -0.2787 0.2913
C26 C 0.19252(18) -0.3538(4) 0.2146(2)
H22 H 0.2059 -0.4491 0.2239
C27 C 0.16394(16) -0.3118(4) 0.16112(19)
H23 H 0.1583 -0.3774 0.1332
C28 C 0.14335(13) -0.1715(3) 0.14844(14)
H24 H 0.1238 -0.1442 0.1116
O1 O 0.09562(11) 0.4157(3) 0.22118(8)
O2 O 0.14827(9) 0.2147(3) 0.23944(8)
O3 O 0.53176(8) 0.5049(3) 0.57113(8)
O4 O 0.52930(7) 0.3780(2) 0.63824(8)
O5 O 0.15705(8) 0.7887(2) 0.62848(7)
O6 O 0.08533(9) 0.6329(2) 0.58398(10)
Zn1E Zn 0.113173(11) 0.86397(3) 0.664574(11)
Zn1G Zn 0.613173(11) 0.36397(3) 0.664574(11)
O4G O 0.02930(7) 0.1220(2) 0.13824(8)
O5E O 0.15705(8) 0.2113(2) 0.12848(7)
N1 N 0.02184(11) 0.5527(3) 0.12440(11)
H1 H 0.0517 0.5373 0.1194
C1 C 0.0159(2) 0.6817(5) 0.1529(2)
H2 H 0.0495 0.7426 0.1642
H3 H 0.0123 0.6518 0.1847
H4 H -0.0181 0.7354 0.1284
C2 C -0.02694(15) 0.4535(5) 0.10540(18)
H5 H -0.0203 0.3722 0.0870
H6 H -0.0617 0.5035 0.0803
H7 H -0.0312 0.4189 0.1363
loop_
_geom_bond_atom_site_label_1
_geom_bond_atom_site_label_2
_geom_bond_site_symmetry_1
_geom_bond_site_symmetry_2
N1 H1 1_555 1_555
C1 N1 1_555 1_555
H2 C1 1_555 1_555
H3 C1 1_555 1_555
H4 C1 1_555 1_555
C2 N1 1_555 1_555
H5 C2 1_555 1_555
H6 C2 1_555 1_555
H7 C2 1_555 1_555
Zn1 N3 1_555 1_555
N2 C6 1_555 1_555
N3 C24 1_555 1_555
C3 C4 1_555 1_555
C4 H8 1_555 1_555
C5 C4 1_555 1_555
H9 C5 1_555 1_555
C6 C5 1_555 1_555
C7 C6 1_555 1_555
H10 C7 1_555 1_555
C8 C3 1_555 1_555
H11 C8 1_555 1_555
C9 N2 1_555 1_555
C10 C9 1_555 1_555
H12 C10 1_555 1_555
C11 C10 1_555 1_555
H13 C11 1_555 1_555
C12 C11 1_555 1_555
C13 C12 1_555 1_555
H14 C13 1_555 1_555
C14 C9 1_555 1_555
H15 C14 1_555 1_555
C15 N2 1_555 1_555
C16 C15 1_555 1_555
H16 C16 1_555 1_555
C17 C16 1_555 1_555
H17 C17 1_555 1_555
C18 C17 1_555 1_555
C19 C18 1_555 1_555
H18 C19 1_555 1_555
C20 C15 1_555 1_555
H19 C20 1_555 1_555
C21 C3 1_555 1_555
C22 C12 1_555 1_555
C23 C18 1_555 1_555
C24 H20 1_555 1_555
C25 C24 1_555 1_555
H21 C25 1_555 1_555
C26 C25 1_555 1_555
H22 C26 1_555 1_555
C27 C26 1_555 1_555
H23 C27 1_555 1_555
C28 N3 1_555 1_555
H24 C28 1_555 1_555
O1 C21 1_555 1_555
O2 Zn1 1_555 1_555
O3 C22 1_555 1_555
O4 C22 1_555 1_555
O5 C23 1_555 1_555
O6 C23 1_555 1_555
Zn1E O5 1_555 1_555
Zn1G O4 1_555 1_555
O4G Zn1 1_555 1_555
O5E Zn1 1_555 1_555
C7 C8 1_555 1_555
C13 C14 1_555 1_555
C19 C20 1_555 1_555
C21 O2 1_555 1_555
C27 C28 1_555 1_555

#END
