
#######################################################################
#
#                 Cambridge Crystallographic Data Centre
#                                CCDC 
#
#######################################################################
#
# If this CIF has been generated from an entry in the Cambridge 
# Structural Database, then it will include bibliographic, chemical, 
# crystal, experimental, refinement or atomic coordinate data resulting 
# from the CCDC's data processing and validation procedures.
#
#######################################################################

data_KUKPOX
_symmetry_cell_setting           monoclinic
_symmetry_space_group_name_H-M   'C c'
_symmetry_Int_Tables_number      9
_space_group_name_Hall           'C -2yc'
loop_
_symmetry_equiv_pos_site_id
_symmetry_equiv_pos_as_xyz
1 x,y,z
2 x,-y,1/2+z
3 1/2+x,1/2+y,z
4 1/2+x,1/2-y,1/2+z
_cell_length_a                   13.3069(10)
_cell_length_b                   25.629(2)
_cell_length_c                   9.8560(8)
_cell_angle_alpha                90
_cell_angle_beta                 91.455(8)
_cell_angle_gamma                90
_cell_volume                     3360.23
loop_
_atom_site_label
_atom_site_type_symbol
_atom_site_fract_x
_atom_site_fract_y
_atom_site_fract_z
Cl3 Cl -0.68876(12) -0.15658(6) -0.56644(16)
Cu1 Cu -0.71842(4) -0.48549(2) -0.38223(5)
Cu2 Cu -0.54025(4) -0.54032(2) -0.44976(6)
Cu3 Cu -0.61259(4) -0.45123(2) -0.64903(5)
Cu4 Cu -1.23328(4) -0.11054(2) -0.39036(5)
Cl1 Cl -1.32383(10) -0.18002(5) -0.45978(13)
Cl2 Cl -0.69921(10) -0.45140(4) -0.13843(12)
O1 O -0.7016(3) -0.39161(12) -0.6140(3)
N1 N -0.9853(3) -0.19975(15) -0.4761(4)
O2 O -0.6530(3) -0.55074(11) -0.3355(3)
O3 O -0.5873(2) -0.46665(12) -0.4583(3)
N2 N 0.1426(3) -0.42825(16) -0.8420(4)
O4 O -0.4186(3) -0.52641(14) -0.5426(3)
N3 N 0.1494(3) -0.48177(14) -0.8407(4)
C1 C -0.8246(4) -0.33941(18) -0.5111(5)
O5 O -0.7912(3) -0.42439(13) -0.4443(3)
N4 N -0.0001(3) -0.46096(15) -0.7819(4)
C2 C -0.2992(4) -0.48398(19) -0.6780(5)
O6 O -0.4746(3) -0.47055(14) -0.7040(3)
N5 N -1.0206(3) -0.11760(15) -0.4575(4)
C3 C -0.8094(4) -0.29752(19) -0.6052(5)
H1 H -0.7629 -0.3010 -0.6762
C4 C -0.1781(4) -0.4337(2) -0.7927(5)
H2 H -0.1623 -0.4051 -0.8494
C5 C 0.0652(4) -0.5010(2) -0.8034(5)
H3 H 0.0509 -0.5371 -0.7926
C6 C -0.8633(4) -0.25227(18) -0.5905(5)
H4 H -0.8542 -0.2242 -0.6519
C7 C -0.8939(4) -0.3331(2) -0.4118(5)
H5 H -0.9057 -0.3611 -0.3509
C8 C -0.1255(4) -0.5078(2) -0.6538(6)
H6 H -0.0738 -0.5289 -0.6146
C9 C -0.2743(4) -0.4438(2) -0.7590(6)
H7 H -0.3261 -0.4217 -0.7937
N6 N -1.1047(3) -0.14650(15) -0.4284(4)
C10 C -0.1027(4) -0.46682(19) -0.7415(5)
C11 C -0.9491(4) -0.14974(18) -0.4861(5)
H8 H -0.8828 -0.1403 -0.5100
C12 C -0.2232(4) -0.5167(2) -0.6263(6)
H9 H -0.2405 -0.5456 -0.5711
C13 C -0.9460(4) -0.2881(2) -0.3983(6)
H10 H -0.9931 -0.2841 -0.3282
C14 C -1.0808(4) -0.19435(18) -0.4413(5)
H11 H -1.1256 -0.2227 -0.4277
C15 C -0.7686(4) -0.38938(18) -0.5261(4)
C16 C -0.4073(4) -0.49501(19) -0.6391(5)
C17 C -0.9286(4) -0.24737(18) -0.4904(5)
C18 C 0.0515(4) -0.4167(2) -0.8083(5)
H12 H 0.0251 -0.3824 -0.8031
Cu1A Cu 0.28158(4) -0.51451(2) -0.88223(5)
Cu2A Cu -0.54025(4) -0.45968(2) -0.94976(6)
Cu2A_2 Cu -0.54025(4) -0.45968(2) 0.05024(6)
Cu2B Cu -1.04025(4) -0.04032(2) -0.44976(6)
Cu3A Cu -0.61259(4) -0.54877(2) -0.14903(5)
Cu4B Cu -0.73328(4) -0.61054(2) -0.39036(5)
Cu4C Cu -0.73328(4) -0.38946(2) -0.89036(5)
Cu4C_2 Cu -0.73328(4) -0.38946(2) 0.10964(5)
Cu4C_3 Cu 0.26672(4) -0.38946(2) -0.89036(5)
Cl2A Cl -0.69921(10) -0.54860(4) -0.63843(12)
Cl2C Cl -1.19921(10) -0.04860(4) -0.63843(12)
O1C O -1.2016(3) -0.10839(12) -0.1140(3)
O2A O -0.6530(3) -0.44926(11) -0.8355(3)
O2B O -1.1530(3) -0.05074(11) -0.3355(3)
N2C N -1.3574(3) -0.07175(16) -0.3420(4)
N3A N -0.8506(3) -0.51823(14) -0.3407(4)
O6A O -0.4746(3) -0.52945(14) -0.2040(3)
N5B N -0.5206(3) -0.61760(15) -0.4575(4)
loop_
_geom_bond_atom_site_label_1
_geom_bond_atom_site_label_2
_geom_bond_site_symmetry_1
_geom_bond_site_symmetry_2
Cu1 Cu2 1_555 1_555
Cu2 O2 1_555 1_555
Cu3 O1 1_555 1_555
Cu4 Cl1 1_555 1_555
Cl2 Cu1 1_555 1_555
O1 C15 1_555 1_555
N1 C11 1_555 1_555
O2 Cu1 1_555 1_555
O3 Cu1 1_555 1_555
N2 N3 1_555 1_555
O4 Cu2 1_555 1_555
N3 C5 1_555 1_555
C1 C3 1_555 1_555
O5 Cu1 1_555 1_555
N4 C5 1_555 1_555
C2 C9 1_555 1_555
O6 Cu3 1_555 1_555
N5 N6 1_555 1_555
C3 H1 1_555 1_555
C4 H2 1_555 1_555
C5 H3 1_555 1_555
C6 C3 1_555 1_555
H4 C6 1_555 1_555
C7 C1 1_555 1_555
H5 C7 1_555 1_555
C8 H6 1_555 1_555
C9 C4 1_555 1_555
H7 C9 1_555 1_555
N6 Cu4 1_555 1_555
C10 N4 1_555 1_555
C11 N5 1_555 1_555
H8 C11 1_555 1_555
C12 C2 1_555 1_555
H9 C12 1_555 1_555
C13 C7 1_555 1_555
H10 C13 1_555 1_555
C14 N1 1_555 1_555
H11 C14 1_555 1_555
C15 C1 1_555 1_555
C16 O4 1_555 1_555
C17 N1 1_555 1_555
C18 N2 1_555 1_555
H12 C18 1_555 1_555
Cu1A N3 1_555 1_555
Cu2A O6 1_555 1_555
Cu2A_2 Cl2 1_555 1_555
Cu2B N5 1_555 1_555
Cu3A Cl2 1_555 1_555
Cu4B O2 1_555 1_555
Cu4C O1 1_555 1_555
Cu4C_2 Cl2 1_555 1_555
Cu4C_3 N2 1_555 1_555
Cl2A Cu2 1_555 1_555
Cl2C Cu4 1_555 1_555
O1C Cu4 1_555 1_555
O2A Cu3 1_555 1_555
O2B Cu4 1_555 1_555
N2C Cu4 1_555 1_555
N3A Cu1 1_555 1_555
O6A Cu2 1_555 1_555
N5B Cu2 1_555 1_555
Cu2 O3 1_555 1_555
Cu3 O3 1_555 1_555
Cu3 Cl2A 1_555 1_555
O2 Cu3A 1_555 1_555
O5 C15 1_555 1_555
N4 C18 1_555 1_555
C2 C16 1_555 1_555
O6 C16 1_555 1_555
C4 C10 1_555 1_555
C6 C17 1_555 1_555
C8 C10 1_555 1_555
C8 C12 1_555 1_555
N6 C14 1_555 1_555
C13 C17 1_555 1_555
Cu2A O2A 1_555 1_555
Cu2B Cl2C 1_555 1_555
Cu2B O2B 1_555 1_555
Cu3A O6A 1_555 1_555
Cu4B Cl2A 1_555 1_555
Cu4C O2A 1_555 1_555

#END
