
#######################################################################
#
#                 Cambridge Crystallographic Data Centre
#                                CCDC 
#
#######################################################################
#
# If this CIF has been generated from an entry in the Cambridge 
# Structural Database, then it will include bibliographic, chemical, 
# crystal, experimental, refinement or atomic coordinate data resulting 
# from the CCDC's data processing and validation procedures.
#
#######################################################################

data_KUKZOH
_symmetry_cell_setting           monoclinic
_symmetry_space_group_name_H-M   'C 2/c'
_symmetry_Int_Tables_number      15
_space_group_name_Hall           '-C 2yn'
loop_
_symmetry_equiv_pos_site_id
_symmetry_equiv_pos_as_xyz
1 x,y,z
2 -x,y,1/2-z
3 1/2+x,1/2+y,z
4 1/2-x,1/2+y,1/2-z
5 -x,-y,-z
6 x,-y,1/2+z
7 1/2-x,1/2-y,-z
8 1/2+x,1/2-y,1/2+z
_cell_length_a                   26.0338(8)
_cell_length_b                   26.3415(7)
_cell_length_c                   27.5327(7)
_cell_angle_alpha                90
_cell_angle_beta                 97.836(3)
_cell_angle_gamma                90
_cell_volume                     18704.8
loop_
_atom_site_label
_atom_site_type_symbol
_atom_site_fract_x
_atom_site_fract_y
_atom_site_fract_z
C1 C 0.79067(18) 0.31630(17) 0.14808(16)
C2 C 0.83598(19) 0.34219(17) 0.13135(16)
C3 C 0.8638(2) 0.3203(2) 0.0978(2)
H1 H 0.8547 0.2873 0.0858
C4 C 0.9048(2) 0.3455(2) 0.0813(2)
H2 H 0.9235 0.3300 0.0579
C5 C 0.9184(2) 0.39411(19) 0.09934(17)
C6 C 0.8909(2) 0.41562(18) 0.13403(18)
H3 H 0.9003 0.4481 0.1472
C7 C 0.84967(18) 0.38955(17) 0.14933(15)
H4 H 0.8306 0.4047 0.1726
C8 C 0.9891(2) 0.4169(2) 0.04985(18)
C9 C 1.10244(19) 0.17350(18) 0.64298(15)
C10 C 1.0671(2) 0.1461(2) 0.60518(16)
C11 C 1.0816(2) 0.0995(2) 0.58818(18)
H5 H 1.1118 0.0831 0.6042
C12 C 1.0527(3) 0.0763(2) 0.5482(2)
H6 H 1.0631 0.0443 0.5369
C13 C 1.0089(2) 0.1000(2) 0.52481(18)
C14 C 0.9921(2) 0.1457(2) 0.54385(16)
H7 H 0.9607 0.1610 0.5294
C15 C 1.0213(2) 0.1681(2) 0.58336(16)
H8 H 1.0100 0.1992 0.5959
C16 C 1.15520(19) 0.65954(16) 0.12388(15)
C17 C 1.13790(19) 0.61452(18) 0.09253(16)
C18 C 1.0907(2) 0.59205(19) 0.0973(2)
H9 H 1.0697 0.6060 0.1196
C19 C 1.0736(2) 0.5498(2) 0.0702(2)
H10 H 1.0408 0.5353 0.0735
C20 C 1.1045(2) 0.52835(18) 0.03793(18)
C21 C 1.15031(18) 0.55338(18) 0.03080(17)
H11 H 1.1701 0.5414 0.0066
C22 C 1.16672(18) 0.59469(18) 0.05825(17)
H12 H 1.1987 0.6103 0.0538
C23 C 1.0531(2) 0.4505(2) 0.0135(2)
C24 C 1.1888(3) -0.1575(2) 0.30050(16)
C25 C 1.1636(3) -0.1239(2) 0.33398(16)
C26 C 1.1394(3) -0.0810(3) 0.31777(19)
H13 H 1.1389 -0.0713 0.2845
C27 C 1.1151(3) -0.0505(3) 0.3488(2)
H14 H 1.0982 -0.0202 0.3366
C28 C 1.1154(2) -0.0637(2) 0.39743(18)
C29 C 1.1394(4) -0.1063(3) 0.41409(19)
H15 H 1.1409 -0.1150 0.4477
C30 C 1.1622(4) -0.1384(3) 0.3826(2)
H16 H 1.1768 -0.1699 0.3942
C31 C 0.79410(19) 0.15335(18) 0.2378(2)
C32 C 0.83405(18) 0.1169(2) 0.2588(2)
C33 C 0.8386(2) 0.1064(3) 0.3089(2)
H17 H 0.8151 0.1217 0.3280
C34 C 0.8767(2) 0.0743(3) 0.3312(2)
H18 H 0.8785 0.0671 0.3652
C35 C 0.9126(2) 0.0524(2) 0.30386(19)
C36 C 0.9061(2) 0.0606(2) 0.25363(18)
H19 H 0.9282 0.0439 0.2341
C37 C 0.86732(19) 0.0931(2) 0.2312(2)
H20 H 0.8640 0.0989 0.1969
C38 C 0.9796(2) 0.0215(2) 0.37037(18)
C39 C 0.9943(3) 0.0500(3) 0.4473(2)
C40 C 1.0491(3) -0.0047(3) 0.4200(2)
C41 C 1.11366(17) 0.29700(15) -0.21023(15)
C42 C 1.08581(16) 0.30774(15) -0.16768(14)
C43 C 1.03424(18) 0.29279(15) -0.16642(15)
H21 H 1.0159 0.2753 -0.1936
C44 C 1.00985(18) 0.30327(16) -0.12597(16)
H22 H 0.9749 0.2931 -0.1256
C45 C 1.03641(19) 0.32870(17) -0.08582(17)
C46 C 1.08818(19) 0.3433(2) -0.08657(17)
H23 H 1.1068 0.3605 -0.0594
C47 C 1.11173(18) 0.33239(17) -0.12739(16)
H24 H 1.1468 0.3421 -0.1277
C48 C 1.0171(2) 0.3766(2) -0.01277(19)
N1 N 0.95866(19) 0.42313(17) 0.08632(16)
H25 H 0.9660 0.4503 0.1046
N2 N 0.98465(19) 0.37625(16) 0.02170(15)
N3 N 1.02281(17) 0.45594(16) 0.04836(15)
N4 N 0.9801(2) 0.0827(2) 0.48123(17)
H26 H 0.9484 0.0948 0.4749
N5 N 1.09078(17) 0.48556(16) 0.00907(16)
H27 H 1.1089 0.4805 -0.0152
N6 N 1.0928(2) -0.0331(2) 0.43019(16)
H28 H 1.1084 -0.0322 0.4606
N7 N 0.95316(17) 0.0215(2) 0.32369(15)
H29 H 0.9634 -0.0012 0.3036
N8 N 0.96283(19) 0.0506(2) 0.40452(15)
N9 N 1.0374(2) 0.0230(2) 0.45787(17)
N10 N 1.02229(19) -0.0063(2) 0.37452(16)
N11 N 1.01075(17) 0.33690(17) -0.04464(15)
H30 H 0.9881 0.3137 -0.0389
N12 N 1.05206(17) 0.41236(17) -0.01871(15)
O1 O 0.78214(13) 0.26989(12) 0.13624(11)
O2 O 0.76512(13) 0.34184(12) 0.17451(12)
O3 O 1.14664(14) 0.15311(13) 0.65657(11)
O4 O 1.08780(12) 0.21461(11) 0.65957(10)
O5 O 1.12604(13) 0.67298(12) 0.15422(11)
O6 O 1.19813(12) 0.67925(12) 0.11908(11)
O7 O 1.19764(16) -0.13741(12) 0.26061(11)
O8 O 1.1966(2) -0.20296(16) 0.31232(12)
O9 O 0.79574(13) 0.16968(13) 0.19460(14)
O10 O 0.75912(15) 0.16502(14) 0.26228(18)
O11 O 1.08759(11) 0.27886(10) -0.24906(9)
O12 O 1.16055(13) 0.30856(15) -0.20694(12)
O13 O 0.7917(3) 0.2706(3) 0.2731(3)
O14 O 0.7600(2) 0.21644(19) 0.35392(18)
O15 O 0.70014(10) 0.25091(10) 0.21252(9)
Zn1 Zn 0.74273(2) 0.21856(2) 0.169810(19)
Zn2 Zn 0.70441(2) 0.32245(2) 0.203826(18)
Zn3 Zn 0.72724(2) 0.23276(2) 0.283012(19)
Zn4 Zn 0.62854(2) 0.232283(19) 0.197710(17)
O3G O 0.64664(14) 0.34689(13) 0.15657(11)
O4G O 0.58780(12) 0.28539(11) 0.15957(10)
O5B O 0.62604(13) 0.17298(12) 0.15422(11)
O6B O 0.69813(12) 0.17925(12) 0.11908(11)
O7B O 0.69764(16) 0.36259(12) 0.26061(11)
O8B O 0.6966(2) 0.29704(16) 0.31232(12)
O11G O 0.58759(11) 0.22114(10) 0.25094(9)
O12G O 0.66055(13) 0.19144(15) 0.29306(12)
Zn1B Zn 1.24273(2) 0.71856(2) 0.169810(19)
Zn2B Zn 1.20441(2) -0.17755(2) 0.203826(18)
Zn2G Zn 1.20441(2) 0.17755(2) 0.703826(18)
Zn3B Zn 1.22724(2) -0.26724(2) 0.283012(19)
Zn3G Zn 1.22724(2) 0.26724(2) -0.216988(19)
Zn4B Zn 1.12854(2) 0.732283(19) 0.197710(17)
Zn4G Zn 1.12854(2) 0.267717(19) -0.302290(17)
Zn4G_2 Zn 1.12854(2) 0.267717(19) 0.697710(17)
C49 C 0.5532(4) 0.0004(3) 0.2045(4)
H31 H 0.5351 -0.0244 0.1817
H32 H 0.5517 -0.0106 0.2383
H33 H 0.5895 0.0028 0.1989
C50 C 0.5573(3) 0.0949(2) 0.2191(3)
H34 H 0.5560 0.0951 0.2545
H35 H 0.5407 0.1257 0.2044
H36 H 0.5935 0.0938 0.2131
C51 C 0.4840(3) 0.0542(3) 0.1636(3)
H37 H 0.4706 0.0874 0.1574
N13 N 0.5290(3) 0.0488(2) 0.1966(3)
O16 O 0.4603(2) 0.01869(19) 0.1420(2)
O17 O 0.3770(2) 0.3668(2) 0.95790(16)
O18 O 0.4494(6) 0.2639(7) 0.8998(5)
O19 O 0.7093(6) 0.9123(6) 0.0745(7)
O20 O 0.8351(8) 0.1279(6) 0.0926(4)
O21 O 0.7187(6) 0.2335(5) 0.4273(5)
O22 O 0.8723(4) 0.2309(5) 0.3775(3)
loop_
_geom_bond_atom_site_label_1
_geom_bond_atom_site_label_2
_geom_bond_site_symmetry_1
_geom_bond_site_symmetry_2
C1 C2 1_555 1_555
C2 C3 1_555 1_555
C3 H1 1_555 1_555
C4 C3 1_555 1_555
H2 C4 1_555 1_555
C5 C4 1_555 1_555
C6 C5 1_555 1_555
H3 C6 1_555 1_555
C7 C2 1_555 1_555
H4 C7 1_555 1_555
C8 N1 1_555 1_555
C9 C10 1_555 1_555
C10 C11 1_555 1_555
C11 H5 1_555 1_555
C12 C11 1_555 1_555
H6 C12 1_555 1_555
C13 C12 1_555 1_555
C14 C13 1_555 1_555
H7 C14 1_555 1_555
C15 C10 1_555 1_555
H8 C15 1_555 1_555
C16 C17 1_555 1_555
C17 C18 1_555 1_555
C18 H9 1_555 1_555
C19 C18 1_555 1_555
H10 C19 1_555 1_555
C20 C19 1_555 1_555
C21 C20 1_555 1_555
H11 C21 1_555 1_555
C22 C17 1_555 1_555
H12 C22 1_555 1_555
C23 N3 1_555 1_555
C24 C25 1_555 1_555
C25 C26 1_555 1_555
C26 H13 1_555 1_555
C27 C26 1_555 1_555
H14 C27 1_555 1_555
C28 C27 1_555 1_555
C29 C28 1_555 1_555
H15 C29 1_555 1_555
C30 C25 1_555 1_555
H16 C30 1_555 1_555
C31 C32 1_555 1_555
C32 C33 1_555 1_555
C33 H17 1_555 1_555
C34 C33 1_555 1_555
H18 C34 1_555 1_555
C35 C34 1_555 1_555
C36 C35 1_555 1_555
H19 C36 1_555 1_555
C37 C32 1_555 1_555
H20 C37 1_555 1_555
C38 N7 1_555 1_555
C39 N4 1_555 1_555
C40 N6 1_555 1_555
C41 C42 1_555 1_555
C42 C43 1_555 1_555
C43 H21 1_555 1_555
C44 C43 1_555 1_555
H22 C44 1_555 1_555
C45 C44 1_555 1_555
C46 C45 1_555 1_555
H23 C46 1_555 1_555
C47 C42 1_555 1_555
H24 C47 1_555 1_555
C48 N2 1_555 1_555
N1 C5 1_555 1_555
H25 N1 1_555 1_555
N2 C8 1_555 1_555
N3 C8 1_555 1_555
N4 C13 1_555 1_555
H26 N4 1_555 1_555
N5 C20 1_555 1_555
H27 N5 1_555 1_555
N6 C28 1_555 1_555
H28 N6 1_555 1_555
N7 C35 1_555 1_555
H29 N7 1_555 1_555
N8 C38 1_555 1_555
N9 C39 1_555 1_555
N10 C38 1_555 1_555
N11 C45 1_555 1_555
H30 N11 1_555 1_555
N12 C23 1_555 1_555
O1 C1 1_555 1_555
O2 C1 1_555 1_555
O3 C9 1_555 1_555
O4 C9 1_555 1_555
O5 C16 1_555 1_555
O6 C16 1_555 1_555
O7 C24 1_555 1_555
O8 C24 1_555 1_555
O9 C31 1_555 1_555
O10 C31 1_555 1_555
O11 C41 1_555 1_555
O12 C41 1_555 1_555
O13 Zn3 1_555 1_555
O14 Zn3 1_555 1_555
O15 Zn1 1_555 1_555
Zn1 O1 1_555 1_555
Zn2 O2 1_555 1_555
Zn3 O10 1_555 1_555
Zn4 O15 1_555 1_555
C49 H31 1_555 1_555
H32 C49 1_555 1_555
H33 C49 1_555 1_555
C50 H34 1_555 1_555
H35 C50 1_555 1_555
H36 C50 1_555 1_555
C51 H37 1_555 1_555
N13 C49 1_555 1_555
O16 C51 1_555 1_555
O3G Zn2 1_555 1_555
O4G Zn4 1_555 1_555
O5B Zn4 1_555 1_555
O6B Zn1 1_555 1_555
O7B Zn2 1_555 1_555
O8B Zn3 1_555 1_555
O11G Zn4 1_555 1_555
O12G Zn3 1_555 1_555
Zn1B O6 1_555 1_555
Zn2B O7 1_555 1_555
Zn2G O3 1_555 1_555
Zn3B O8 1_555 1_555
Zn3G O12 1_555 1_555
Zn4B O5 1_555 1_555
Zn4G O11 1_555 1_555
Zn4G_2 O4 1_555 1_555
C6 C7 1_555 1_555
C14 C15 1_555 1_555
C21 C22 1_555 1_555
C23 N5 1_555 1_555
C29 C30 1_555 1_555
C36 C37 1_555 1_555
C39 N8 1_555 1_555
C40 N9 1_555 1_555
C40 N10 1_555 1_555
C46 C47 1_555 1_555
C48 N11 1_555 1_555
C48 N12 1_555 1_555
O9 Zn1 1_555 1_555
O15 Zn2 1_555 1_555
O15 Zn3 1_555 1_555
C50 N13 1_555 1_555
C51 N13 1_555 1_555

#END
