
#######################################################################
#
#                 Cambridge Crystallographic Data Centre
#                                CCDC 
#
#######################################################################
#
# If this CIF has been generated from an entry in the Cambridge 
# Structural Database, then it will include bibliographic, chemical, 
# crystal, experimental, refinement or atomic coordinate data resulting 
# from the CCDC's data processing and validation procedures.
#
#######################################################################

data_KULLAG
_symmetry_cell_setting           monoclinic
_symmetry_space_group_name_H-M   'C 2/c'
_symmetry_Int_Tables_number      15
_space_group_name_Hall           '-C 2yn'
loop_
_symmetry_equiv_pos_site_id
_symmetry_equiv_pos_as_xyz
1 x,y,z
2 -x,y,1/2-z
3 1/2+x,1/2+y,z
4 1/2-x,1/2+y,1/2-z
5 -x,-y,-z
6 x,-y,1/2+z
7 1/2-x,1/2-y,-z
8 1/2+x,1/2-y,1/2+z
_cell_length_a                   25.056(3)
_cell_length_b                   36.884(4)
_cell_length_c                   19.669(2)
_cell_angle_alpha                90
_cell_angle_beta                 123.272(2)
_cell_angle_gamma                90
_cell_volume                     15197.7
loop_
_atom_site_label
_atom_site_type_symbol
_atom_site_fract_x
_atom_site_fract_y
_atom_site_fract_z
Co1 Co 0.59880(2) 0.213954(11) 0.75703(3)
Co2 Co 0.50174(2) 0.176349(13) 0.58080(3)
Co3 Co 0.5000 0.14626(2) 0.7500
O1 O 0.49531(12) 0.22727(7) 0.54152(16)
O2 O 0.56700(11) 0.25160(6) 0.66395(16)
O3 O 0.04758(19) 0.65103(12) 0.0638(3)
O4 O 0.0836(2) 0.65498(13) -0.0101(3)
O5 O 0.85946(15) 0.67818(8) 0.64253(17)
O6 O 0.91402(15) 0.62625(8) 0.6842(2)
O7 O 0.08310(13) 0.65746(9) 0.60298(18)
O8 O 0.15088(11) 0.68313(7) 0.72381(17)
O9 O 0.55182(10) 0.24561(6) 0.80058(15)
O10 O 0.51278(11) 0.18554(7) 0.68706(17)
O11 O 0.5079(3) 0.1130(2) 0.6530(5)
O12 O 0.67753(11) 0.24775(7) 0.82805(17)
N1 N 0.78096(17) 0.25562(13) 0.9272(3)
C1 C 0.52646(17) 0.25368(9) 0.5883(2)
C2 C 0.51399(18) 0.29049(10) 0.5497(2)
C3 C 0.4721(2) 0.29545(11) 0.4681(3)
H1 H 0.4504 0.2751 0.4344
C4 C 0.4608(2) 0.32957(11) 0.4335(3)
H2 H 0.4317 0.3323 0.3765
C5 C 0.49087(18) 0.35932(10) 0.4802(2)
C6 C 0.5351(2) 0.35444(11) 0.5646(3)
H3 H 0.5576 0.3747 0.5982
C7 C 0.5457(2) 0.32017(11) 0.5981(3)
H4 H 0.5751 0.3170 0.6549
C8 C 0.48076(18) 0.39566(10) 0.4474(2)
C9 C 0.47521(16) 0.42659(9) 0.4264(2)
C10 C 0.47267(16) 0.46479(9) 0.40923(19)
C11 C 0.41438(16) 0.48309(9) 0.3670(2)
H5 H 0.3756 0.4702 0.3460
C12 C 0.41353(16) 0.52040(9) 0.35583(19)
C13 C 0.47055(16) 0.53912(9) 0.3871(2)
H6 H 0.4697 0.5646 0.3797
C14 C 0.52867(16) 0.52120(9) 0.4289(2)
C15 C 0.52938(16) 0.48367(9) 0.4396(2)
H7 H 0.5689 0.4710 0.4678
C16 C 0.35468(18) 0.54018(10) 0.3092(2)
C17 C 0.30858(19) 0.55857(12) 0.2691(3)
C18 C 0.2529(2) 0.58058(12) 0.2162(3)
C19 C 0.2077(2) 0.58753(15) 0.2339(3)
H8 H 0.2124 0.5779 0.2817
C20 C 0.1549(2) 0.60893(16) 0.1806(4)
H9 H 0.1245 0.6144 0.1936
C21 C 0.1462(2) 0.62210(13) 0.1107(3)
C22 C 0.1900(3) 0.61390(15) 0.0927(3)
H10 H 0.1839 0.6225 0.0433
C23 C 0.2430(2) 0.59342(16) 0.1448(3)
H11 H 0.2731 0.5881 0.1310
C24 C 0.0886(3) 0.64475(13) 0.0515(4)
C25 C 0.58712(18) 0.54118(10) 0.4612(2)
C26 C 0.63396(19) 0.55938(11) 0.4878(2)
C27 C 0.69072(19) 0.58118(11) 0.5225(3)
C28 C 0.6884(2) 0.61798(12) 0.5208(3)
H12 H 0.6482 0.6299 0.4937
C29 C 0.7442(2) 0.63855(12) 0.5583(3)
H13 H 0.7411 0.6642 0.5557
C30 C 0.8028(2) 0.62292(11) 0.5986(3)
C31 C 0.8044(3) 0.58561(14) 0.5976(5)
H14 H 0.8444 0.5735 0.6247
C32 C 0.7493(3) 0.56579(15) 0.5583(5)
H15 H 0.7522 0.5402 0.5558
C33 C 0.8629(2) 0.64425(11) 0.6444(3)
C34 C 0.5000 0.26144(12) 0.7500
C35 C 0.5000 0.30221(12) 0.7500
C36 C 0.44278(17) 0.32132(9) 0.7051(2)
H16 H 0.4036 0.3085 0.6742
C37 C 0.44257(17) 0.35895(9) 0.7052(2)
H17 H 0.4035 0.3719 0.6748
C38 C 0.5000 0.37737(12) 0.7500
C39 C 0.5000 0.41699(12) 0.7500
C40 C 0.5000 0.44933(13) 0.7500
C41 C 0.5000 0.48842(12) 0.7500
C42 C 0.44327(16) 0.50728(9) 0.7201(2)
H18 H 0.4043 0.4944 0.6981
C43 C 0.5000 0.56395(12) 0.7500
H19 H 0.5000 0.5897 0.7500
C44 C 0.44358(16) 0.54510(9) 0.7223(2)
C45 C 0.38677(17) 0.56487(10) 0.7006(2)
C46 C 0.34150(19) 0.58150(11) 0.6889(2)
C47 C 0.29016(18) 0.60209(11) 0.6820(3)
C48 C 0.2314(2) 0.60404(15) 0.6096(3)
H20 H 0.2246 0.5920 0.5628
C49 C 0.13762(18) 0.66263(11) 0.6663(3)
C50 C 0.19126(18) 0.64183(11) 0.6707(3)
C51 C 0.25032(18) 0.63980(13) 0.7443(3)
H21 H 0.2570 0.6521 0.7908
C52 C 0.29889(19) 0.61995(12) 0.7496(3)
H22 H 0.3389 0.6184 0.8001
C53 C 0.1821(2) 0.62348(14) 0.6050(3)
H23 H 0.1413 0.6240 0.5553
C54 C 0.7326(2) 0.23700(13) 0.8675(3)
C55 C 0.7733(3) 0.28957(19) 0.9511(5)
H24 H 0.7957 0.3077 0.9393
H25 H 0.7910 0.2894 1.0096
H26 H 0.7278 0.2956 0.9212
C56 C 0.8466(3) 0.2401(2) 0.9742(5)
H27 H 0.8545 0.2287 1.0240
H28 H 0.8779 0.2594 0.9886
H29 H 0.8507 0.2218 0.9411
N2 N 0.4791(11) 0.0658(6) 0.5574(13)
C57 C 0.4719(9) 0.0854(6) 0.6149(13)
C58 C 0.4270(12) 0.0361(7) 0.5182(16)
C59 C 0.5392(15) 0.0755(8) 0.5571(18)
O9A O 0.44818(10) 0.24561(6) 0.69942(15)
C36A C 0.55722(17) 0.32132(9) 0.7949(2)
H16A H 0.5964 0.3085 0.8258
C37A C 0.55743(17) 0.35895(9) 0.7948(2)
H17A H 0.5965 0.3719 0.8252
C42A C 0.55673(16) 0.50728(9) 0.7799(2)
H18A H 0.5957 0.4944 0.8019
C44A C 0.55642(16) 0.54510(9) 0.7777(2)
C45A C 0.61323(17) 0.56487(10) 0.7994(2)
C46A C 0.65850(19) 0.58150(11) 0.8111(2)
C47A C 0.70984(18) 0.60209(11) 0.8180(3)
C48A C 0.7686(2) 0.60404(15) 0.8904(3)
H20A H 0.7754 0.5920 0.9372
O7A O 0.91690(13) 0.65746(9) 0.89702(18)
O8A O 0.84912(11) 0.68313(7) 0.77619(17)
C49A C 0.86238(18) 0.66263(11) 0.8337(3)
C50A C 0.80874(18) 0.64183(11) 0.8293(3)
C51A C 0.74968(18) 0.63980(13) 0.7557(3)
H21A H 0.7430 0.6521 0.7092
C52A C 0.70111(19) 0.61995(12) 0.7504(3)
H22A H 0.6611 0.6184 0.6999
C53A C 0.8179(2) 0.62348(14) 0.8950(3)
H23A H 0.8587 0.6240 0.9447
Co1A Co 0.40120(2) 0.213954(11) 0.74297(3)
Co2A Co 0.49826(2) 0.176349(13) 0.91920(3)
O1A O 0.50469(12) 0.22727(7) 0.95848(16)
O2A O 0.43300(11) 0.25160(6) 0.83605(16)
O3A O 0.95242(19) 0.65103(12) 1.4362(3)
O4A O 0.9164(2) 0.65498(13) 1.5101(3)
O5A O 0.14054(15) 0.67818(8) 0.85747(17)
O6A O 0.08598(15) 0.62625(8) 0.8158(2)
O10A O 0.48722(11) 0.18554(7) 0.81294(17)
O11A O 0.4921(3) 0.1130(2) 0.8470(5)
O12A O 0.32247(11) 0.24775(7) 0.67195(17)
N1A N 0.21904(17) 0.25562(13) 0.5728(3)
C1A C 0.47354(17) 0.25368(9) 0.9117(2)
C2A C 0.48601(18) 0.29049(10) 0.9503(2)
C3A C 0.5279(2) 0.29545(11) 1.0319(3)
H1A H 0.5496 0.2751 1.0656
C4A C 0.5392(2) 0.32957(11) 1.0665(3)
H2A H 0.5683 0.3323 1.1235
C5A C 0.50913(18) 0.35932(10) 1.0198(2)
C6A C 0.4649(2) 0.35444(11) 0.9354(3)
H3A H 0.4424 0.3747 0.9018
C7A C 0.4543(2) 0.32017(11) 0.9019(3)
H4A H 0.4249 0.3170 0.8451
C8A C 0.51924(18) 0.39566(10) 1.0526(2)
C9A C 0.52479(16) 0.42659(9) 1.0736(2)
C10A C 0.52733(16) 0.46479(9) 1.09077(19)
C11A C 0.58562(16) 0.48309(9) 1.1330(2)
H5A H 0.6244 0.4702 1.1540
C12A C 0.58647(16) 0.52040(9) 1.14417(19)
C13A C 0.52945(16) 0.53912(9) 1.1129(2)
H6A H 0.5303 0.5646 1.1203
C14A C 0.47133(16) 0.52120(9) 1.0711(2)
C15A C 0.47062(16) 0.48367(9) 1.0604(2)
H7A H 0.4311 0.4710 1.0322
C16A C 0.64532(18) 0.54018(10) 1.1908(2)
C17A C 0.69142(19) 0.55857(12) 1.2309(3)
C18A C 0.7471(2) 0.58058(12) 1.2838(3)
C19A C 0.7923(2) 0.58753(15) 1.2661(3)
H8A H 0.7876 0.5779 1.2183
C20A C 0.8451(2) 0.60893(16) 1.3194(4)
H9A H 0.8755 0.6144 1.3064
C21A C 0.8538(2) 0.62210(13) 1.3893(3)
C22A C 0.8100(3) 0.61390(15) 1.4073(3)
H10A H 0.8161 0.6225 1.4567
C23A C 0.7570(2) 0.59342(16) 1.3552(3)
H11A H 0.7269 0.5881 1.3690
C24A C 0.9114(3) 0.64475(13) 1.4485(4)
C25A C 0.41288(18) 0.54118(10) 1.0388(2)
C26A C 0.36604(19) 0.55938(11) 1.0122(2)
C27A C 0.30928(19) 0.58118(11) 0.9775(3)
C28A C 0.3116(2) 0.61798(12) 0.9792(3)
H12A H 0.3518 0.6299 1.0063
C29A C 0.2558(2) 0.63855(12) 0.9417(3)
H13A H 0.2589 0.6642 0.9443
C30A C 0.1972(2) 0.62292(11) 0.9014(3)
C31A C 0.1956(3) 0.58561(14) 0.9024(5)
H14A H 0.1556 0.5735 0.8753
C32A C 0.2507(3) 0.56579(15) 0.9417(5)
H15A H 0.2478 0.5402 0.9442
C33A C 0.1371(2) 0.64425(11) 0.8556(3)
C54A C 0.2674(2) 0.23700(13) 0.6325(3)
C55A C 0.2267(3) 0.28957(19) 0.5489(5)
H24A H 0.2043 0.3077 0.5607
H25A H 0.2090 0.2894 0.4904
H26A H 0.2722 0.2956 0.5788
C56A C 0.1534(3) 0.2401(2) 0.5258(5)
H27A H 0.1455 0.2287 0.4760
H28A H 0.1221 0.2594 0.5114
H29A H 0.1493 0.2218 0.5589
N2A N 0.5209(11) 0.0658(6) 0.9426(13)
C57A C 0.5281(9) 0.0854(6) 0.8851(13)
C58A C 0.5730(12) 0.0361(7) 0.9818(16)
C59A C 0.4608(15) 0.0755(8) 0.9429(18)
Co1B Co 0.09880(2) 0.713954(11) 0.75703(3)
Co1C Co 0.90120(2) 0.713954(11) 0.74297(3)
Co2B Co 0.00174(2) 0.676349(13) 0.58080(3)
Co2B_2 Co 1.00174(2) 0.676349(13) 1.58080(3)
Co2C Co -0.00174(2) 0.676349(13) -0.08080(3)
Co2C_2 Co 0.99826(2) 0.676349(13) 0.91920(3)
Co3B Co 0.0000 0.64626(2) 0.7500
Co3B_2 Co 1.0000 0.64626(2) 0.7500
O4B O 0.5836(2) 0.15498(13) 0.9899(3)
O4C O 0.4164(2) 0.15498(13) 0.5101(3)
O5B O 0.35946(15) 0.17818(8) 0.64253(17)
O5C O 0.64054(15) 0.17818(8) 0.85747(17)
O6B O 0.41402(15) 0.12625(8) 0.6842(2)
O6C O 0.58598(15) 0.12625(8) 0.8158(2)
O7B O 0.58310(13) 0.15746(9) 0.60298(18)
O7C O 0.41690(13) 0.15746(9) 0.89702(18)
O8B O 0.65088(11) 0.18313(7) 0.72381(17)
O8C O 0.34912(11) 0.18313(7) 0.77619(17)
loop_
_geom_bond_atom_site_label_1
_geom_bond_atom_site_label_2
_geom_bond_site_symmetry_1
_geom_bond_site_symmetry_2
Co1 O2 1_555 1_555
Co2 O1 1_555 1_555
Co3 O10 1_555 1_555
O1 C1 1_555 1_555
O2 C1 1_555 1_555
O3 C24 1_555 1_555
O4 C24 1_555 1_555
O5 C33 1_555 1_555
O6 C33 1_555 1_555
O7 C49 1_555 1_555
O8 C49 1_555 1_555
O9 Co1 1_555 1_555
O10 Co1 1_555 1_555
O11 Co3 1_555 1_555
O12 Co1 1_555 1_555
N1 C54 1_555 1_555
C1 C2 1_555 1_555
C2 C3 1_555 1_555
C3 H1 1_555 1_555
C4 C3 1_555 1_555
H2 C4 1_555 1_555
C5 C4 1_555 1_555
C6 C5 1_555 1_555
H3 C6 1_555 1_555
C7 C2 1_555 1_555
H4 C7 1_555 1_555
C8 C5 1_555 1_555
C9 C8 1_555 1_555
C10 C9 1_555 1_555
C11 C10 1_555 1_555
H5 C11 1_555 1_555
C12 C11 1_555 1_555
C13 C12 1_555 1_555
H6 C13 1_555 1_555
C14 C13 1_555 1_555
C15 C10 1_555 1_555
H7 C15 1_555 1_555
C16 C12 1_555 1_555
C17 C16 1_555 1_555
C18 C17 1_555 1_555
C19 C18 1_555 1_555
H8 C19 1_555 1_555
C20 C19 1_555 1_555
H9 C20 1_555 1_555
C21 C20 1_555 1_555
C22 C21 1_555 1_555
H10 C22 1_555 1_555
C23 C18 1_555 1_555
H11 C23 1_555 1_555
C24 C21 1_555 1_555
C25 C14 1_555 1_555
C26 C25 1_555 1_555
C27 C26 1_555 1_555
C28 C27 1_555 1_555
H12 C28 1_555 1_555
C29 C28 1_555 1_555
H13 C29 1_555 1_555
C30 C29 1_555 1_555
C31 C30 1_555 1_555
H14 C31 1_555 1_555
C32 C27 1_555 1_555
H15 C32 1_555 1_555
C33 C30 1_555 1_555
C34 O9 1_555 1_555
C35 C34 1_555 1_555
C36 C35 1_555 1_555
H16 C36 1_555 1_555
C37 C36 1_555 1_555
H17 C37 1_555 1_555
C38 C37 1_555 1_555
C39 C38 1_555 1_555
C40 C39 1_555 1_555
C41 C40 1_555 1_555
C42 C41 1_555 1_555
H18 C42 1_555 1_555
C43 H19 1_555 1_555
C44 C42 1_555 1_555
C45 C44 1_555 1_555
C46 C45 1_555 1_555
C47 C46 1_555 1_555
C48 C47 1_555 1_555
H20 C48 1_555 1_555
C49 C50 1_555 1_555
C50 C51 1_555 1_555
C51 H21 1_555 1_555
C52 C47 1_555 1_555
H22 C52 1_555 1_555
C53 C48 1_555 1_555
H23 C53 1_555 1_555
C54 O12 1_555 1_555
C55 N1 1_555 1_555
H24 C55 1_555 1_555
H25 C55 1_555 1_555
H26 C55 1_555 1_555
C56 N1 1_555 1_555
H27 C56 1_555 1_555
H28 C56 1_555 1_555
H29 C56 1_555 1_555
N2 C57 1_555 1_555
C57 O11 1_555 1_555
C58 N2 1_555 1_555
C59 N2 1_555 1_555
O9A C34 1_555 1_555
C36A C35 1_555 1_555
H16A C36A 1_555 1_555
C37A C38 1_555 1_555
H17A C37A 1_555 1_555
C42A C41 1_555 1_555
H18A C42A 1_555 1_555
C44A C43 1_555 1_555
C45A C44A 1_555 1_555
C46A C45A 1_555 1_555
C47A C46A 1_555 1_555
C48A C47A 1_555 1_555
H20A C48A 1_555 1_555
O7A C49A 1_555 1_555
O8A C49A 1_555 1_555
C49A C50A 1_555 1_555
C50A C51A 1_555 1_555
C51A H21A 1_555 1_555
C52A C47A 1_555 1_555
H22A C52A 1_555 1_555
C53A C48A 1_555 1_555
H23A C53A 1_555 1_555
Co1A O9A 1_555 1_555
Co2A O1A 1_555 1_555
O1A C1A 1_555 1_555
O2A Co1A 1_555 1_555
O3A C24A 1_555 1_555
O4A C24A 1_555 1_555
O5A C33A 1_555 1_555
O6A C33A 1_555 1_555
O10A Co3 1_555 1_555
O11A Co3 1_555 1_555
O12A Co1A 1_555 1_555
N1A C54A 1_555 1_555
C1A O2A 1_555 1_555
C2A C1A 1_555 1_555
C3A C2A 1_555 1_555
H1A C3A 1_555 1_555
C4A C3A 1_555 1_555
H2A C4A 1_555 1_555
C5A C4A 1_555 1_555
C6A C5A 1_555 1_555
H3A C6A 1_555 1_555
C7A C2A 1_555 1_555
H4A C7A 1_555 1_555
C8A C5A 1_555 1_555
C9A C8A 1_555 1_555
C10A C9A 1_555 1_555
C11A C10A 1_555 1_555
H5A C11A 1_555 1_555
C12A C11A 1_555 1_555
C13A C12A 1_555 1_555
H6A C13A 1_555 1_555
C14A C13A 1_555 1_555
C15A C10A 1_555 1_555
H7A C15A 1_555 1_555
C16A C12A 1_555 1_555
C17A C16A 1_555 1_555
C18A C17A 1_555 1_555
C19A C18A 1_555 1_555
H8A C19A 1_555 1_555
C20A C19A 1_555 1_555
H9A C20A 1_555 1_555
C21A C20A 1_555 1_555
C22A C21A 1_555 1_555
H10A C22A 1_555 1_555
C23A C18A 1_555 1_555
H11A C23A 1_555 1_555
C24A C21A 1_555 1_555
C25A C14A 1_555 1_555
C26A C25A 1_555 1_555
C27A C26A 1_555 1_555
C28A C27A 1_555 1_555
H12A C28A 1_555 1_555
C29A C28A 1_555 1_555
H13A C29A 1_555 1_555
C30A C29A 1_555 1_555
C31A C30A 1_555 1_555
H14A C31A 1_555 1_555
C32A C27A 1_555 1_555
H15A C32A 1_555 1_555
C33A C30A 1_555 1_555
C54A O12A 1_555 1_555
C55A N1A 1_555 1_555
H24A C55A 1_555 1_555
H25A C55A 1_555 1_555
H26A C55A 1_555 1_555
C56A N1A 1_555 1_555
H27A C56A 1_555 1_555
H28A C56A 1_555 1_555
H29A C56A 1_555 1_555
N2A C57A 1_555 1_555
C57A O11A 1_555 1_555
C58A N2A 1_555 1_555
C59A N2A 1_555 1_555
Co1B O8 1_555 1_555
Co1C O5 1_555 1_555
Co2B O7 1_555 1_555
Co2B_2 O4A 1_555 1_555
Co2C O4 1_555 1_555
Co2C_2 O7A 1_555 1_555
Co3B O6A 1_555 1_555
Co3B_2 O6 1_555 1_555
O4B Co2A 1_555 1_555
O4C Co2 1_555 1_555
O5B Co1A 1_555 1_555
O5C Co1 1_555 1_555
O6B Co3 1_555 1_555
O6C Co3 1_555 1_555
O7B Co2 1_555 1_555
O7C Co2A 1_555 1_555
O8B Co1 1_555 1_555
O8C Co1A 1_555 1_555
Co2 O10 1_555 1_555
C6 C7 1_555 1_555
C14 C15 1_555 1_555
C22 C23 1_555 1_555
C31 C32 1_555 1_555
C43 C44 1_555 1_555
C50 C53 1_555 1_555
C51 C52 1_555 1_555
C36A C37A 1_555 1_555
C42A C44A 1_555 1_555
O8A Co1C 1_555 1_555
C50A C53A 1_555 1_555
C51A C52A 1_555 1_555
Co1A O10A 1_555 1_555
Co2A O10A 1_555 1_555
O5A Co1B 1_555 1_555
C6A C7A 1_555 1_555
C14A C15A 1_555 1_555
C22A C23A 1_555 1_555
C31A C32A 1_555 1_555

#END
