
#######################################################################
#
#                 Cambridge Crystallographic Data Centre
#                                CCDC 
#
#######################################################################
#
# If this CIF has been generated from an entry in the Cambridge 
# Structural Database, then it will include bibliographic, chemical, 
# crystal, experimental, refinement or atomic coordinate data resulting 
# from the CCDC's data processing and validation procedures.
#
#######################################################################

data_KULLEK
_symmetry_cell_setting           monoclinic
_symmetry_space_group_name_H-M   'P 21/c'
_symmetry_Int_Tables_number      14
_space_group_name_Hall           '-P 2ybc'
loop_
_symmetry_equiv_pos_site_id
_symmetry_equiv_pos_as_xyz
1 x,y,z
2 -x,1/2+y,1/2-z
3 -x,-y,-z
4 x,1/2-y,1/2+z
_cell_length_a                   21.498(4)
_cell_length_b                   36.910(7)
_cell_length_c                   20.059(4)
_cell_angle_alpha                90
_cell_angle_beta                 106.852(2)
_cell_angle_gamma                90
_cell_volume                     15233.1
loop_
_atom_site_label
_atom_site_type_symbol
_atom_site_fract_x
_atom_site_fract_y
_atom_site_fract_z
Co1 Co 0.35708(4) 0.038400(19) 1.04073(5)
Co2 Co 0.19038(4) 0.038935(19) 0.92905(5)
Co3 Co 0.30017(4) 0.06009(2) 0.86095(5)
Co4 Co 0.30594(4) 0.12278(2) 1.09394(6)
Co5 Co 0.22177(6) 0.04333(3) 1.09676(7)
C1 C 0.2560(3) -0.01161(16) 0.8434(4)
C2 C 0.2574(3) -0.05023(15) 0.8215(3)
C3 C 0.3065(3) -0.06271(17) 0.7957(4)
H1 H 0.3403 -0.0468 0.7924
C4 C 0.3064(4) -0.09887(18) 0.7743(4)
H2 H 0.3405 -0.1076 0.7574
C5 C 0.2571(3) -0.12176(15) 0.7776(4)
C6 C 0.2086(4) -0.10883(17) 0.8038(4)
H3 H 0.1738 -0.1244 0.8052
C7 C 0.2096(3) -0.07438(16) 0.8276(4)
H4 H 0.1774 -0.0667 0.8485
C8 C 0.2541(3) -0.15852(17) 0.7530(4)
C9 C 0.2500(3) -0.18937(16) 0.7332(3)
C10 C 0.2429(3) -0.22678(14) 0.7151(3)
C11 C 0.2981(3) -0.24791(16) 0.7216(3)
H5 H 0.3400 -0.2373 0.7377
C12 C 0.2917(3) -0.28525(14) 0.7041(3)
C13 C 0.2304(3) -0.30036(14) 0.6829(3)
H6 H 0.2259 -0.3256 0.6734
C14 C 0.1819(3) -0.24260(15) 0.6910(3)
H7 H 0.1443 -0.2280 0.6853
C15 C 0.3467(3) -0.30681(17) 0.7045(4)
C16 C 0.3893(3) -0.32630(17) 0.6986(4)
C17 C 0.4376(4) -0.3512(2) 0.6907(6)
C18 C 0.4203(4) -0.3878(2) 0.6767(5)
H8 H 0.3796 -0.3967 0.6791
C19 C 0.4128(3) 0.11255(15) 1.0327(3)
C20 C 0.4721(3) 0.13568(15) 1.0380(3)
C21 C 0.4682(3) 0.17243(15) 1.0415(4)
H9 H 0.4274 0.1838 1.0361
C22 C 0.5246(3) 0.19333(17) 1.0532(4)
H10 H 0.5215 0.2190 1.0548
C23 C 0.5847(3) 0.17742(16) 1.0623(3)
C24 C 0.5874(4) 0.14093(19) 1.0574(5)
H11 H 0.6278 0.1293 1.0623
C25 C 0.5306(3) 0.12043(16) 1.0450(5)
H12 H 0.5334 0.0948 1.0415
C26 C 0.6422(3) 0.19887(16) 1.0770(4)
C27 C 0.6923(3) 0.21575(16) 1.0949(3)
C28 C 0.7534(3) 0.23404(15) 1.1203(3)
C29 C 0.7569(3) 0.27115(15) 1.1314(3)
H13 H 0.7183 0.2853 1.1187
C30 C 0.8170(3) 0.28789(15) 1.1613(3)
C31 C 0.8744(3) 0.26834(16) 1.1777(3)
H14 H 0.9151 0.2800 1.1969
C32 C 0.8708(3) 0.23014(16) 1.1647(3)
C33 C 0.8106(3) 0.21376(16) 1.1380(3)
H15 H 0.8083 0.1882 1.1317
C34 C 0.8184(3) 0.32599(18) 1.1770(4)
C35 C 0.8199(4) 0.35608(19) 1.1998(5)
C36 C 0.8191(5) 0.3899(3) 1.2329(6)
C37 C 0.9293(4) 0.21007(18) 1.1768(4)
C38 C 0.9782(4) 0.19269(19) 1.1816(4)
C39 C 0.2563(4) -0.01985(15) 1.0272(3)
C40 C 0.2368(3) -0.05864(16) 1.0223(3)
C41 C 0.2838(3) -0.08484(16) 1.0338(4)
H16 H 0.3280 -0.0779 1.0424
C42 C 0.2683(3) -0.12040(16) 1.0331(4)
H17 H 0.3021 -0.1379 1.0443
C43 C 0.2043(3) -0.13194(14) 1.0165(3)
C44 C 0.1556(3) -0.10532(17) 1.0033(4)
H18 H 0.1112 -0.1121 0.9921
C45 C 0.1728(3) -0.06904(15) 1.0065(4)
H19 H 0.1397 -0.0511 0.9978
C46 C 0.1887(3) -0.16988(15) 1.0150(3)
C47 C 0.1829(3) -0.20165(16) 1.0146(3)
C48 C 0.1798(3) -0.24035(15) 1.0166(3)
C49 C 0.2363(3) -0.26058(15) 1.0454(3)
H20 H 0.2764 -0.2484 1.0649
C50 C 0.2346(3) -0.29794(16) 1.0459(3)
C51 C 0.1759(3) -0.31614(15) 1.0132(3)
H21 H 0.1749 -0.3419 1.0114
C52 C 0.1192(3) -0.29623(15) 0.9832(3)
C53 C 0.1199(3) -0.25927(15) 0.9848(3)
H22 H 0.0810 -0.2460 0.9649
C54 C -0.1713(3) -0.41213(15) 0.6978(4)
C55 C -0.1227(3) -0.39038(16) 0.7528(4)
C56 C -0.0644(3) -0.38054(17) 0.7422(4)
H23 H -0.0560 -0.3872 0.6999
C57 C -0.0191(3) -0.36167(18) 0.7905(4)
H24 H 0.0210 -0.3556 0.7822
C58 C -0.0306(3) -0.35120(17) 0.8515(4)
C59 C -0.0895(4) -0.3599(2) 0.8632(5)
H25 H -0.0983 -0.3521 0.9047
C60 C -0.1358(4) -0.3803(2) 0.8140(5)
H26 H -0.1756 -0.3870 0.8224
C61 C 0.0194(4) -0.33122(17) 0.9041(4)
C62 C 0.0606(3) -0.31515(15) 0.9418(3)
C63 C -0.1709(3) -0.39209(18) 0.5053(4)
C64 C -0.1100(3) -0.37148(15) 0.5402(4)
C65 C -0.0498(3) -0.38827(19) 0.5519(4)
H27 H -0.0472 -0.4130 0.5400
C66 C 0.0051(3) -0.36889(19) 0.5803(4)
H28 H 0.0460 -0.3807 0.5890
C67 C 0.0040(3) -0.33217(18) 0.5974(3)
C68 C -0.0556(3) -0.31608(18) 0.5867(4)
H29 H -0.0584 -0.2914 0.5992
C69 C -0.1115(3) -0.3359(2) 0.5576(5)
H30 H -0.1525 -0.3243 0.5495
C70 C 0.0621(3) -0.31166(17) 0.6263(4)
C71 C 0.1124(3) -0.29571(16) 0.6497(3)
C72 C 0.1747(3) -0.27903(15) 0.6752(3)
C73 C 0.5827(4) -0.39175(19) 1.2798(5)
C74 C 0.5168(4) -0.37807(17) 1.2335(4)
C75 C 0.4850(3) -0.3526(2) 1.2585(4)
H31 H 0.5028 -0.3438 1.3046
C76 C 0.4253(4) -0.3389(2) 1.2168(4)
H32 H 0.4029 -0.3214 1.2358
C77 C 0.3996(4) -0.34985(17) 1.1521(4)
C78 C 0.3396(4) -0.33349(17) 1.1092(4)
C79 C 0.2912(3) -0.31802(16) 1.0785(3)
C80 C 0.8025(5) 0.4891(2) 1.3362(5)
C81 C 0.8083(5) 0.4543(3) 1.2996(6)
C82 C 0.8652(5) 0.4397(3) 1.3024(6)
H33 H 0.9034 0.4512 1.3306
C83 C 0.8720(5) 0.4094(3) 1.2672(6)
H34 H 0.9140 0.4017 1.2665
C84 C 0.7659(5) 0.4015(3) 1.2375(6)
H35 H 0.7289 0.3863 1.2215
C85 C 0.7570(5) 0.4365(3) 1.2654(6)
H36 H 0.7147 0.4462 1.2590
C86 C 1.0343(5) 0.1721(3) 1.1830(8)
C87 C 1.0904(5) 0.1855(3) 1.1985(8)
H37 H 1.0961 0.2099 1.2146
C88 C 1.1480(5) 0.1652(3) 1.1931(8)
H38 H 1.1883 0.1775 1.2004
C89 C 1.0860(5) 0.1201(3) 1.1593(8)
H39 H 1.0801 0.0964 1.1399
C90 C 1.0310(5) 0.1392(3) 1.1649(8)
H40 H 0.9903 0.1271 1.1548
C91 C 0.4964(4) -0.3379(2) 0.6836(5)
H41 H 0.5070 -0.3129 0.6893
C92 C 0.4651(4) -0.4107(2) 0.6590(5)
H42 H 0.4542 -0.4353 0.6481
C93 C 0.4881(5) -0.3917(3) 1.1689(6)
H43 H 0.5087 -0.4109 1.1518
C94 C 0.4296(5) -0.3781(3) 1.1273(6)
H44 H 0.4101 -0.3879 1.0823
C95 C 0.5722(4) -0.4239(2) 0.6361(6)
C96 C 0.5244(4) -0.3978(2) 0.6572(6)
C97 C 0.5389(4) -0.3628(2) 0.6676(5)
H45 H 0.5796 -0.3544 0.6640
C98 C 1.2006(4) 0.1128(2) 1.1702(5)
C99 C 1.1446(5) 0.1334(3) 1.1796(8)
C100 C 0.4195(3) -0.02443(16) 0.9744(4)
H46 H 0.4428 -0.0283 0.9396
H47 H 0.3786 -0.0381 0.9609
H48 H 0.4463 -0.0328 1.0200
C101 C 0.4884(4) 0.0297(2) 1.1672(6)
H49 H 0.5065 0.0139 1.2075
H50 H 0.4866 0.0546 1.1831
H51 H 0.5161 0.0287 1.1361
C102 C 0.0554(4) 0.0158(2) 0.8413(5)
H52 H 0.0148 0.0049 0.8448
H53 H 0.0734 0.0008 0.8111
H54 H 0.0466 0.0402 0.8217
C103 C 0.2548(4) 0.2031(2) 1.0885(6)
H55 H 0.2676 0.2286 1.0877
H56 H 0.2390 0.1989 1.1290
H57 H 0.2202 0.1975 1.0458
O1 O 0.28454(18) 0.05965(9) 0.9528(2)
O2 O 0.3053(2) 0.06599(11) 1.1003(3)
O3 O 0.3142(2) -0.01172(10) 1.0412(3)
O4 O 0.42239(19) 0.07898(10) 1.0404(2)
O5 O 0.4260(3) 0.01803(13) 1.1316(3)
O6 O 0.4060(2) 0.01275(10) 0.9780(3)
O7 O 0.0971(3) 0.01763(15) 0.9033(3)
O8 O 0.2103(2) 0.00421(10) 1.0140(2)
O9 O -0.1669(2) -0.42570(11) 0.4970(2)
O10 O 0.2128(2) -0.00221(10) 0.8702(2)
O11 O -0.15553(19) -0.42314(10) 0.6479(2)
O12 O 0.2990(2) 0.00921(10) 0.8320(3)
O13 O 0.6269(3) -0.41218(14) 0.6489(4)
O14 O -0.2273(2) -0.41681(12) 0.7082(3)
O15 O 0.3085(3) 0.18081(14) 1.0928(4)
O16 O 0.6083(2) -0.37341(12) 1.3307(3)
O17 O 1.2478(3) 0.12994(15) 1.1619(4)
O18 O -0.2230(2) -0.37432(12) 0.4884(3)
O19 O 0.35759(19) 0.12752(10) 1.0200(2)
O20 O 0.8521(3) 0.50472(16) 1.3774(3)
O21 O 1.1946(4) 0.07946(16) 1.1649(5)
O22 O 0.7437(3) 0.50339(14) 1.3235(4)
O23 O 0.6060(3) -0.41959(14) 1.2583(3)
O24 O 0.5513(3) -0.45360(14) 0.6124(3)
O25 O 0.30102(16) 0.06122(8) 1.19152(17)
Co2A Co -0.19038(4) -0.461065(19) 0.57095(5)
Co3A Co -0.30017(4) -0.43991(2) 0.63905(5)
Co3A_2 Co 0.69983(4) -0.43991(2) 0.63905(5)
Co4_2 Co 1.30594(4) 0.12278(2) 1.09394(6)
Co4A Co -0.30594(4) -0.37722(2) 0.40606(6)
Co4A_2 Co 0.69406(4) -0.37722(2) 1.40606(6)
Co5_2 Co 1.22177(6) 0.04333(3) 1.09676(7)
Co5A Co -0.22177(6) -0.45667(3) 0.40324(7)
Co5A_2 Co 0.77823(6) 0.54333(3) 1.40324(7)
O9A O 0.1669(2) 0.07430(11) 1.0030(2)
O11A O 0.15553(19) 0.07686(10) 0.8521(2)
O13A O 0.3731(3) 0.08782(14) 0.8511(4)
O14A O 0.2273(2) 0.08319(12) 0.7918(3)
O16A O 0.3917(2) 0.12659(12) 1.1693(3)
O17_2 O 0.2478(3) 0.12994(15) 1.1619(4)
O18A O 0.2230(2) 0.12568(12) 1.0116(3)
O20A O 0.1479(3) 0.00472(16) 1.1226(3)
O21_2 O 0.1946(4) 0.07946(16) 1.1649(5)
O22A O 0.2563(3) 0.00339(14) 1.1765(4)
loop_
_geom_bond_atom_site_label_1
_geom_bond_atom_site_label_2
_geom_bond_site_symmetry_1
_geom_bond_site_symmetry_2
Co1 O1 1_555 1_555
Co2 O1 1_555 1_555
Co3 O1 1_555 1_555
Co4 O2 1_555 1_555
Co5 O2 1_555 1_555
C1 C2 1_555 1_555
C2 C3 1_555 1_555
C3 H1 1_555 1_555
C4 C3 1_555 1_555
H2 C4 1_555 1_555
C5 C4 1_555 1_555
C6 C5 1_555 1_555
H3 C6 1_555 1_555
C7 C2 1_555 1_555
H4 C7 1_555 1_555
C8 C5 1_555 1_555
C9 C8 1_555 1_555
C10 C9 1_555 1_555
C11 C10 1_555 1_555
H5 C11 1_555 1_555
C12 C11 1_555 1_555
C13 C12 1_555 1_555
H6 C13 1_555 1_555
C14 C10 1_555 1_555
H7 C14 1_555 1_555
C15 C12 1_555 1_555
C16 C15 1_555 1_555
C17 C16 1_555 1_555
C18 C17 1_555 1_555
H8 C18 1_555 1_555
C19 C20 1_555 1_555
C20 C21 1_555 1_555
C21 H9 1_555 1_555
C22 C21 1_555 1_555
H10 C22 1_555 1_555
C23 C22 1_555 1_555
C24 C23 1_555 1_555
H11 C24 1_555 1_555
C25 C20 1_555 1_555
H12 C25 1_555 1_555
C26 C23 1_555 1_555
C27 C26 1_555 1_555
C28 C27 1_555 1_555
C29 C28 1_555 1_555
H13 C29 1_555 1_555
C30 C29 1_555 1_555
C31 C30 1_555 1_555
H14 C31 1_555 1_555
C32 C31 1_555 1_555
C33 C28 1_555 1_555
H15 C33 1_555 1_555
C34 C30 1_555 1_555
C35 C34 1_555 1_555
C36 C35 1_555 1_555
C37 C32 1_555 1_555
C38 C37 1_555 1_555
C39 C40 1_555 1_555
C40 C41 1_555 1_555
C41 H16 1_555 1_555
C42 C41 1_555 1_555
H17 C42 1_555 1_555
C43 C42 1_555 1_555
C44 C43 1_555 1_555
H18 C44 1_555 1_555
C45 C40 1_555 1_555
H19 C45 1_555 1_555
C46 C43 1_555 1_555
C47 C46 1_555 1_555
C48 C47 1_555 1_555
C49 C48 1_555 1_555
H20 C49 1_555 1_555
C50 C49 1_555 1_555
C51 C50 1_555 1_555
H21 C51 1_555 1_555
C52 C51 1_555 1_555
C53 C48 1_555 1_555
H22 C53 1_555 1_555
C54 C55 1_555 1_555
C55 C56 1_555 1_555
C56 H23 1_555 1_555
C57 C56 1_555 1_555
H24 C57 1_555 1_555
C58 C57 1_555 1_555
C59 C58 1_555 1_555
H25 C59 1_555 1_555
C60 C55 1_555 1_555
H26 C60 1_555 1_555
C61 C58 1_555 1_555
C62 C52 1_555 1_555
C63 C64 1_555 1_555
C64 C65 1_555 1_555
C65 H27 1_555 1_555
C66 C65 1_555 1_555
H28 C66 1_555 1_555
C67 C66 1_555 1_555
C68 C67 1_555 1_555
H29 C68 1_555 1_555
C69 C64 1_555 1_555
H30 C69 1_555 1_555
C70 C67 1_555 1_555
C71 C70 1_555 1_555
C72 C13 1_555 1_555
C73 C74 1_555 1_555
C74 C75 1_555 1_555
C75 H31 1_555 1_555
C76 C75 1_555 1_555
H32 C76 1_555 1_555
C77 C76 1_555 1_555
C78 C77 1_555 1_555
C79 C50 1_555 1_555
C80 C81 1_555 1_555
C81 C82 1_555 1_555
C82 H33 1_555 1_555
C83 C36 1_555 1_555
H34 C83 1_555 1_555
C84 C36 1_555 1_555
H35 C84 1_555 1_555
C85 C81 1_555 1_555
H36 C85 1_555 1_555
C86 C38 1_555 1_555
C87 C86 1_555 1_555
H37 C87 1_555 1_555
C88 C87 1_555 1_555
H38 C88 1_555 1_555
C89 H39 1_555 1_555
C90 C86 1_555 1_555
H40 C90 1_555 1_555
C91 C17 1_555 1_555
H41 C91 1_555 1_555
C92 C18 1_555 1_555
H42 C92 1_555 1_555
C93 C74 1_555 1_555
H43 C93 1_555 1_555
C94 C77 1_555 1_555
H44 C94 1_555 1_555
C95 C96 1_555 1_555
C96 C92 1_555 1_555
C97 C91 1_555 1_555
H45 C97 1_555 1_555
C98 C99 1_555 1_555
C99 C88 1_555 1_555
C100 H46 1_555 1_555
H47 C100 1_555 1_555
H48 C100 1_555 1_555
C101 H49 1_555 1_555
H50 C101 1_555 1_555
H51 C101 1_555 1_555
C102 H52 1_555 1_555
H53 C102 1_555 1_555
H54 C102 1_555 1_555
C103 H55 1_555 1_555
H56 C103 1_555 1_555
H57 C103 1_555 1_555
O2 Co1 1_555 1_555
O3 Co1 1_555 1_555
O4 Co1 1_555 1_555
O5 Co1 1_555 1_555
O6 Co1 1_555 1_555
O7 Co2 1_555 1_555
O8 Co2 1_555 1_555
O9 C63 1_555 1_555
O10 Co2 1_555 1_555
O11 C54 1_555 1_555
O12 Co3 1_555 1_555
O13 C95 1_555 1_555
O14 C54 1_555 1_555
O15 Co4 1_555 1_555
O16 C73 1_555 1_555
O17 C98 1_555 1_555
O18 C63 1_555 1_555
O19 Co4 1_555 1_555
O20 C80 1_555 1_555
O21 C98 1_555 1_555
O22 C80 1_555 1_555
O23 C73 1_555 1_555
O24 C95 1_555 1_555
O25 Co5 1_555 1_555
Co2A O9 1_555 1_555
Co3A O14 1_555 1_555
Co3A_2 O13 1_555 1_555
Co4_2 O17 1_555 1_555
Co4A O18 1_555 1_555
Co4A_2 O16 1_555 1_555
Co5_2 O21 1_555 1_555
Co5A O9 1_555 1_555
Co5A_2 O20 1_555 1_555
O9A Co2 1_555 1_555
O11A Co2 1_555 1_555
O13A Co3 1_555 1_555
O14A Co3 1_555 1_555
O16A Co4 1_555 1_555
O17_2 Co4 1_555 1_555
O18A Co4 1_555 1_555
O20A Co5 1_555 1_555
O21_2 Co5 1_555 1_555
O22A Co5 1_555 1_555
Co5 O8 1_555 1_555
Co5 O9A 1_555 1_555
C1 O10 1_555 1_555
C1 O12 1_555 1_555
C6 C7 1_555 1_555
C14 C72 1_555 1_555
C19 O4 1_555 1_555
C19 O19 1_555 1_555
C24 C25 1_555 1_555
C32 C33 1_555 1_555
C39 O3 1_555 1_555
C39 O8 1_555 1_555
C44 C45 1_555 1_555
C52 C53 1_555 1_555
C59 C60 1_555 1_555
C61 C62 1_555 1_555
C68 C69 1_555 1_555
C71 C72 1_555 1_555
C78 C79 1_555 1_555
C82 C83 1_555 1_555
C84 C85 1_555 1_555
C89 C90 1_555 1_555
C89 C99 1_555 1_555
C93 C94 1_555 1_555
C96 C97 1_555 1_555
C100 O6 1_555 1_555
C101 O5 1_555 1_555
C102 O7 1_555 1_555
C103 O15 1_555 1_555
O11 Co2A 1_555 1_555
O22 Co5A_2 1_555 1_555

#END
