
#######################################################################
#
#                 Cambridge Crystallographic Data Centre
#                                CCDC 
#
#######################################################################
#
# If this CIF has been generated from an entry in the Cambridge 
# Structural Database, then it will include bibliographic, chemical, 
# crystal, experimental, refinement or atomic coordinate data resulting 
# from the CCDC's data processing and validation procedures.
#
#######################################################################

data_KUMGUW
_symmetry_cell_setting           trigonal
_symmetry_space_group_name_H-M   'P -3 c 1'
_symmetry_Int_Tables_number      165
_space_group_name_Hall           '-P 3 2"c'
loop_
_symmetry_equiv_pos_site_id
_symmetry_equiv_pos_as_xyz
1 x,y,z
2 -y,x-y,z
3 -x+y,-x,z
4 y,x,1/2-z
5 -x,-x+y,1/2-z
6 x-y,-y,1/2-z
7 -x,-y,-z
8 y,-x+y,-z
9 x-y,x,-z
10 -y,-x,1/2+z
11 x,x-y,1/2+z
12 -x+y,y,1/2+z
_cell_length_a                   27.545(4)
_cell_length_b                   27.545(4)
_cell_length_c                   13.555(3)
_cell_angle_alpha                90
_cell_angle_beta                 90
_cell_angle_gamma                120
_cell_volume                     8906.68
loop_
_atom_site_label
_atom_site_type_symbol
_atom_site_fract_x
_atom_site_fract_y
_atom_site_fract_z
W1 W 0.6667 0.3333 0.41305(3)
Cu1 Cu 0.58018(4) 0.26201(4) 0.29806(6)
S1 S 0.58902(8) 0.25960(9) 0.46527(14)
S2 S 0.6667 0.3333 0.2437(2)
N1 N 0.5540(2) 0.1896(2) 0.2224(4)
N2 N 0.5211(2) 0.2879(2) 0.2793(5)
N3 N 0.5205(3) 0.0507(3) -0.0454(5)
N4 N 0.4905(3) -0.0043(3) 0.0979(5)
N5 N 0.4111(6) 0.3775(6) 0.1649(12)
N6 N 0.4087(6) 0.3796(5) 0.3338(13)
C1 C 0.5599(3) 0.1925(3) 0.1245(6)
H1 H 0.5737 0.2271 0.0940
C2 C 0.5463(4) 0.1462(3) 0.0666(5)
H2 H 0.5510 0.1498 -0.0014
C3 C 0.5256(3) 0.0945(3) 0.1110(5)
C4 C 0.5186(4) 0.0906(3) 0.2121(5)
H3 H 0.5046 0.0562 0.2437
C5 C 0.5332(4) 0.1398(3) 0.2669(6)
H4 H 0.5281 0.1374 0.3349
C6 C 0.5119(3) 0.0443(3) 0.0505(6)
C7 C 0.5088(4) 0.3026(5) 0.1969(7)
H5 H 0.5229 0.2960 0.1392
C8 C 0.4761(5) 0.3274(5) 0.1881(9)
H6 H 0.4714 0.3386 0.1257
C9 C 0.4525(4) 0.3356(4) 0.2596(11)
C10 C 0.4665(6) 0.3257(7) 0.3457(11)
H7 H 0.4552 0.3365 0.4023
C11 C 0.4993(6) 0.2986(6) 0.3553(9)
H8 H 0.5050 0.2885 0.4178
C12 C 0.4216(6) 0.3641(5) 0.2542(14)
N1F N 0.4460(2) -0.1896(2) -0.2224(4)
N3F N 0.4795(3) -0.0507(3) 0.0454(5)
N4F N 0.5095(3) 0.0043(3) -0.0979(5)
C1F C 0.4401(3) -0.1925(3) -0.1245(6)
H1F H 0.4263 -0.2271 -0.0940
C2F C 0.4537(4) -0.1462(3) -0.0666(5)
H2F H 0.4490 -0.1498 0.0014
C3F C 0.4744(3) -0.0945(3) -0.1110(5)
C4F C 0.4814(4) -0.0906(3) -0.2121(5)
H3F H 0.4954 -0.0562 -0.2437
C5F C 0.4668(4) -0.1398(3) -0.2669(6)
H4F H 0.4719 -0.1374 -0.3349
C6F C 0.4881(3) -0.0443(3) -0.0505(6)
N2C N 0.2879(2) 0.5211(2) 0.2207(5)
N5C N 0.3775(6) 0.4111(6) 0.3351(12)
N6C N 0.3796(5) 0.4087(6) 0.1662(13)
C7C C 0.3026(5) 0.5088(4) 0.3031(7)
H5C H 0.2960 0.5229 0.3608
C8C C 0.3274(5) 0.4761(5) 0.3119(9)
H6C H 0.3386 0.4714 0.3743
C9C C 0.3356(4) 0.4525(4) 0.2404(11)
C10C C 0.3257(7) 0.4665(6) 0.1543(11)
H7C H 0.3365 0.4552 0.0977
C11C C 0.2986(6) 0.4993(6) 0.1447(9)
H8C H 0.2885 0.5050 0.0822
C12C C 0.3641(5) 0.4216(6) 0.2458(14)
Cu1A Cu 0.73799(4) 0.31817(6) 0.29806(6)
S1A S 0.74040(9) 0.32942(12) 0.46527(14)
N1A N 0.8104(2) 0.3644(3) 0.2224(4)
N2A N 0.7121(2) 0.2332(3) 0.2793(5)
N3A N 0.9493(3) 0.4698(4) -0.0454(5)
N4A N 1.0043(3) 0.4948(4) 0.0979(5)
N5A N 0.6225(6) 0.0336(8) 0.1649(12)
N6A N 0.6204(5) 0.0291(8) 0.3338(13)
C1A C 0.8075(3) 0.3674(4) 0.1245(6)
H1A H 0.7729 0.3466 0.0940
C2A C 0.8538(3) 0.4001(5) 0.0666(5)
H2A H 0.8502 0.4012 -0.0014
C3A C 0.9055(3) 0.4311(4) 0.1110(5)
C4A C 0.9094(3) 0.4280(5) 0.2121(5)
H3A H 0.9438 0.4484 0.2437
C5A C 0.8602(3) 0.3934(5) 0.2669(6)
H4A H 0.8626 0.3907 0.3349
C6A C 0.9557(3) 0.4676(4) 0.0505(6)
C7A C 0.6974(5) 0.2062(6) 0.1969(7)
H5A H 0.7040 0.2269 0.1392
C8A C 0.6726(5) 0.1487(7) 0.1881(9)
H6A H 0.6614 0.1328 0.1257
C9A C 0.6644(4) 0.1169(6) 0.2596(11)
C10A C 0.6743(7) 0.1408(9) 0.3457(11)
H7A H 0.6635 0.1187 0.4023
C11A C 0.7014(6) 0.2007(8) 0.3553(9)
H8A H 0.7115 0.2165 0.4178
C12A C 0.6359(5) 0.0575(8) 0.2542(14)
N1G N 1.1896(2) 0.6356(3) -0.2224(4)
N3G N 1.0507(3) 0.5302(4) 0.0454(5)
N4G N 0.9957(3) 0.5052(4) -0.0979(5)
C1G C 1.1925(3) 0.6326(4) -0.1245(6)
H1G H 1.2271 0.6534 -0.0940
C2G C 1.1462(3) 0.5999(5) -0.0666(5)
H2G H 1.1498 0.5988 0.0014
C3G C 1.0945(3) 0.5689(4) -0.1110(5)
C4G C 1.0906(3) 0.5720(5) -0.2121(5)
H3G H 1.0562 0.5516 -0.2437
C5G C 1.1398(3) 0.6066(5) -0.2669(6)
H4G H 1.1374 0.6093 -0.3349
C6G C 1.0443(3) 0.5324(4) -0.0505(6)
N2D N 0.4789(2) -0.2332(3) 0.2207(5)
N5D N 0.5889(6) -0.0336(8) 0.3351(12)
N6D N 0.5913(6) -0.0291(8) 0.1662(13)
C7D C 0.4912(4) -0.2062(6) 0.3031(7)
H5D H 0.4771 -0.2269 0.3608
C8D C 0.5239(5) -0.1487(7) 0.3119(9)
H6D H 0.5286 -0.1328 0.3743
C9D C 0.5475(4) -0.1169(6) 0.2404(11)
C10D C 0.5335(6) -0.1408(9) 0.1543(11)
H7D H 0.5448 -0.1187 0.0977
C11D C 0.5007(6) -0.2007(8) 0.1447(9)
H8D H 0.4950 -0.2165 0.0822
C12D C 0.5784(6) -0.0575(8) 0.2458(14)
Cu1B Cu 0.68183(6) 0.41982(4) 0.29806(6)
S1B S 0.67058(12) 0.41098(8) 0.46527(14)
N1B N 0.6356(3) 0.4460(2) 0.2224(4)
N2B N 0.7668(3) 0.4789(2) 0.2793(5)
N3B N 0.5302(4) 0.4795(3) -0.0454(5)
N4B N 0.5052(4) 0.5095(3) 0.0979(5)
N5B N 0.9664(8) 0.5889(6) 0.1649(12)
N6B N 0.9709(8) 0.5913(6) 0.3338(13)
C1B C 0.6326(4) 0.4401(3) 0.1245(6)
H1B H 0.6534 0.4263 0.0940
C2B C 0.5999(5) 0.4537(4) 0.0666(5)
H2B H 0.5988 0.4490 -0.0014
C3B C 0.5689(4) 0.4744(3) 0.1110(5)
C4B C 0.5720(5) 0.4814(4) 0.2121(5)
H3B H 0.5516 0.4954 0.2437
C5B C 0.6066(5) 0.4668(4) 0.2669(6)
H4B H 0.6093 0.4719 0.3349
C6B C 0.5324(4) 0.4881(3) 0.0505(6)
C7B C 0.7938(6) 0.4912(4) 0.1969(7)
H5B H 0.7731 0.4771 0.1392
C8B C 0.8513(7) 0.5239(5) 0.1881(9)
H6B H 0.8672 0.5286 0.1257
C9B C 0.8831(6) 0.5475(4) 0.2596(11)
C10B C 0.8592(9) 0.5335(6) 0.3457(11)
H7B H 0.8813 0.5448 0.4023
C11B C 0.7993(8) 0.5007(6) 0.3553(9)
H8B H 0.7835 0.4950 0.4178
C12B C 0.9425(8) 0.5784(6) 0.2542(14)
N1H N 0.3644(3) 0.5540(2) -0.2224(4)
N3H N 0.4698(4) 0.5205(3) 0.0454(5)
N4H N 0.4948(4) 0.4905(3) -0.0979(5)
C1H C 0.3674(4) 0.5599(3) -0.1245(6)
H1H H 0.3466 0.5737 -0.0940
C2H C 0.4001(5) 0.5463(4) -0.0666(5)
H2H H 0.4012 0.5510 0.0014
C3H C 0.4311(4) 0.5256(3) -0.1110(5)
C4H C 0.4280(5) 0.5186(4) -0.2121(5)
H3H H 0.4484 0.5046 -0.2437
C5H C 0.3934(5) 0.5332(4) -0.2669(6)
H4H H 0.3907 0.5281 -0.3349
C6H C 0.4676(4) 0.5119(3) -0.0505(6)
N2E N 1.2332(3) 0.7121(2) 0.2207(5)
N5E N 1.0336(8) 0.6225(6) 0.3351(12)
N6E N 1.0291(8) 0.6204(5) 0.1662(13)
C7E C 1.2062(6) 0.6974(5) 0.3031(7)
H5E H 1.2269 0.7040 0.3608
C8E C 1.1487(7) 0.6726(5) 0.3119(9)
H6E H 1.1328 0.6614 0.3743
C9E C 1.1169(6) 0.6644(4) 0.2404(11)
C10E C 1.1408(9) 0.6743(7) 0.1543(11)
H7E H 1.1187 0.6635 0.0977
C11E C 1.2007(8) 0.7014(6) 0.1447(9)
H8E H 1.2165 0.7115 0.0822
C12E C 1.0575(8) 0.6359(5) 0.2458(14)
W1F W 0.3333 -0.3333 -0.41305(3)
Cu1F Cu 0.41982(4) -0.26201(4) -0.29806(6)
S1F S 0.41098(8) -0.25960(9) -0.46527(14)
S2F S 0.3333 -0.3333 -0.2437(2)
Cu1G Cu 0.26201(4) -0.31817(6) -0.29806(6)
S1G S 0.25960(9) -0.32942(12) -0.46527(14)
Cu1H Cu 0.31817(6) -0.41982(4) -0.29806(6)
S1H S 0.32942(12) -0.41098(8) -0.46527(14)
Cu1C Cu 0.26201(4) 0.58018(4) 0.20194(6)
Cu1D Cu 0.41982(4) -0.31817(6) 0.20194(6)
Cu1E Cu 1.31817(6) 0.73799(4) 0.20194(6)
Cu1G_2 Cu 1.26201(4) 0.68183(6) -0.29806(6)
Cu1H_2 Cu 0.31817(6) 0.58018(4) -0.29806(6)
N1G_2 N 0.1896(2) -0.3644(3) -0.2224(4)
N1H_2 N 0.3644(3) -0.4460(2) -0.2224(4)
N2F N 0.4789(2) -0.2879(2) -0.2793(5)
N2G N 0.2879(2) -0.2332(3) -0.2793(5)
N2H N 0.2332(3) -0.4789(2) -0.2793(5)
loop_
_geom_bond_atom_site_label_1
_geom_bond_atom_site_label_2
_geom_bond_site_symmetry_1
_geom_bond_site_symmetry_2
W1 S1 1_555 1_555
Cu1 S1 1_555 1_555
S2 W1 1_555 1_555
N1 Cu1 1_555 1_555
N2 Cu1 1_555 1_555
N3 C6 1_555 1_555
N4 C6 1_555 1_555
N5 C12 1_555 1_555
N6 C12 1_555 1_555
C1 N1 1_555 1_555
H1 C1 1_555 1_555
C2 C1 1_555 1_555
H2 C2 1_555 1_555
C3 C2 1_555 1_555
C4 C3 1_555 1_555
H3 C4 1_555 1_555
C5 N1 1_555 1_555
H4 C5 1_555 1_555
C6 C3 1_555 1_555
C7 N2 1_555 1_555
H5 C7 1_555 1_555
C8 C7 1_555 1_555
H6 C8 1_555 1_555
C9 C8 1_555 1_555
C10 C9 1_555 1_555
H7 C10 1_555 1_555
C11 N2 1_555 1_555
H8 C11 1_555 1_555
C12 C9 1_555 1_555
N1F C1F 1_555 1_555
N3F N4 1_555 1_555
N4F N3 1_555 1_555
C1F H1F 1_555 1_555
C2F C1F 1_555 1_555
H2F C2F 1_555 1_555
C3F C2F 1_555 1_555
C4F C3F 1_555 1_555
H3F C4F 1_555 1_555
C5F N1F 1_555 1_555
H4F C5F 1_555 1_555
C6F N3F 1_555 1_555
N2C C7C 1_555 1_555
N5C N6 1_555 1_555
N6C N5 1_555 1_555
C7C H5C 1_555 1_555
C8C C7C 1_555 1_555
H6C C8C 1_555 1_555
C9C C8C 1_555 1_555
C10C C9C 1_555 1_555
H7C C10C 1_555 1_555
C11C N2C 1_555 1_555
H8C C11C 1_555 1_555
C12C N5C 1_555 1_555
Cu1A S2 1_555 1_555
S1A W1 1_555 1_555
N1A Cu1A 1_555 1_555
N2A Cu1A 1_555 1_555
N3A C6A 1_555 1_555
N4A C6A 1_555 1_555
N5A C12A 1_555 1_555
N6A C12A 1_555 1_555
C1A N1A 1_555 1_555
H1A C1A 1_555 1_555
C2A C1A 1_555 1_555
H2A C2A 1_555 1_555
C3A C2A 1_555 1_555
C4A C3A 1_555 1_555
H3A C4A 1_555 1_555
C5A N1A 1_555 1_555
H4A C5A 1_555 1_555
C6A C3A 1_555 1_555
C7A N2A 1_555 1_555
H5A C7A 1_555 1_555
C8A C7A 1_555 1_555
H6A C8A 1_555 1_555
C9A C8A 1_555 1_555
C10A C9A 1_555 1_555
H7A C10A 1_555 1_555
C11A N2A 1_555 1_555
H8A C11A 1_555 1_555
C12A C9A 1_555 1_555
N1G C1G 1_555 1_555
N3G N4A 1_555 1_555
N4G N3A 1_555 1_555
C1G H1G 1_555 1_555
C2G C1G 1_555 1_555
H2G C2G 1_555 1_555
C3G C2G 1_555 1_555
C4G C3G 1_555 1_555
H3G C4G 1_555 1_555
C5G N1G 1_555 1_555
H4G C5G 1_555 1_555
C6G N3G 1_555 1_555
N2D C7D 1_555 1_555
N5D N6A 1_555 1_555
N6D N5A 1_555 1_555
C7D H5D 1_555 1_555
C8D C7D 1_555 1_555
H6D C8D 1_555 1_555
C9D C8D 1_555 1_555
C10D C9D 1_555 1_555
H7D C10D 1_555 1_555
C11D N2D 1_555 1_555
H8D C11D 1_555 1_555
C12D N5D 1_555 1_555
Cu1B S2 1_555 1_555
S1B W1 1_555 1_555
N1B Cu1B 1_555 1_555
N2B Cu1B 1_555 1_555
N3B C6B 1_555 1_555
N4B C6B 1_555 1_555
N5B C12B 1_555 1_555
N6B C12B 1_555 1_555
C1B N1B 1_555 1_555
H1B C1B 1_555 1_555
C2B C1B 1_555 1_555
H2B C2B 1_555 1_555
C3B C2B 1_555 1_555
C4B C3B 1_555 1_555
H3B C4B 1_555 1_555
C5B N1B 1_555 1_555
H4B C5B 1_555 1_555
C6B C3B 1_555 1_555
C7B N2B 1_555 1_555
H5B C7B 1_555 1_555
C8B C7B 1_555 1_555
H6B C8B 1_555 1_555
C9B C8B 1_555 1_555
C10B C9B 1_555 1_555
H7B C10B 1_555 1_555
C11B N2B 1_555 1_555
H8B C11B 1_555 1_555
C12B C9B 1_555 1_555
N1H C1H 1_555 1_555
N3H N4B 1_555 1_555
N4H N3B 1_555 1_555
C1H H1H 1_555 1_555
C2H C1H 1_555 1_555
H2H C2H 1_555 1_555
C3H C2H 1_555 1_555
C4H C3H 1_555 1_555
H3H C4H 1_555 1_555
C5H N1H 1_555 1_555
H4H C5H 1_555 1_555
C6H N3H 1_555 1_555
N2E C7E 1_555 1_555
N5E N6B 1_555 1_555
N6E N5B 1_555 1_555
C7E H5E 1_555 1_555
C8E C7E 1_555 1_555
H6E C8E 1_555 1_555
C9E C8E 1_555 1_555
C10E C9E 1_555 1_555
H7E C10E 1_555 1_555
C11E N2E 1_555 1_555
H8E C11E 1_555 1_555
C12E N5E 1_555 1_555
W1F S1F 1_555 1_555
Cu1F N1F 1_555 1_555
S1F Cu1F 1_555 1_555
S2F W1F 1_555 1_555
Cu1G S2F 1_555 1_555
S1G W1F 1_555 1_555
Cu1H S2F 1_555 1_555
S1H W1F 1_555 1_555
Cu1C N2C 1_555 1_555
Cu1D N2D 1_555 1_555
Cu1E N2E 1_555 1_555
Cu1G_2 N1G 1_555 1_555
Cu1H_2 N1H 1_555 1_555
N1G_2 Cu1G 1_555 1_555
N1H_2 Cu1H 1_555 1_555
N2F Cu1F 1_555 1_555
N2G Cu1G 1_555 1_555
N2H Cu1H 1_555 1_555
Cu1 S2 1_555 1_555
C4 C5 1_555 1_555
C10 C11 1_555 1_555
N4F C6F 1_555 1_555
C3F C6F 1_555 1_555
C4F C5F 1_555 1_555
N6C C12C 1_555 1_555
C9C C12C 1_555 1_555
C10C C11C 1_555 1_555
Cu1A S1A 1_555 1_555
C4A C5A 1_555 1_555
C10A C11A 1_555 1_555
N4G C6G 1_555 1_555
C3G C6G 1_555 1_555
C4G C5G 1_555 1_555
N6D C12D 1_555 1_555
C9D C12D 1_555 1_555
C10D C11D 1_555 1_555
Cu1B S1B 1_555 1_555
C4B C5B 1_555 1_555
C10B C11B 1_555 1_555
N4H C6H 1_555 1_555
C3H C6H 1_555 1_555
C4H C5H 1_555 1_555
N6E C12E 1_555 1_555
C9E C12E 1_555 1_555
C10E C11E 1_555 1_555
Cu1F S2F 1_555 1_555
Cu1G S1G 1_555 1_555
Cu1H S1H 1_555 1_555

#END
