
#######################################################################
#
#                 Cambridge Crystallographic Data Centre
#                                CCDC 
#
#######################################################################
#
# If this CIF has been generated from an entry in the Cambridge 
# Structural Database, then it will include bibliographic, chemical, 
# crystal, experimental, refinement or atomic coordinate data resulting 
# from the CCDC's data processing and validation procedures.
#
#######################################################################

data_KUNSET
_symmetry_cell_setting           monoclinic
_symmetry_space_group_name_H-M   'C 2/c'
_symmetry_Int_Tables_number      15
_space_group_name_Hall           '-C 2yn'
loop_
_symmetry_equiv_pos_site_id
_symmetry_equiv_pos_as_xyz
1 x,y,z
2 -x,y,1/2-z
3 1/2+x,1/2+y,z
4 1/2-x,1/2+y,1/2-z
5 -x,-y,-z
6 x,-y,1/2+z
7 1/2-x,1/2-y,-z
8 1/2+x,1/2-y,1/2+z
_cell_length_a                   31.818(8)
_cell_length_b                   13.992(3)
_cell_length_c                   19.340(5)
_cell_angle_alpha                90
_cell_angle_beta                 98.544(3)
_cell_angle_gamma                90
_cell_volume                     8514.56
loop_
_atom_site_label
_atom_site_type_symbol
_atom_site_fract_x
_atom_site_fract_y
_atom_site_fract_z
Eu1 Eu 0.56042(3) 0.44150(6) 0.49884(5)
N1 N 0.8401(6) 0.4201(12) 0.7103(9)
H1 H 0.8241 0.3759 0.7255
N2 N 0.9074(7) 0.4911(15) 0.7052(10)
H2 H 0.9351 0.4916 0.7183
N3 N 0.8466(5) 0.5629(12) 0.6452(8)
H3 H 0.8347 0.6095 0.6185
N4 N 0.6065(6) 0.5406(13) 0.2935(11)
O1 O 0.6243(4) 0.4094(8) 0.5832(6)
O2 O 0.6302(3) 0.5327(8) 0.5173(6)
O3 O 0.9777(4) 0.9266(9) 0.5501(6)
O4 O 0.9451(4) 0.0511(9) 0.9104(6)
O5 O 1.0335(4) 0.8343(8) 0.5800(6)
O6 O 1.0054(4) 0.1330(9) 0.9208(6)
O7 O 0.5851(4) 0.4585(10) 0.3831(8)
O8 O 0.5885(4) 0.2713(12) 0.4812(8)
C1 C 0.6454(6) 0.4740(14) 0.5624(10)
C2 C 0.6923(6) 0.4797(14) 0.5922(10)
C3 C 0.7114(6) 0.4100(14) 0.6357(10)
H4 H 0.6948 0.3577 0.6475
C4 C 0.7543(6) 0.4132(14) 0.6631(10)
H5 H 0.7679 0.3647 0.6928
C5 C 0.7756(7) 0.4920(17) 0.6437(12)
C6 C 0.7588(7) 0.5589(17) 0.6000(12)
H6 H 0.7766 0.6071 0.5853
C7 C 0.7151(7) 0.5599(16) 0.5749(11)
H7 H 0.7019 0.6114 0.5480
C8 C 0.8229(8) 0.4935(18) 0.6681(12)
C9 C 0.8894(8) 0.5590(18) 0.6645(12)
C10 C 0.8833(9) 0.4193(19) 0.7275(14)
C11 C 0.9017(8) 0.3471(18) 0.7743(13)
C12 C 0.8799(7) 0.2770(15) 0.8013(11)
H8 H 0.8498 0.2769 0.7911
C13 C 0.9002(6) 0.2040(14) 0.8440(10)
H9 H 0.8837 0.1584 0.8645
C14 C 0.9447(7) 0.1984(15) 0.8564(11)
C15 C 0.9679(9) 0.2657(19) 0.8273(13)
H10 H 0.9980 0.2604 0.8340
C16 C 0.9486(9) 0.342(2) 0.7881(14)
H11 H 0.9654 0.3900 0.7707
C17 C 0.9164(6) 0.6361(14) 0.6407(10)
C18 C 0.9602(6) 0.6321(15) 0.6660(10)
H12 H 0.9718 0.5818 0.6958
C19 C 0.9857(6) 0.7043(13) 0.6459(9)
H13 H 1.0153 0.7061 0.6630
C20 C 0.9664(6) 0.7762(13) 0.5985(9)
C21 C 0.9229(6) 0.7774(15) 0.5731(10)
H14 H 0.9107 0.8259 0.5421
C22 C 0.8983(6) 0.7040(14) 0.5952(10)
H15 H 0.8687 0.7013 0.5784
C23 C 0.9952(7) 0.8509(15) 0.5754(10)
C24 C 0.9670(8) 0.1203(16) 0.8987(10)
C25 C 0.6083(7) 0.5191(15) 0.3597(13)
C26 C 0.5745(9) 0.489(2) 0.2435(16)
C27 C 0.5302(8) 0.528(2) 0.248(2)
C28 C 0.6328(8) 0.6111(19) 0.2631(16)
C29 C 0.6056(11) 0.693(2) 0.2303(19)
Eu1B Eu 1.06042(3) 0.94150(6) 0.49884(5)
Eu1C Eu 0.93958(3) -0.05850(6) 1.00116(5)
Eu1F Eu 0.93958(3) 1.05850(6) 0.50116(5)
Eu1G Eu 1.06042(3) 0.05850(6) 0.99884(5)
O3F O 0.5223(4) 0.5734(9) 0.4499(6)
O4C O 0.5549(4) 0.5511(9) 0.5896(6)
O5B O 0.5335(4) 0.3343(8) 0.5800(6)
O6G O 0.5054(4) 0.3670(9) 0.4208(6)
loop_
_geom_bond_atom_site_label_1
_geom_bond_atom_site_label_2
_geom_bond_site_symmetry_1
_geom_bond_site_symmetry_2
Eu1 O1 1_555 1_555
N1 H1 1_555 1_555
N2 H2 1_555 1_555
N3 H3 1_555 1_555
N4 C25 1_555 1_555
O1 C1 1_555 1_555
O2 Eu1 1_555 1_555
O3 C23 1_555 1_555
O4 C24 1_555 1_555
O5 C23 1_555 1_555
O6 C24 1_555 1_555
O7 Eu1 1_555 1_555
O8 Eu1 1_555 1_555
C1 O2 1_555 1_555
C2 C1 1_555 1_555
C3 C2 1_555 1_555
H4 C3 1_555 1_555
C4 C3 1_555 1_555
H5 C4 1_555 1_555
C5 C4 1_555 1_555
C6 C5 1_555 1_555
H6 C6 1_555 1_555
C7 C2 1_555 1_555
H7 C7 1_555 1_555
C8 N1 1_555 1_555
C9 N2 1_555 1_555
C10 N1 1_555 1_555
C11 C10 1_555 1_555
C12 C11 1_555 1_555
H8 C12 1_555 1_555
C13 C12 1_555 1_555
H9 C13 1_555 1_555
C14 C13 1_555 1_555
C15 C14 1_555 1_555
H10 C15 1_555 1_555
C16 C11 1_555 1_555
H11 C16 1_555 1_555
C17 C9 1_555 1_555
C18 C17 1_555 1_555
H12 C18 1_555 1_555
C19 C18 1_555 1_555
H13 C19 1_555 1_555
C20 C19 1_555 1_555
C21 C20 1_555 1_555
H14 C21 1_555 1_555
C22 C17 1_555 1_555
H15 C22 1_555 1_555
C23 C20 1_555 1_555
C24 C14 1_555 1_555
C25 O7 1_555 1_555
C26 N4 1_555 1_555
C27 C26 1_555 1_555
C28 N4 1_555 1_555
C29 C28 1_555 1_555
Eu1B O5 1_555 1_555
Eu1C O4 1_555 1_555
Eu1F O3 1_555 1_555
Eu1G O6 1_555 1_555
O3F Eu1 1_555 1_555
O4C Eu1 1_555 1_555
O5B Eu1 1_555 1_555
O6G Eu1 1_555 1_555
N2 C10 1_555 1_555
N3 C8 1_555 1_555
N3 C9 1_555 1_555
C5 C8 1_555 1_555
C6 C7 1_555 1_555
C15 C16 1_555 1_555
C21 C22 1_555 1_555

#END
