
#######################################################################
#
#                 Cambridge Crystallographic Data Centre
#                                CCDC 
#
#######################################################################
#
# If this CIF has been generated from an entry in the Cambridge 
# Structural Database, then it will include bibliographic, chemical, 
# crystal, experimental, refinement or atomic coordinate data resulting 
# from the CCDC's data processing and validation procedures.
#
#######################################################################

data_KUNTAQ03
_symmetry_cell_setting           orthorhombic
_symmetry_space_group_name_H-M   'I m m a'
_symmetry_Int_Tables_number      74
_space_group_name_Hall           '-I 2b 2'
loop_
_symmetry_equiv_pos_site_id
_symmetry_equiv_pos_as_xyz
1 x,y,z
2 -x,1/2-y,z
3 x,-y,-z
4 -x,1/2+y,-z
5 1/2+x,1/2+y,1/2+z
6 1/2-x,-y,1/2+z
7 1/2+x,1/2-y,1/2-z
8 1/2-x,y,1/2-z
9 -x,-y,-z
10 x,1/2+y,-z
11 -x,y,z
12 x,1/2-y,z
13 1/2-x,1/2-y,1/2-z
14 1/2+x,y,1/2-z
15 1/2-x,1/2+y,1/2+z
16 1/2+x,-y,1/2+z
_cell_length_a                   6.56394(13)
_cell_length_b                   16.4021(4)
_cell_length_c                   13.1830(5)
_cell_angle_alpha                90
_cell_angle_beta                 90
_cell_angle_gamma                90
_cell_volume                     1419.31
loop_
_atom_site_label
_atom_site_type_symbol
_atom_site_fract_x
_atom_site_fract_y
_atom_site_fract_z
Al1 Al 0.250 0.250 0.750
F1 F 0.000 0.250 0.6907(4)
O1 O 0.1699(4) 0.16692(17) 0.84153(24)
C1 C -0.1945(5) 0.0311(4) 0.9627(5)
C2 C 0.000 0.0616(4) 0.9432(6)
C3 C 0.000 0.1397(5) 0.8724(6)
O1J O -0.1699(4) 0.16692(17) 0.84153(24)
C1J C 0.1945(5) 0.0311(4) 0.9627(5)
O1H O -0.1699(4) -0.16692(17) 1.15847(24)
C1H C 0.1945(5) -0.0311(4) 1.0373(5)
C2H C 0.000 -0.0616(4) 1.0568(6)
C3H C 0.000 -0.1397(5) 1.1276(6)
O1B O 0.1699(4) -0.16692(17) 1.15847(24)
C1B C -0.1945(5) -0.0311(4) 1.0373(5)
Al1J Al -0.250 0.250 0.750
Al1H Al -0.250 -0.250 1.250
Al1B Al 0.250 -0.250 1.250
F1L F 0.500 0.250 0.8093(4)
O1K O 0.1699(4) 0.33308(17) 0.84153(24)
O1L O 0.3301(4) 0.33308(17) 0.65847(24)
O1G O 0.3301(4) 0.16692(17) 0.65847(24)
loop_
_geom_bond_atom_site_label_1
_geom_bond_atom_site_label_2
_geom_bond_site_symmetry_1
_geom_bond_site_symmetry_2
Al1 F1 1_555 1_555
F1 Al1J 1_555 1_555
O1 Al1 1_555 1_555
C1 C2 1_555 1_555
C2 C3 1_555 1_555
C3 O1 1_555 1_555
O1J C3 1_555 1_555
C1J C2 1_555 1_555
O1H C3H 1_555 1_555
C1H C1J 1_555 1_555
C2H C1H 1_555 1_555
C3H C2H 1_555 1_555
O1B C3H 1_555 1_555
C1B C1 1_555 1_555
Al1J O1J 1_555 1_555
Al1H O1H 1_555 1_555
Al1B O1B 1_555 1_555
F1L Al1 1_555 1_555
O1K Al1 1_555 1_555
O1L Al1 1_555 1_555
O1G Al1 1_555 1_555
C2H C1B 1_555 1_555

#END
