
#######################################################################
#
#                 Cambridge Crystallographic Data Centre
#                                CCDC 
#
#######################################################################
#
# If this CIF has been generated from an entry in the Cambridge 
# Structural Database, then it will include bibliographic, chemical, 
# crystal, experimental, refinement or atomic coordinate data resulting 
# from the CCDC's data processing and validation procedures.
#
#######################################################################

data_KUQWIE
_symmetry_cell_setting           monoclinic
_symmetry_space_group_name_H-M   'C 2/c'
_symmetry_Int_Tables_number      15
_space_group_name_Hall           '-C 2yn'
loop_
_symmetry_equiv_pos_site_id
_symmetry_equiv_pos_as_xyz
1 x,y,z
2 -x,y,1/2-z
3 1/2+x,1/2+y,z
4 1/2-x,1/2+y,1/2-z
5 -x,-y,-z
6 x,-y,1/2+z
7 1/2-x,1/2-y,-z
8 1/2+x,1/2-y,1/2+z
_cell_length_a                   22.4941(15)
_cell_length_b                   11.1377(8)
_cell_length_c                   9.8101(7)
_cell_angle_alpha                90
_cell_angle_beta                 103.1000(10)
_cell_angle_gamma                90
_cell_volume                     2393.79
loop_
_atom_site_label
_atom_site_type_symbol
_atom_site_fract_x
_atom_site_fract_y
_atom_site_fract_z
Cd1 Cd 0.39214(2) 0.08592(3) 0.07167(3)
Cd2 Cd 0.5000 -0.11999(4) 0.2500
P1 P 0.45423(4) 0.13320(9) 0.40657(10)
O1 O 0.43986(13) 0.0333(3) 0.2975(3)
O2 O 0.42950(14) 0.1017(3) 0.5352(3)
O3 O 0.52073(13) 0.1691(3) 0.4503(3)
O4 O 0.20556(15) 0.4645(3) 0.0284(3)
O5 O 0.16699(15) 0.3322(4) 0.1487(4)
O6 O 0.56193(6) -0.27696(13) 0.21548(16)
H1 H 0.5615 -0.2827 0.1289
H2 H 0.5982 -0.2640 0.2614
N1 N 0.36294(6) 0.24725(13) 0.20846(16)
C1 C 0.41714(6) 0.26884(13) 0.32337(16)
H3 H 0.4464 0.3140 0.2870
H4 H 0.4051 0.3172 0.3935
C2 C 0.30954(6) 0.20413(13) 0.26099(16)
H5 H 0.3220 0.1364 0.3213
H6 H 0.2786 0.1770 0.1828
C3 C 0.28189(6) 0.29832(13) 0.34078(16)
H7 H 0.3104 0.3167 0.4270
H8 H 0.2456 0.2664 0.3633
C4 C 0.26594(6) 0.41363(13) 0.25533(16)
H9 H 0.2570 0.4740 0.3177
C5 C 0.32094(6) 0.45747(13) 0.20250(16)
H10 H 0.3524 0.4834 0.2803
H11 H 0.3092 0.5248 0.1412
C6 C 0.34548(6) 0.35755(13) 0.12423(16)
H12 H 0.3149 0.3373 0.0421
H13 H 0.3805 0.3870 0.0941
C7 C 0.20914(6) 0.40098(13) 0.13533(16)
Cd1A Cd 0.60786(2) 0.08592(3) 0.42833(3)
P1A P 0.54577(4) 0.13320(9) 0.09343(10)
O1A O 0.56014(13) 0.0333(3) 0.2025(3)
O2A O 0.57050(14) 0.1017(3) -0.0352(3)
O3A O 0.47927(13) 0.1691(3) 0.0497(3)
O4A O 0.79444(15) 0.4645(3) 0.4716(3)
O5A O 0.83301(15) 0.3322(4) 0.3513(4)
O6A O 0.43807(6) -0.27696(13) 0.28452(16)
H1A H 0.4385 -0.2827 0.3711
H2A H 0.4018 -0.2640 0.2386
N1A N 0.63706(6) 0.24725(13) 0.29154(16)
C1A C 0.58286(6) 0.26884(13) 0.17663(16)
H3A H 0.5536 0.3140 0.2130
H4A H 0.5949 0.3172 0.1065
C2A C 0.69046(6) 0.20413(13) 0.23901(16)
H5A H 0.6780 0.1364 0.1787
H6A H 0.7214 0.1770 0.3172
C3A C 0.71811(6) 0.29832(13) 0.15922(16)
H7A H 0.6896 0.3167 0.0730
H8A H 0.7544 0.2664 0.1367
C4A C 0.73406(6) 0.41363(13) 0.24467(16)
H9A H 0.7430 0.4740 0.1823
C5A C 0.67906(6) 0.45747(13) 0.29750(16)
H10A H 0.6476 0.4834 0.2197
H11A H 0.6908 0.5248 0.3588
C6A C 0.65452(6) 0.35755(13) 0.37577(16)
H12A H 0.6851 0.3373 0.4579
H13A H 0.6195 0.3870 0.4059
C7A C 0.79086(6) 0.40098(13) 0.36467(16)
Cd1D Cd 0.60786(2) -0.08592(3) -0.07167(3)
Cd1E Cd 0.39214(2) -0.08592(3) 0.57167(3)
Cd1F Cd 0.10786(2) 0.41408(3) -0.07167(3)
Cd1G Cd 0.89214(2) 0.41408(3) 0.57167(3)
Cd2D Cd 0.5000 0.11999(4) -0.2500
Cd2D_2 Cd 0.5000 0.11999(4) 0.7500
O2D O 0.57050(14) -0.1017(3) 0.4648(3)
O2E O 0.42950(14) -0.1017(3) 0.0352(3)
O4F O 0.29444(15) 0.0355(3) -0.0284(3)
O4G O 0.70556(15) 0.0355(3) 0.5284(3)
O5F O 0.33301(15) 0.1678(4) -0.1487(4)
O5G O 0.66699(15) 0.1678(4) 0.6487(4)
loop_
_geom_bond_atom_site_label_1
_geom_bond_atom_site_label_2
_geom_bond_site_symmetry_1
_geom_bond_site_symmetry_2
Cd1 O1 1_555 1_555
Cd2 O1 1_555 1_555
P1 O1 1_555 1_555
O2 P1 1_555 1_555
O3 P1 1_555 1_555
O4 C7 1_555 1_555
O5 C7 1_555 1_555
O6 Cd2 1_555 1_555
H1 O6 1_555 1_555
H2 O6 1_555 1_555
N1 Cd1 1_555 1_555
C1 P1 1_555 1_555
H3 C1 1_555 1_555
H4 C1 1_555 1_555
C2 N1 1_555 1_555
H5 C2 1_555 1_555
H6 C2 1_555 1_555
C3 C2 1_555 1_555
H7 C3 1_555 1_555
H8 C3 1_555 1_555
C4 C3 1_555 1_555
H9 C4 1_555 1_555
C5 C4 1_555 1_555
H10 C5 1_555 1_555
H11 C5 1_555 1_555
C6 N1 1_555 1_555
H12 C6 1_555 1_555
H13 C6 1_555 1_555
C7 C4 1_555 1_555
Cd1A O3 1_555 1_555
P1A O1A 1_555 1_555
O1A Cd2 1_555 1_555
O2A P1A 1_555 1_555
O3A Cd1 1_555 1_555
O4A C7A 1_555 1_555
O5A C7A 1_555 1_555
O6A Cd2 1_555 1_555
H1A O6A 1_555 1_555
H2A O6A 1_555 1_555
N1A Cd1A 1_555 1_555
C1A P1A 1_555 1_555
H3A C1A 1_555 1_555
H4A C1A 1_555 1_555
C2A N1A 1_555 1_555
H5A C2A 1_555 1_555
H6A C2A 1_555 1_555
C3A C2A 1_555 1_555
H7A C3A 1_555 1_555
H8A C3A 1_555 1_555
C4A C3A 1_555 1_555
H9A C4A 1_555 1_555
C5A C4A 1_555 1_555
H10A C5A 1_555 1_555
H11A C5A 1_555 1_555
C6A N1A 1_555 1_555
H12A C6A 1_555 1_555
H13A C6A 1_555 1_555
C7A C4A 1_555 1_555
Cd1D O2A 1_555 1_555
Cd1E O2 1_555 1_555
Cd1F O4 1_555 1_555
Cd1G O4A 1_555 1_555
Cd2D O2A 1_555 1_555
Cd2D_2 O2 1_555 1_555
O2D Cd2 1_555 1_555
O2E Cd1 1_555 1_555
O4F Cd1 1_555 1_555
O4G Cd1A 1_555 1_555
O5F Cd1 1_555 1_555
O5G Cd1A 1_555 1_555
Cd2 O2E 1_555 1_555
O5 Cd1F 1_555 1_555
N1 C1 1_555 1_555
C5 C6 1_555 1_555
Cd1A O1A 1_555 1_555
Cd1A O2D 1_555 1_555
P1A O3A 1_555 1_555
O5A Cd1G 1_555 1_555
N1A C1A 1_555 1_555
C5A C6A 1_555 1_555

#END
