
#######################################################################
#
#                 Cambridge Crystallographic Data Centre
#                                CCDC 
#
#######################################################################
#
# If this CIF has been generated from an entry in the Cambridge 
# Structural Database, then it will include bibliographic, chemical, 
# crystal, experimental, refinement or atomic coordinate data resulting 
# from the CCDC's data processing and validation procedures.
#
#######################################################################

data_LABGAY
_symmetry_cell_setting           monoclinic
_symmetry_space_group_name_H-M   'P 21/c'
_symmetry_Int_Tables_number      14
_space_group_name_Hall           '-P 2ybc'
loop_
_symmetry_equiv_pos_site_id
_symmetry_equiv_pos_as_xyz
1 x,y,z
2 -x,1/2+y,1/2-z
3 -x,-y,-z
4 x,1/2-y,1/2+z
_cell_length_a                   11.021(3)
_cell_length_b                   20.571(6)
_cell_length_c                   18.561(6)
_cell_angle_alpha                90
_cell_angle_beta                 105.822(10)
_cell_angle_gamma                90
_cell_volume                     4048.59
loop_
_atom_site_label
_atom_site_type_symbol
_atom_site_fract_x
_atom_site_fract_y
_atom_site_fract_z
Zn1 Zn 0.04540(5) 0.10399(3) 0.42202(3)
Zn2 Zn -0.04949(6) 0.64773(3) 0.83381(3)
C1 C 0.0295(6) 0.2386(3) 0.4787(4)
H1 H 0.0712 0.2286 0.5281
C2 C -0.0561(8) 0.2315(3) 0.3622(4)
H2 H -0.0862 0.2136 0.3146
C3 C -0.0594(8) 0.2948(4) 0.3802(5)
H3 H -0.0924 0.3286 0.3475
C4 C 0.0116(8) 0.3593(3) 0.4979(4)
H4 H -0.0075 0.3957 0.4636
H5 H 0.0994 0.3628 0.5263
C5 C -0.0704(7) 0.3638(3) 0.5517(4)
H6 H -0.0475 0.3297 0.5891
H7 H -0.1584 0.3581 0.5245
C6 C -0.0514(7) 0.4305(4) 0.5899(4)
H8 H 0.0380 0.4377 0.6119
H9 H -0.0820 0.4639 0.5525
C7 C -0.1167(10) 0.4358(4) 0.6474(5)
H10 H -0.0743 0.4091 0.6900
H11 H -0.2022 0.4197 0.6283
C8 C -0.0635(6) 0.5295(3) 0.7403(3)
H12 H -0.0101 0.5061 0.7791
C9 C -0.1740(7) 0.6065(3) 0.6759(4)
H13 H -0.2122 0.6468 0.6629
C10 C -0.1881(7) 0.5539(4) 0.6306(4)
H14 H -0.2350 0.5516 0.5807
C11 C 0.1955(6) 0.6083(3) 0.9316(4)
H15 H 0.1561 0.5774 0.9540
C12 C 0.2282(6) 0.6854(3) 0.8604(4)
H16 H 0.2141 0.7179 0.8243
C13 C 0.3411(6) 0.6668(4) 0.9031(5)
H17 H 0.4189 0.6838 0.9021
C14 C 0.4175(6) 0.5811(4) 1.0038(4)
H18 H 0.3870 0.5714 1.0470
H19 H 0.4931 0.6073 1.0207
C15 C 0.4489(5) 0.5184(3) 0.9704(4)
H20 H 0.4792 0.5279 0.9271
H21 H 0.3738 0.4918 0.9541
C16 C 0.1739(4) 0.0743(2) 0.5667(3)
C17 C 0.2804(4) 0.0555(2) 0.6321(3)
C18 C 0.3718(5) 0.1028(3) 0.6606(3)
H22 H 0.3639 0.1438 0.6388
C19 C 0.4734(5) 0.0893(3) 0.7206(3)
H23 H 0.5325 0.1216 0.7394
C20 C 0.4892(4) 0.0286(2) 0.7532(3)
C21 C 0.3984(5) -0.0178(3) 0.7254(3)
H24 H 0.4080 -0.0590 0.7467
C22 C 0.2924(4) -0.0048(2) 0.6661(3)
C23 C 0.1908(5) -0.0550(3) 0.6460(4)
C24 C 0.5987(5) 0.0103(3) 0.8224(3)
C25 C 0.7101(6) 0.0584(3) 0.8358(4)
C26 C 0.5426(7) 0.0130(4) 0.8909(3)
C27 C 0.6515(4) -0.0576(3) 0.8125(3)
C28 C 0.6624(5) -0.1084(3) 0.8640(3)
H25 H 0.6310 -0.1037 0.9054
C29 C 0.7198(6) -0.1654(3) 0.8529(3)
H26 H 0.7246 -0.1994 0.8867
C30 C 0.7707(5) -0.1740(2) 0.7930(3)
C31 C 0.8491(8) -0.2348(3) 0.7914(5)
C32 C 0.7576(5) -0.1246(2) 0.7400(3)
C33 C 0.8005(5) -0.1301(3) 0.6700(3)
C34 C 0.6962(5) -0.0677(2) 0.7505(3)
H27 H 0.6847 -0.0352 0.7144
N1 N 0.0016(5) 0.1970(2) 0.4290(3)
N2 N -0.0053(6) 0.3002(2) 0.4555(3)
N3 N -0.1201(5) 0.5051(3) 0.6723(3)
N4 N -0.0938(4) 0.5906(2) 0.7447(3)
N5 N 0.1365(4) 0.6491(2) 0.8783(3)
N6 N 0.3207(5) 0.6181(3) 0.9485(3)
O1 O 0.0805(3) 0.10432(19) 0.5762(2)
O2 O 0.1844(3) 0.06307(19) 0.50220(19)
O3 O 0.0962(3) -0.04262(19) 0.5931(2)
O4 O 0.1973(5) -0.1024(3) 0.6879(4)
O5 O 0.8387(5) -0.2793(2) 0.8330(3)
O6 O 0.9315(6) -0.2351(3) 0.7611(4)
O7 O 0.7432(5) -0.1643(3) 0.6198(3)
O8 O 0.8932(4) -0.0943(2) 0.6681(2)
F1 F 0.7473(3) 0.06886(18) 0.7751(3)
F2 F 0.8101(3) 0.0352(2) 0.8884(3)
F3 F 0.6842(4) 0.11661(19) 0.8611(3)
F4 F 0.4890(4) 0.0712(2) 0.8950(2)
F5 F 0.6324(4) 0.0068(2) 0.9559(2)
F6 F 0.4581(4) -0.0313(2) 0.8887(2)
Zn1B Zn -0.04540(5) -0.10399(3) 0.57798(3)
Zn1B_2 Zn 0.95460(5) -0.10399(3) 0.57798(3)
Zn1_2 Zn -0.95460(5) 0.10399(3) 0.42202(3)
Zn2A Zn 0.04949(6) 0.14773(3) 0.66619(3)
Zn2_2 Zn 0.95051(6) -0.35227(3) 0.83381(3)
Zn2B Zn 1.04949(6) 0.35227(3) 1.16619(3)
Zn2C Zn -0.04949(6) -0.14773(3) 0.33381(3)
Zn2B_2 Zn -0.95051(6) 0.35227(3) 0.16619(3)
Zn2B_3 Zn 0.04949(6) -0.64773(3) 0.16619(3)
C1B C -0.0295(6) -0.2386(3) 0.5213(4)
H1B H -0.0712 -0.2286 0.4719
C2B C 0.0561(8) -0.2315(3) 0.6378(4)
H2B H 0.0862 -0.2136 0.6854
C3B C 0.0594(8) -0.2948(4) 0.6198(5)
H3B H 0.0924 -0.3286 0.6525
C4B C -0.0116(8) -0.3593(3) 0.5021(4)
H4B H 0.0075 -0.3957 0.5364
H5B H -0.0994 -0.3628 0.4737
C5B C 0.0704(7) -0.3638(3) 0.4483(4)
H6B H 0.0475 -0.3297 0.4109
H7B H 0.1584 -0.3581 0.4755
C6B C 0.0514(7) -0.4305(4) 0.4101(4)
H8B H -0.0380 -0.4377 0.3881
H9B H 0.0820 -0.4639 0.4475
C7B C 0.1167(10) -0.4358(4) 0.3526(5)
H10B H 0.0743 -0.4091 0.3100
H11B H 0.2022 -0.4197 0.3717
C8B C 0.0635(6) -0.5295(3) 0.2597(3)
H12B H 0.0101 -0.5061 0.2209
C9B C 0.1740(7) -0.6065(3) 0.3241(4)
H13B H 0.2122 -0.6468 0.3371
C10B C 0.1881(7) -0.5539(4) 0.3694(4)
H14B H 0.2350 -0.5516 0.4193
C11B C 0.8045(6) 0.3917(3) 1.0684(4)
H15B H 0.8439 0.4226 1.0460
C12B C 0.7718(6) 0.3146(3) 1.1396(4)
H16B H 0.7859 0.2821 1.1757
C13B C 0.6589(6) 0.3332(4) 1.0969(5)
H17B H 0.5811 0.3162 1.0979
C14B C 0.5825(6) 0.4189(4) 0.9962(4)
H18B H 0.6130 0.4286 0.9530
H19B H 0.5069 0.3927 0.9793
C15B C 0.5511(5) 0.4816(3) 1.0296(4)
H20B H 0.5208 0.4721 1.0729
H21B H 0.6262 0.5082 1.0459
C16B C -0.1739(4) -0.0743(2) 0.4333(3)
C17B C -0.2804(4) -0.0555(2) 0.3679(3)
C18B C -0.3718(5) -0.1028(3) 0.3394(3)
H22B H -0.3639 -0.1438 0.3612
C19B C -0.4734(5) -0.0893(3) 0.2794(3)
H23B H -0.5325 -0.1216 0.2606
C20B C -0.4892(4) -0.0286(2) 0.2468(3)
C21B C -0.3984(5) 0.0178(3) 0.2746(3)
H24B H -0.4080 0.0590 0.2533
C22B C -0.2924(4) 0.0048(2) 0.3339(3)
C23B C -0.1908(5) 0.0550(3) 0.3540(4)
C24B C -0.5987(5) -0.0103(3) 0.1776(3)
C25B C -0.7101(6) -0.0584(3) 0.1642(4)
C26B C -0.5426(7) -0.0130(4) 0.1091(3)
C27B C -0.6515(4) 0.0576(3) 0.1875(3)
C28B C -0.6624(5) 0.1084(3) 0.1360(3)
H25B H -0.6310 0.1037 0.0946
C29B C -0.7198(6) 0.1654(3) 0.1471(3)
H26B H -0.7246 0.1994 0.1133
C30B C -0.7707(5) 0.1740(2) 0.2070(3)
C31B C -0.8491(8) 0.2348(3) 0.2086(5)
C32B C -0.7576(5) 0.1246(2) 0.2600(3)
C33B C -0.8005(5) 0.1301(3) 0.3300(3)
C34B C -0.6962(5) 0.0677(2) 0.2495(3)
H27B H -0.6847 0.0352 0.2856
N1B N -0.0016(5) -0.1970(2) 0.5710(3)
N2B N 0.0053(6) -0.3002(2) 0.5445(3)
N3B N 0.1201(5) -0.5051(3) 0.3277(3)
N4B N 0.0938(4) -0.5906(2) 0.2553(3)
N4A N 0.0938(4) 0.0906(2) 0.7553(3)
N5B N 0.8635(4) 0.3509(2) 1.1217(3)
N5A N -0.1365(4) 0.1491(2) 0.6217(3)
N6B N 0.6793(5) 0.3819(3) 1.0515(3)
O1B O -0.0805(3) -0.10432(19) 0.4238(2)
O1A O -0.0805(3) 0.60432(19) 0.9238(2)
O2B O -0.1844(3) -0.06307(19) 0.49780(19)
O3B O -0.0962(3) 0.04262(19) 0.4069(2)
O4B O -0.1973(5) 0.1024(3) 0.3121(4)
O5B O -0.8387(5) 0.2793(2) 0.1670(3)
O5_2 O -0.1613(5) 0.7207(2) 0.8330(3)
O5A O 0.1613(5) 0.2207(2) 0.6670(3)
O6B O -0.9315(6) 0.2351(3) 0.2389(4)
O7B O -0.7432(5) 0.1643(3) 0.3802(3)
O8B O -0.8932(4) 0.0943(2) 0.3319(2)
O8B_2 O 0.1068(4) 0.0943(2) 0.3319(2)
O8_2 O -0.1068(4) -0.0943(2) 0.6681(2)
F1B F -0.7473(3) -0.06886(18) 0.2249(3)
F2B F -0.8101(3) -0.0352(2) 0.1116(3)
F3B F -0.6842(4) -0.11661(19) 0.1389(3)
F4B F -0.4890(4) -0.0712(2) 0.1050(2)
F5B F -0.6324(4) -0.0068(2) 0.0441(2)
F6B F -0.4581(4) 0.0313(2) 0.1113(2)
C35 C 0.489(2) -0.3154(14) 0.4741(16)
H28 H 0.4789 -0.3535 0.5017
H29 H 0.4958 -0.3279 0.4255
H30 H 0.4180 -0.2872 0.4689
C36 C 0.611(2) -0.2792(12) 0.5168(14)
H31 H 0.6030 -0.2675 0.5659
H32 H 0.6812 -0.3093 0.5243
O9 O 0.6417(10) -0.2241(5) 0.4839(6)
H38 H 0.722(2) -0.237(5) 0.500(8)
C37 C 0.409(2) -0.2276(11) 0.7438(13)
H33 H 0.4808 -0.2517 0.7742
H34 H 0.3422 -0.2593 0.7280
C38 C 0.3701(13) -0.1884(8) 0.7967(10)
H35 H 0.3641 -0.2148 0.8382
H36 H 0.2892 -0.1697 0.7732
H37 H 0.4306 -0.1544 0.8142
O10 O 0.443(2) -0.2142(12) 0.6792(15)
H39 H 0.3824 -0.1998 0.6474
loop_
_geom_bond_atom_site_label_1
_geom_bond_atom_site_label_2
_geom_bond_site_symmetry_1
_geom_bond_site_symmetry_2
Zn1 N1 1_555 1_555
Zn2 N4 1_555 1_555
C1 H1 1_555 1_555
C2 H2 1_555 1_555
C3 C2 1_555 1_555
H3 C3 1_555 1_555
C4 H4 1_555 1_555
H5 C4 1_555 1_555
C5 C4 1_555 1_555
H6 C5 1_555 1_555
H7 C5 1_555 1_555
C6 C5 1_555 1_555
H8 C6 1_555 1_555
H9 C6 1_555 1_555
C7 C6 1_555 1_555
H10 C7 1_555 1_555
H11 C7 1_555 1_555
C8 H12 1_555 1_555
C9 H13 1_555 1_555
C10 C9 1_555 1_555
H14 C10 1_555 1_555
C11 H15 1_555 1_555
C12 H16 1_555 1_555
C13 C12 1_555 1_555
H17 C13 1_555 1_555
C14 H18 1_555 1_555
H19 C14 1_555 1_555
C15 C14 1_555 1_555
H20 C15 1_555 1_555
H21 C15 1_555 1_555
C16 C17 1_555 1_555
C17 C18 1_555 1_555
C18 H22 1_555 1_555
C19 C18 1_555 1_555
H23 C19 1_555 1_555
C20 C19 1_555 1_555
C21 C20 1_555 1_555
H24 C21 1_555 1_555
C22 C17 1_555 1_555
C23 C22 1_555 1_555
C24 C20 1_555 1_555
C25 C24 1_555 1_555
C26 C24 1_555 1_555
C27 C24 1_555 1_555
C28 C27 1_555 1_555
H25 C28 1_555 1_555
C29 C28 1_555 1_555
H26 C29 1_555 1_555
C30 C29 1_555 1_555
C31 C30 1_555 1_555
C32 C30 1_555 1_555
C33 C32 1_555 1_555
C34 C27 1_555 1_555
H27 C34 1_555 1_555
C35 H28 1_555 1_555
H29 C35 1_555 1_555
H30 C35 1_555 1_555
C36 C35 1_555 1_555
H31 C36 1_555 1_555
H32 C36 1_555 1_555
C37 H33 1_555 1_555
H34 C37 1_555 1_555
C38 C37 1_555 1_555
H35 C38 1_555 1_555
H36 C38 1_555 1_555
H37 C38 1_555 1_555
N1 C1 1_555 1_555
N2 C1 1_555 1_555
N3 C7 1_555 1_555
N4 C8 1_555 1_555
N5 Zn2 1_555 1_555
N6 C11 1_555 1_555
O1 C16 1_555 1_555
O2 Zn1 1_555 1_555
O3 C23 1_555 1_555
O4 C23 1_555 1_555
O5 C31 1_555 1_555
O6 C31 1_555 1_555
O7 C33 1_555 1_555
O8 C33 1_555 1_555
F1 C25 1_555 1_555
F2 C25 1_555 1_555
F3 C25 1_555 1_555
F4 C26 1_555 1_555
F5 C26 1_555 1_555
F6 C26 1_555 1_555
O9 C36 1_555 1_555
H38 O9 1_555 1_555
O10 C37 1_555 1_555
H39 O10 1_555 1_555
Zn1B O3 1_555 1_555
Zn1B_2 O8 1_555 1_555
Zn1_2 O8B 1_555 1_555
Zn2A O1 1_555 1_555
Zn2_2 O5 1_555 1_555
Zn2B N5B 1_555 1_555
Zn2C O1B 1_555 1_555
Zn2B_2 O5B 1_555 1_555
Zn2B_3 N4B 1_555 1_555
C1B H1B 1_555 1_555
C2B H2B 1_555 1_555
C3B C2B 1_555 1_555
H3B C3B 1_555 1_555
C4B H4B 1_555 1_555
H5B C4B 1_555 1_555
C5B C4B 1_555 1_555
H6B C5B 1_555 1_555
H7B C5B 1_555 1_555
C6B C5B 1_555 1_555
H8B C6B 1_555 1_555
H9B C6B 1_555 1_555
C7B C6B 1_555 1_555
H10B C7B 1_555 1_555
H11B C7B 1_555 1_555
C8B H12B 1_555 1_555
C9B H13B 1_555 1_555
C10B C9B 1_555 1_555
H14B C10B 1_555 1_555
C11B H15B 1_555 1_555
C12B H16B 1_555 1_555
C13B C12B 1_555 1_555
H17B C13B 1_555 1_555
C14B H18B 1_555 1_555
H19B C14B 1_555 1_555
C15B C15 1_555 1_555
H20B C15B 1_555 1_555
H21B C15B 1_555 1_555
C16B C17B 1_555 1_555
C17B C18B 1_555 1_555
C18B H22B 1_555 1_555
C19B C18B 1_555 1_555
H23B C19B 1_555 1_555
C20B C19B 1_555 1_555
C21B C20B 1_555 1_555
H24B C21B 1_555 1_555
C22B C17B 1_555 1_555
C23B C22B 1_555 1_555
C24B C20B 1_555 1_555
C25B C24B 1_555 1_555
C26B C24B 1_555 1_555
C27B C24B 1_555 1_555
C28B C27B 1_555 1_555
H25B C28B 1_555 1_555
C29B C28B 1_555 1_555
H26B C29B 1_555 1_555
C30B C29B 1_555 1_555
C31B C30B 1_555 1_555
C32B C30B 1_555 1_555
C33B C32B 1_555 1_555
C34B C27B 1_555 1_555
H27B C34B 1_555 1_555
N1B Zn1B 1_555 1_555
N2B C1B 1_555 1_555
N3B C7B 1_555 1_555
N4B C8B 1_555 1_555
N4A Zn2A 1_555 1_555
N5B C11B 1_555 1_555
N5A Zn2A 1_555 1_555
N6B C11B 1_555 1_555
O1B C16B 1_555 1_555
O1A Zn2 1_555 1_555
O2B Zn1B 1_555 1_555
O3B Zn1 1_555 1_555
O4B C23B 1_555 1_555
O5B C31B 1_555 1_555
O5_2 Zn2 1_555 1_555
O5A Zn2A 1_555 1_555
O6B C31B 1_555 1_555
O7B C33B 1_555 1_555
O8B C33B 1_555 1_555
O8B_2 Zn1 1_555 1_555
O8_2 Zn1B 1_555 1_555
F1B C25B 1_555 1_555
F2B C25B 1_555 1_555
F3B C25B 1_555 1_555
F4B C26B 1_555 1_555
F5B C26B 1_555 1_555
F6B C26B 1_555 1_555
C2 N1 1_555 1_555
C3 N2 1_555 1_555
C4 N2 1_555 1_555
C8 N3 1_555 1_555
C9 N4 1_555 1_555
C10 N3 1_555 1_555
C11 N5 1_555 1_555
C12 N5 1_555 1_555
C13 N6 1_555 1_555
C14 N6 1_555 1_555
C16 O2 1_555 1_555
C21 C22 1_555 1_555
C32 C34 1_555 1_555
C1B N1B 1_555 1_555
C2B N1B 1_555 1_555
C3B N2B 1_555 1_555
C4B N2B 1_555 1_555
C8B N3B 1_555 1_555
C9B N4B 1_555 1_555
C10B N3B 1_555 1_555
C12B N5B 1_555 1_555
C13B N6B 1_555 1_555
C14B C15B 1_555 1_555
C14B N6B 1_555 1_555
C16B O2B 1_555 1_555
C21B C22B 1_555 1_555
C23B O3B 1_555 1_555
C32B C34B 1_555 1_555

#END
