
#######################################################################
#
#                 Cambridge Crystallographic Data Centre
#                                CCDC 
#
#######################################################################
#
# If this CIF has been generated from an entry in the Cambridge 
# Structural Database, then it will include bibliographic, chemical, 
# crystal, experimental, refinement or atomic coordinate data resulting 
# from the CCDC's data processing and validation procedures.
#
#######################################################################

data_LABPOV
_symmetry_cell_setting           monoclinic
_symmetry_space_group_name_H-M   'P 21/c'
_symmetry_Int_Tables_number      14
_space_group_name_Hall           '-P 2ybc'
loop_
_symmetry_equiv_pos_site_id
_symmetry_equiv_pos_as_xyz
1 x,y,z
2 -x,1/2+y,1/2-z
3 -x,-y,-z
4 x,1/2-y,1/2+z
_cell_length_a                   20.891(6)
_cell_length_b                   7.1310(18)
_cell_length_c                   27.845(8)
_cell_angle_alpha                90
_cell_angle_beta                 107.853(4)
_cell_angle_gamma                90
_cell_volume                     3948.42
loop_
_atom_site_label
_atom_site_type_symbol
_atom_site_fract_x
_atom_site_fract_y
_atom_site_fract_z
Nd1 Nd 0.090598(16) 0.12421(4) 0.339743(11)
Nd2 Nd 0.254620(17) -0.08219(4) 0.795240(12)
P1 P 0.08227(8) 0.0449(2) 0.72779(5)
P2 P 0.25168(8) 0.0811(2) 0.32259(6)
P3 P 0.13740(8) 0.6196(2) 0.37539(6)
N1 N 0.0463(3) 0.3465(7) 0.66495(18)
H1 H 0.0127 0.3535 0.6767
N2 N 0.3879(3) 0.0781(8) 0.3338(2)
H2 H 0.3807 0.1819 0.3145
H3 H 0.3816 -0.0220 0.3132
N3 N 0.2283(3) 0.8200(8) 0.44617(19)
H4 H 0.2070 0.9228 0.4523
H5 H 0.2354 0.8364 0.4162
C1 C 0.0987(4) 0.1963(9) 0.6805(3)
H6 H 0.0987 0.1224 0.6513
H7 H 0.1427 0.2534 0.6941
C2 C 0.0569(4) 0.4829(9) 0.6275(2)
H8 H 0.0188 0.5678 0.6175
H9 H 0.0967 0.5568 0.6436
C3 C 0.0652(4) 0.3901(9) 0.5806(2)
C4 C 0.1273(4) 0.3922(10) 0.5727(3)
H10 H 0.1640 0.4458 0.5966
C5 C 0.1351(4) 0.3139(11) 0.5288(3)
H11 H 0.1769 0.3160 0.5235
C6 C 0.0807(4) 0.2335(9) 0.4932(2)
C7 C 0.0190(4) 0.2332(10) 0.5016(3)
H12 H -0.0179 0.1806 0.4777
C8 C 0.0113(4) 0.3104(11) 0.5452(3)
H13 H -0.0306 0.3081 0.5505
C9 C 0.0888(4) 0.1519(9) 0.4449(3)
C10 C 0.3384(3) 0.0718(9) 0.3624(3)
H14 H 0.3468 0.1765 0.3858
H15 H 0.3452 -0.0428 0.3821
C11 C 0.4594(4) 0.0786(13) 0.3678(3)
H16 H 0.4671 -0.0316 0.3893
H17 H 0.4669 0.1885 0.3893
C12 C 0.5085(4) 0.0794(12) 0.3374(3)
C13 C 0.5231(4) 0.2462(12) 0.3179(3)
H18 H 0.5073 0.3586 0.3269
C14 C 0.5610(4) 0.2471(11) 0.2850(3)
H19 H 0.5707 0.3600 0.2720
C15 C 0.5848(4) 0.0788(10) 0.2713(3)
C16 C 0.5742(4) -0.0869(11) 0.2945(3)
H20 H 0.5935 -0.1983 0.2883
C17 C 0.5353(4) -0.0861(12) 0.3265(3)
H21 H 0.5270 -0.1978 0.3408
C18 C 0.6215(4) 0.0762(9) 0.2331(3)
C19 C 0.2562(4) 0.7181(12) 0.6808(3)
C20 C 0.2677(4) 0.7376(11) 0.6306(2)
C21 C 0.2530(5) 0.9068(13) 0.6062(3)
H22 H 0.2371 1.0062 0.6209
C22 C 0.2622(6) 0.9273(14) 0.5592(3)
H23 H 0.2519 1.0408 0.5422
C23 C 0.2864(4) 0.7806(11) 0.5377(3)
C24 C 0.2947(4) 0.8060(12) 0.4859(3)
H24 H 0.3195 0.7005 0.4786
H25 H 0.3205 0.9189 0.4856
C25 C 0.1829(4) 0.6550(9) 0.4423(2)
H26 H 0.2090 0.5443 0.4561
H27 H 0.1515 0.6783 0.4610
C26 C 0.3035(5) 0.6160(12) 0.5635(3)
H28 H 0.3221 0.5193 0.5497
C27 C 0.2933(4) 0.5914(11) 0.6102(3)
H29 H 0.3036 0.4779 0.6272
O1 O 0.0368(3) 0.1238(7) 0.40874(18)
O2 O 0.1475(3) 0.1262(7) 0.44272(19)
O3 O 0.0203(2) -0.0679(6) 0.70137(17)
O4 O 0.1428(2) -0.0818(6) 0.74499(17)
O5 O 0.0704(3) 0.1740(6) 0.76730(16)
O6 O 0.2102(2) 0.0651(6) 0.35829(17)
O7 O 0.2420(2) 0.2628(6) 0.29385(17)
O8 O 0.2431(2) -0.0851(5) 0.28653(17)
O9 O 0.6338(3) 0.2288(7) 0.21451(19)
O10 O 0.6426(3) -0.0772(7) 0.2213(2)
O11 O 0.2562(4) 0.5468(8) 0.6969(2)
H30 H 0.2517 0.5478 0.7252
O12 O 0.2472(3) 0.8581(8) 0.70367(18)
O13 O 0.0993(2) 0.4388(6) 0.37170(17)
O14 O 0.0910(2) 0.7873(6) 0.35971(17)
O15 O 0.1943(2) 0.6157(6) 0.35245(17)
O16 O 0.0790(3) -0.0745(6) 0.25558(17)
H31 H 0.0918 -0.0074 0.2348
H32 H 0.1034 -0.1725 0.2630
O17 O 0.3461(3) -0.0752(6) 0.88804(19)
H33 H 0.3256 -0.0740 0.9103
H34 H 0.3697 0.0241 0.8908
Nd1B Nd -0.090598(16) -0.12421(4) 0.660257(11)
Nd1C Nd 0.090598(16) 0.37579(4) 0.839743(11)
Nd1_2 Nd 0.090598(16) 1.12421(4) 0.339743(11)
Nd2C Nd 0.254620(17) 0.58219(4) 0.295240(12)
Nd2C_2 Nd 0.254620(17) -0.41781(4) 0.295240(12)
Nd2B Nd 0.745380(17) 0.08219(4) 0.204760(12)
Nd2_2 Nd 0.254620(17) 0.91781(4) 0.795240(12)
O3B O -0.0203(2) 0.0679(6) 0.29863(17)
O5C O 0.0704(3) 0.3260(6) 0.26730(16)
O7C O 0.2420(2) 0.2372(6) 0.79385(17)
O8C O 0.2431(2) -0.4149(5) 0.78653(17)
O9B O 0.3662(3) -0.2288(7) 0.78549(19)
O10B O 0.3574(3) 0.0772(7) 0.7787(2)
O12_2 O 0.2472(3) -0.1419(8) 0.70367(18)
O14_2 O 0.0910(2) -0.2127(6) 0.35971(17)
O15C O 0.1943(2) -0.1157(6) 0.85245(17)
O18 O 0.5099(2) 0.0715(6) 0.08500(17)
H35 H 0.4852 -0.0259 0.0820
H36 H 0.5021 0.1258 0.0566
O19 O 0.7044(5) -0.1761(11) 0.0494(3)
H37 H 0.7270 -0.2603 0.0689
H38 H 0.6674 -0.2228 0.0319
O20 O 0.4550(8) -0.252(3) 0.0066(6)
H39 H 0.4571 -0.3874 0.0133
H40 H 0.4225 -0.2839 0.0173
O21 O 0.5902(9) -0.342(2) -0.0137(6)
H41 H 0.5534 -0.3380 -0.0067
H42 H 0.5856 -0.2882 -0.0418
loop_
_geom_bond_atom_site_label_1
_geom_bond_atom_site_label_2
_geom_bond_site_symmetry_1
_geom_bond_site_symmetry_2
Nd1 O1 1_555 1_555
Nd2 O4 1_555 1_555
P1 C1 1_555 1_555
P2 C10 1_555 1_555
P3 C25 1_555 1_555
N1 H1 1_555 1_555
N2 H2 1_555 1_555
H3 N2 1_555 1_555
N3 H4 1_555 1_555
H5 N3 1_555 1_555
C1 N1 1_555 1_555
H6 C1 1_555 1_555
H7 C1 1_555 1_555
C2 N1 1_555 1_555
H8 C2 1_555 1_555
H9 C2 1_555 1_555
C3 C2 1_555 1_555
C4 C3 1_555 1_555
H10 C4 1_555 1_555
C5 C4 1_555 1_555
H11 C5 1_555 1_555
C6 C5 1_555 1_555
C7 C6 1_555 1_555
H12 C7 1_555 1_555
C8 C3 1_555 1_555
H13 C8 1_555 1_555
C9 C6 1_555 1_555
C10 N2 1_555 1_555
H14 C10 1_555 1_555
H15 C10 1_555 1_555
C11 N2 1_555 1_555
H16 C11 1_555 1_555
H17 C11 1_555 1_555
C12 C11 1_555 1_555
C13 C12 1_555 1_555
H18 C13 1_555 1_555
C14 C13 1_555 1_555
H19 C14 1_555 1_555
C15 C14 1_555 1_555
C16 C15 1_555 1_555
H20 C16 1_555 1_555
C17 C12 1_555 1_555
H21 C17 1_555 1_555
C18 C15 1_555 1_555
C19 C20 1_555 1_555
C20 C21 1_555 1_555
C21 H22 1_555 1_555
C22 C21 1_555 1_555
H23 C22 1_555 1_555
C23 C22 1_555 1_555
C24 N3 1_555 1_555
H24 C24 1_555 1_555
H25 C24 1_555 1_555
C25 N3 1_555 1_555
H26 C25 1_555 1_555
H27 C25 1_555 1_555
C26 C23 1_555 1_555
H28 C26 1_555 1_555
C27 C20 1_555 1_555
H29 C27 1_555 1_555
O1 C9 1_555 1_555
O2 Nd1 1_555 1_555
O3 P1 1_555 1_555
O4 P1 1_555 1_555
O5 P1 1_555 1_555
O6 Nd1 1_555 1_555
O7 P2 1_555 1_555
O8 P2 1_555 1_555
O9 C18 1_555 1_555
O10 C18 1_555 1_555
O11 C19 1_555 1_555
H30 O11 1_555 1_555
O12 C19 1_555 1_555
O13 Nd1 1_555 1_555
O14 P3 1_555 1_555
O15 P3 1_555 1_555
O16 Nd1 1_555 1_555
H31 O16 1_555 1_555
H32 O16 1_555 1_555
O17 Nd2 1_555 1_555
H33 O17 1_555 1_555
H34 O17 1_555 1_555
O18 H35 1_555 1_555
H36 O18 1_555 1_555
O19 H37 1_555 1_555
H38 O19 1_555 1_555
O20 H39 1_555 1_555
H40 O20 1_555 1_555
O21 H41 1_555 1_555
H42 O21 1_555 1_555
Nd1B O3 1_555 1_555
Nd1C O5 1_555 1_555
Nd1_2 O14 1_555 1_555
Nd2C O7 1_555 1_555
Nd2C_2 O8 1_555 1_555
Nd2B O9 1_555 1_555
Nd2_2 O12 1_555 1_555
O3B Nd1 1_555 1_555
O5C Nd1 1_555 1_555
O7C Nd2 1_555 1_555
O8C Nd2 1_555 1_555
O9B Nd2 1_555 1_555
O10B Nd2 1_555 1_555
O12_2 Nd2 1_555 1_555
O14_2 Nd1 1_555 1_555
O15C Nd2 1_555 1_555
P2 O6 1_555 1_555
P3 O13 1_555 1_555
C7 C8 1_555 1_555
C9 O2 1_555 1_555
C16 C17 1_555 1_555
C23 C24 1_555 1_555
C26 C27 1_555 1_555
O10 Nd2B 1_555 1_555
O15 Nd2C 1_555 1_555

#END
