
#######################################################################
#
#                 Cambridge Crystallographic Data Centre
#                                CCDC 
#
#######################################################################
#
# If this CIF has been generated from an entry in the Cambridge 
# Structural Database, then it will include bibliographic, chemical, 
# crystal, experimental, refinement or atomic coordinate data resulting 
# from the CCDC's data processing and validation procedures.
#
#######################################################################

data_LACJAC
_symmetry_cell_setting           triclinic
_symmetry_space_group_name_H-M   'P -1'
_symmetry_Int_Tables_number      2
_space_group_name_Hall           '-P 1'
loop_
_symmetry_equiv_pos_site_id
_symmetry_equiv_pos_as_xyz
1 x,y,z
2 -x,-y,-z
_cell_length_a                   9.781(2)
_cell_length_b                   11.905(2)
_cell_length_c                   15.220(3)
_cell_angle_alpha                96.50(3)
_cell_angle_beta                 99.07(3)
_cell_angle_gamma                112.41(3)
_cell_volume                     1588.51
loop_
_atom_site_label
_atom_site_type_symbol
_atom_site_fract_x
_atom_site_fract_y
_atom_site_fract_z
Zn1 Zn 0.5000 0.5000 0.5000
Zn2 Zn 0.01127(5) 0.42971(5) 0.70515(3)
Zn3 Zn 0.10931(5) 0.31173(5) 0.32978(3)
Zn4 Zn -0.43913(5) 0.39516(5) 0.92954(3)
C1 C -0.3396(5) 0.1593(4) 0.1939(3)
C2 C -0.3790(5) 0.0345(4) 0.1629(3)
H1 H -0.3080 0.0013 0.1764
C3 C -0.5220(5) -0.0409(4) 0.1123(3)
C4 C -0.6262(6) 0.0103(5) 0.0913(4)
H2 H -0.7231 -0.0396 0.0575
C5 C -0.5869(6) 0.1342(5) 0.1202(4)
H3 H -0.6563 0.1682 0.1042
C6 C -0.4449(5) 0.2087(5) 0.1731(3)
H4 H -0.4203 0.2919 0.1945
C7 C -0.1871(5) 0.2390(4) 0.2521(3)
C8 C -0.5645(6) -0.1754(5) 0.0834(3)
C9 C 0.3999(5) 0.1315(4) 0.3719(3)
C10 C 0.2989(5) 0.0090(4) 0.3546(3)
H5 H 0.1960 -0.0114 0.3349
C11 C 0.3485(5) -0.0843(4) 0.3659(3)
C12 C 0.5042(5) -0.0526(5) 0.3922(3)
H6 H 0.5395 -0.1139 0.3997
C13 C 0.6050(5) 0.0688(5) 0.4070(4)
H7 H 0.7085 0.0889 0.4228
C14 C 0.5542(5) 0.1621(4) 0.3985(3)
H8 H 0.6230 0.2444 0.4105
C15 C 0.3425(5) 0.2305(4) 0.3631(3)
C16 C 0.2384(5) -0.2151(4) 0.3541(3)
C17 C -0.1931(5) 0.4279(4) 0.8288(3)
H9 H -0.1725 0.3669 0.8538
C18 C -0.2881(5) 0.5522(5) 0.7976(3)
H10 H -0.3480 0.5970 0.7963
C19 C 0.0315(5) 0.3701(4) 0.5077(3)
H11 H -0.0714 0.3216 0.4860
C20 C 0.2392(5) 0.4866(4) 0.5922(3)
H12 H 0.3126 0.5381 0.6426
C21 C 0.2884(5) 0.4041(5) 0.8123(3)
H13 H 0.2915 0.3496 0.7646
C22 C 0.2236(5) 0.5234(4) 0.8904(3)
H14 H 0.1715 0.5695 0.9089
N1 N -0.1834(4) 0.5679(3) 0.7503(2)
N2 N -0.1212(4) 0.4861(3) 0.7715(2)
N3 N -0.2999(4) 0.4653(4) 0.8479(2)
N4 N 0.1332(4) 0.3853(3) 0.4582(2)
N5 N 0.2701(4) 0.4609(3) 0.5143(2)
N6 N 0.0925(4) 0.4323(3) 0.5928(2)
N7 N 0.1839(4) 0.4508(4) 0.8089(2)
N8 N 0.3450(4) 0.5223(3) 0.9418(2)
N9 N 0.3879(4) 0.4443(4) 0.8916(2)
O1 O -0.1538(4) 0.3488(3) 0.2818(2)
O2 O -0.0940(4) 0.1880(3) 0.2696(2)
O3 O -0.4631(4) -0.2159(3) 0.1057(3)
O4 O -0.6941(4) -0.2454(3) 0.0426(3)
O5 O 0.4291(3) 0.3418(3) 0.3852(2)
O6 O 0.2015(4) 0.1930(3) 0.3313(3)
O7 O 0.1070(3) -0.2449(3) 0.3042(2)
O8 O 0.2724(4) -0.2904(3) 0.3921(2)
O9 O 0.5046(4) 0.3795(3) 0.5926(2)
H15 H 0.5775 0.3598 0.5891
H16 H 0.4287 0.3147 0.5916
Zn2A Zn 0.98873(5) 0.57029(5) 0.29485(3)
Zn2A_2 Zn -0.01127(5) -0.42971(5) 0.29485(3)
Zn2_2 Zn 1.01127(5) 1.42971(5) 0.70515(3)
Zn2A_3 Zn -0.01127(5) 0.57029(5) 0.29485(3)
Zn3A Zn 0.89069(5) 0.68827(5) 0.67022(3)
Zn3A_2 Zn -0.10931(5) 0.68827(5) 0.67022(3)
Zn4A Zn 0.43913(5) 0.60484(5) 0.07046(3)
Zn4A_2 Zn 0.43913(5) 0.60484(5) 1.07046(3)
Zn4_2 Zn 0.56087(5) 0.39516(5) 0.92954(3)
Zn4A_3 Zn -0.56087(5) -0.39516(5) 0.07046(3)
Zn4_3 Zn 0.56087(5) 0.39516(5) -0.07046(3)
Zn4_4 Zn 1.56087(5) 1.39516(5) 0.92954(3)
C1A C 1.3396(5) 0.8407(4) 0.8061(3)
C2A C 1.3790(5) 0.9655(4) 0.8371(3)
H1A H 1.3080 0.9987 0.8236
C3A C 1.5220(5) 1.0409(4) 0.8877(3)
C4A C 1.6262(6) 0.9897(5) 0.9087(4)
H2A H 1.7231 1.0396 0.9425
C5A C 1.5869(6) 0.8658(5) 0.8798(4)
H3A H 1.6563 0.8318 0.8958
C6A C 1.4449(5) 0.7913(5) 0.8269(3)
H4A H 1.4203 0.7081 0.8055
C7A C 1.1871(5) 0.7610(4) 0.7479(3)
C8A C 1.5645(6) 1.1754(5) 0.9166(3)
C9A C 0.6001(5) 0.8685(4) 0.6281(3)
C10A C 0.7011(5) 0.9910(4) 0.6454(3)
H5A H 0.8040 1.0114 0.6651
C11A C 0.6515(5) 1.0843(4) 0.6341(3)
C12A C 0.4958(5) 1.0526(5) 0.6078(3)
H6A H 0.4605 1.1139 0.6003
C13A C 0.3950(5) 0.9312(5) 0.5930(4)
H7A H 0.2915 0.9111 0.5772
C14A C 0.4458(5) 0.8379(4) 0.6015(3)
H8A H 0.3770 0.7556 0.5895
C15A C 0.6575(5) 0.7695(4) 0.6369(3)
C16A C 0.7616(5) 1.2151(4) 0.6459(3)
C17A C 0.1931(5) 0.5721(4) 0.1712(3)
H9A H 0.1725 0.6331 0.1462
C18A C 0.2881(5) 0.4478(5) 0.2024(3)
H10A H 0.3480 0.4030 0.2037
C19A C 0.9685(5) 0.6299(4) 0.4923(3)
H11A H 1.0714 0.6784 0.5140
C20A C 0.7608(5) 0.5134(4) 0.4078(3)
H12A H 0.6874 0.4619 0.3574
C21A C 0.7116(5) 0.5959(5) 0.1877(3)
H13A H 0.7085 0.6504 0.2354
C22A C 0.7764(5) 0.4766(4) 0.1096(3)
H14A H 0.8285 0.4305 0.0911
N1A N 0.1834(4) 0.4321(3) 0.2497(2)
N1_2 N 0.8166(4) 0.5679(3) 0.7503(2)
N2A N 0.1212(4) 0.5139(3) 0.2285(2)
N2A_2 N 1.1212(4) 0.5139(3) 0.2285(2)
N3A N 0.2999(4) 0.5347(4) 0.1521(2)
N4A N 0.8668(4) 0.6147(3) 0.5418(2)
N5A N 0.7299(4) 0.5391(3) 0.4857(2)
N6A N 0.9075(4) 0.5677(3) 0.4072(2)
N7A N 0.8161(4) 0.5492(4) 0.1911(2)
N8A N 0.6550(4) 0.4777(3) 0.0582(2)
N8A_2 N -0.3450(4) 0.4777(3) 1.0582(2)
N8_2 N 0.3450(4) 0.5223(3) -0.0582(2)
N9A N 0.6121(4) 0.5557(4) 0.1084(2)
N9_2 N -0.6121(4) 0.4443(4) 0.8916(2)
O1A O 1.1538(4) 0.6512(3) 0.7182(2)
O2A O 1.0940(4) 0.8120(3) 0.7304(2)
O3A O 1.4631(4) 1.2159(3) 0.8943(3)
O3A_2 O -0.5369(4) 0.2159(3) 0.8943(3)
O3_2 O 0.5369(4) 0.7841(3) 0.1057(3)
O4A O 1.6941(4) 1.2454(3) 0.9574(3)
O5A O 0.5709(3) 0.6582(3) 0.6148(2)
O6A O 0.7985(4) 0.8070(3) 0.6687(3)
O7A O 0.8930(3) 1.2449(3) 0.6958(2)
O7A_2 O -0.1070(3) 0.2449(3) 0.6958(2)
O7_2 O 1.1070(3) 0.7551(3) 0.3042(2)
O8A O 0.7276(4) 1.2904(3) 0.6079(2)
O9A O 0.4954(4) 0.6205(3) 0.4074(2)
H15A H 0.4225 0.6402 0.4109
H16A H 0.5713 0.6853 0.4084
O10 O 0.9984(8) 0.7293(9) 0.9881(7)
O11 O 0.9696(11) 0.9066(11) 0.8850(7)
O12 O 0.9957(11) 0.8475(11) 0.1537(9)
O13 O 0.7687(6) 0.8112(6) 0.4113(6)
O14 O 0.8992(13) 0.9774(11) 0.3420(10)
O15? O 0.9654(14) 1.0030(13) 0.4412(9)
O16? O 0.828(3) 0.9009(16) 0.3051(12)
O17? O 0.8739(18) 0.8937(18) 0.4637(12)
loop_
_geom_bond_atom_site_label_1
_geom_bond_atom_site_label_2
_geom_bond_site_symmetry_1
_geom_bond_site_symmetry_2
Zn1 N5 1_555 1_555
Zn2 N2 1_555 1_555
Zn3 N4 1_555 1_555
Zn4 N3 1_555 1_555
C1 C2 1_555 1_555
C2 H1 1_555 1_555
C3 C2 1_555 1_555
C4 C3 1_555 1_555
H2 C4 1_555 1_555
C5 C4 1_555 1_555
H3 C5 1_555 1_555
C6 C1 1_555 1_555
H4 C6 1_555 1_555
C7 C1 1_555 1_555
C8 C3 1_555 1_555
C9 C10 1_555 1_555
C10 H5 1_555 1_555
C11 C10 1_555 1_555
C12 C11 1_555 1_555
H6 C12 1_555 1_555
C13 C12 1_555 1_555
H7 C13 1_555 1_555
C14 C9 1_555 1_555
H8 C14 1_555 1_555
C15 C9 1_555 1_555
C16 C11 1_555 1_555
C17 H9 1_555 1_555
C18 H10 1_555 1_555
C19 H11 1_555 1_555
C20 H12 1_555 1_555
C21 H13 1_555 1_555
C22 H14 1_555 1_555
N1 C18 1_555 1_555
N2 C17 1_555 1_555
N3 C17 1_555 1_555
N4 C19 1_555 1_555
N5 C20 1_555 1_555
N6 Zn2 1_555 1_555
N7 Zn2 1_555 1_555
N8 C22 1_555 1_555
N9 C21 1_555 1_555
O1 C7 1_555 1_555
O2 Zn3 1_555 1_555
O3 C8 1_555 1_555
O4 C8 1_555 1_555
O5 Zn1 1_555 1_555
O6 Zn3 1_555 1_555
O7 C16 1_555 1_555
O8 C16 1_555 1_555
O9 Zn1 1_555 1_555
H15 O9 1_555 1_555
H16 O9 1_555 1_555
Zn2A N2A_2 1_555 1_555
Zn2A_2 O7 1_555 1_555
Zn2_2 O7A 1_555 1_555
Zn2A_3 N2A 1_555 1_555
Zn3A N1_2 1_555 1_555
Zn3A_2 N1 1_555 1_555
Zn4A N3A 1_555 1_555
Zn4A_2 N8 1_555 1_555
Zn4_2 N9 1_555 1_555
Zn4A_3 O3 1_555 1_555
Zn4_3 N8A 1_555 1_555
Zn4_4 O3A 1_555 1_555
C1A C2A 1_555 1_555
C2A H1A 1_555 1_555
C3A C2A 1_555 1_555
C4A C3A 1_555 1_555
H2A C4A 1_555 1_555
C5A C4A 1_555 1_555
H3A C5A 1_555 1_555
C6A C1A 1_555 1_555
H4A C6A 1_555 1_555
C7A C1A 1_555 1_555
C8A C3A 1_555 1_555
C9A C10A 1_555 1_555
C10A H5A 1_555 1_555
C11A C10A 1_555 1_555
C12A C11A 1_555 1_555
H6A C12A 1_555 1_555
C13A C12A 1_555 1_555
H7A C13A 1_555 1_555
C14A C9A 1_555 1_555
H8A C14A 1_555 1_555
C15A C9A 1_555 1_555
C16A C11A 1_555 1_555
C17A H9A 1_555 1_555
C18A H10A 1_555 1_555
C19A H11A 1_555 1_555
C20A H12A 1_555 1_555
C21A H13A 1_555 1_555
C22A H14A 1_555 1_555
N1A Zn3 1_555 1_555
N2A C17A 1_555 1_555
N3A C17A 1_555 1_555
N4A Zn3A 1_555 1_555
N5A Zn1 1_555 1_555
N6A Zn2A 1_555 1_555
N7A Zn2A 1_555 1_555
N8A C22A 1_555 1_555
N8A_2 Zn4 1_555 1_555
N8_2 Zn4A 1_555 1_555
N9A Zn4A 1_555 1_555
N9_2 Zn4 1_555 1_555
O1A C7A 1_555 1_555
O2A Zn3A 1_555 1_555
O3A C8A 1_555 1_555
O3A_2 Zn4 1_555 1_555
O3_2 Zn4A 1_555 1_555
O4A C8A 1_555 1_555
O5A Zn1 1_555 1_555
O6A Zn3A 1_555 1_555
O7A C16A 1_555 1_555
O7A_2 Zn2 1_555 1_555
O7_2 Zn2A 1_555 1_555
O8A C16A 1_555 1_555
O9A Zn1 1_555 1_555
H15A O9A 1_555 1_555
H16A O9A 1_555 1_555
C5 C6 1_555 1_555
C7 O2 1_555 1_555
C13 C14 1_555 1_555
C15 O5 1_555 1_555
C15 O6 1_555 1_555
C18 N3 1_555 1_555
C19 N6 1_555 1_555
C20 N6 1_555 1_555
C21 N7 1_555 1_555
C22 N7 1_555 1_555
N1 N2 1_555 1_555
N4 N5 1_555 1_555
N8 N9 1_555 1_555
C5A C6A 1_555 1_555
C7A O2A 1_555 1_555
C13A C14A 1_555 1_555
C15A O5A 1_555 1_555
C15A O6A 1_555 1_555
C18A N1A 1_555 1_555
C18A N3A 1_555 1_555
C19A N4A 1_555 1_555
C19A N6A 1_555 1_555
C20A N5A 1_555 1_555
C20A N6A 1_555 1_555
C21A N7A 1_555 1_555
C21A N9A 1_555 1_555
C22A N7A 1_555 1_555
N1A N2A 1_555 1_555
N4A N5A 1_555 1_555
N8A N9A 1_555 1_555

#END
