
#######################################################################
#
#                 Cambridge Crystallographic Data Centre
#                                CCDC 
#
#######################################################################
#
# If this CIF has been generated from an entry in the Cambridge 
# Structural Database, then it will include bibliographic, chemical, 
# crystal, experimental, refinement or atomic coordinate data resulting 
# from the CCDC's data processing and validation procedures.
#
#######################################################################

data_LALPOF
_symmetry_cell_setting           triclinic
_symmetry_space_group_name_H-M   'P -1'
_symmetry_Int_Tables_number      2
_space_group_name_Hall           '-P 1'
loop_
_symmetry_equiv_pos_site_id
_symmetry_equiv_pos_as_xyz
1 x,y,z
2 -x,-y,-z
_cell_length_a                   9.5879(19)
_cell_length_b                   11.570(2)
_cell_length_c                   14.583(3)
_cell_angle_alpha                69.16(3)
_cell_angle_beta                 85.20(3)
_cell_angle_gamma                86.30(3)
_cell_volume                     1505.53
loop_
_atom_site_label
_atom_site_type_symbol
_atom_site_fract_x
_atom_site_fract_y
_atom_site_fract_z
Ce1 Ce 1.206088(16) 0.043155(15) -0.001207(12)
S1 S 0.95154(9) -0.22684(9) -0.23868(7)
S2 S 1.43610(9) 0.36807(8) 0.14876(7)
S3 S 1.21969(10) -0.25658(10) 0.24582(7)
O1 O 1.1746(2) -0.0476(2) -0.12938(18)
O2 O 1.0405(2) -0.1217(2) 0.07493(17)
O3 O 0.8685(2) -0.2491(2) 0.13083(19)
O4 O 0.9511(2) -0.0994(3) -0.1174(2)
C1 C 1.0769(3) -0.0976(3) -0.1499(2)
C2 C 1.1116(4) -0.1934(3) 0.3193(2)
N1 N 1.6934(3) 0.4674(2) 0.0949(2)
N2 N 1.7939(3) 0.3712(3) 0.0004(2)
N3 N 0.9243(3) -0.3487(3) -0.3626(2)
N4 N 0.9768(3) -0.2014(3) 0.3382(2)
C3 C 0.9922(3) -0.2236(3) 0.1315(2)
C4 C 1.0871(4) -0.3192(3) 0.1989(3)
H1 H 1.1324 -0.3698 0.1636
H2 H 1.0304 -0.3728 0.2539
N5 N 1.6583(3) 0.3294(3) 0.0304(2)
N6 N 1.1665(3) -0.1267(3) 0.3667(2)
N7 N 1.6663(4) 0.5455(3) 0.1500(3)
H3 H 1.671(5) 0.616(4) 0.106(3)
H4 H 1.742(5) 0.520(4) 0.198(3)
C5 C 1.0706(5) -0.0183(4) 0.4814(3)
H5 H 1.1213 0.0556 0.4441
H6 H 1.1244 -0.0663 0.5368
C6 C 1.0147(4) -0.3056(3) -0.3164(3)
N8 N 0.7789(4) -0.3245(4) -0.3590(3)
H7 H 0.7273 -0.3481 -0.3940
H8 H 0.7416 -0.2860 -0.3218
C7 C 1.1120(3) -0.1643(3) -0.2230(2)
H9 H 1.1488 -0.1069 -0.2855
H10 H 1.1818 -0.2303 -0.1980
N9 N 0.9414(3) -0.1353(3) 0.4027(2)
N10 N 1.1337(4) -0.4015(4) -0.4029(3)
C8 C 1.0560(4) -0.0930(3) 0.4176(3)
N11 N 1.1426(4) -0.3352(4) -0.3385(3)
C9 C 1.0044(4) -0.4072(3) -0.4154(3)
C10 C 0.9434(4) -0.4704(3) -0.4757(3)
H11 H 0.8809 -0.5333 -0.4338
H12 H 0.8891 -0.4104 -0.5257
N12 N 1.3055(4) -0.0943(4) 0.3629(3)
H13 H 1.3272 -0.0489 0.3948
H14 H 1.3693 -0.1197 0.3287
O5 O 1.3172(3) 0.2238(2) 0.03305(18)
O6 O 1.3617(2) 0.0371(2) 0.13854(18)
C11 C 1.4248(4) 0.2027(3) 0.1829(3)
H15 H 1.5184 0.1659 0.1951
H16 H 1.3688 0.1725 0.2447
C12 C 1.3645(3) 0.1552(3) 0.1112(2)
C13 C 1.6012(3) 0.3874(3) 0.0873(2)
C14 C 1.8114(3) 0.4549(3) 0.0390(2)
C15 C 1.9405(3) 0.5248(3) 0.0270(3)
H17 H 1.9688 0.5176 0.0912
H18 H 1.9214 0.6117 -0.0097
O7 O 1.3754(2) -0.1332(2) 0.02205(18)
H19 H 1.3786 -0.2014 0.0084
H20 H 1.4348 -0.1682 0.0739
O8 O 1.4074(2) 0.1204(2) -0.13525(18)
Ce1A Ce 0.793912(16) -1.043155(15) -0.998793(12)
Ce1A_2 Ce 0.793912(16) -0.043155(15) 0.001207(12)
Ce1_2 Ce 1.206088(16) -0.956845(15) -1.001207(12)
Ce1A_3 Ce 2.793912(16) 0.956845(15) 0.001207(12)
Ce1A_4 Ce 0.793912(16) -0.043155(15) 1.001207(12)
Ce1_3 Ce 1.206088(16) 0.043155(15) 0.998793(12)
S1A S 1.04846(9) -0.77316(9) -0.76132(7)
S2A S 2.56390(9) 0.63193(8) -0.14876(7)
S3A S 0.78031(10) 0.25658(10) 0.75418(7)
O1A O 0.8254(2) -0.9524(2) -0.87062(18)
O2A O 0.9595(2) 0.1217(2) 0.92507(17)
O2A_2 O 0.9595(2) 0.1217(2) -0.07493(17)
O2A_3 O 0.9595(2) -0.8783(2) -1.07493(17)
O2_2 O 1.0405(2) -1.1217(2) -0.92507(17)
O3A O 1.1315(2) 0.2491(2) 0.86917(19)
O3A_2 O 1.1315(2) 0.2491(2) -0.13083(19)
O3_2 O 0.8685(2) -1.2491(2) -0.86917(19)
O4A O 1.0489(2) -0.9006(3) -0.8826(2)
O4A_2 O 1.0489(2) 0.0994(3) 0.1174(2)
O4_2 O 0.9511(2) -1.0994(3) -1.1174(2)
C1A C 0.9231(3) -0.9024(3) -0.8501(2)
C2A C 0.8884(4) 0.1934(3) 0.6807(2)
N1A N 2.3066(3) 0.5326(2) -0.0949(2)
N2A N 2.2061(3) 0.6288(3) -0.0004(2)
N3A N 1.0757(3) -0.6513(3) -0.6374(2)
N4A N 1.0232(3) 0.2014(3) 0.6618(2)
C3A C 1.0078(3) 0.2236(3) 0.8685(2)
C4A C 0.9129(4) 0.3192(3) 0.8011(3)
H1A H 0.8676 0.3698 0.8364
H2A H 0.9696 0.3728 0.7461
N5A N 2.3417(3) 0.6706(3) -0.0304(2)
N6A N 0.8335(3) 0.1267(3) 0.6333(2)
N7A N 2.3337(4) 0.4545(3) -0.1500(3)
H3A H 2.329(5) 0.384(4) -0.106(3)
H4A H 2.258(5) 0.480(4) -0.198(3)
C5A C 0.9294(5) 0.0183(4) 0.5186(3)
H5A H 0.8787 -0.0556 0.5559
H6A H 0.8756 0.0663 0.4632
C6A C 0.9853(4) -0.6944(3) -0.6836(3)
N8A N 1.2211(4) -0.6755(4) -0.6410(3)
H7A H 1.2727 -0.6519 -0.6060
H8A H 1.2584 -0.7140 -0.6782
C7A C 0.8880(3) -0.8357(3) -0.7770(2)
H9A H 0.8512 -0.8931 -0.7145
H10A H 0.8182 -0.7697 -0.8020
N9A N 1.0586(3) 0.1353(3) 0.5973(2)
N10A N 0.8663(4) -0.5985(4) -0.5971(3)
C8A C 0.9440(4) 0.0930(3) 0.5824(3)
N11A N 0.8574(4) -0.6648(4) -0.6615(3)
C9A C 0.9956(4) -0.5928(3) -0.5846(3)
C10A C 1.0566(4) -0.5296(3) -0.5243(3)
H11A H 1.1191 -0.4667 -0.5662
H12A H 1.1109 -0.5896 -0.4743
N12A N 0.6945(4) 0.0943(4) 0.6371(3)
H13A H 0.6728 0.0489 0.6052
H14A H 0.6307 0.1197 0.6713
O5A O 2.6828(3) 0.7762(2) -0.03305(18)
O5A_2 O 0.6828(3) -1.2238(2) -1.03305(18)
O6A O 2.6383(2) 0.9629(2) -0.13854(18)
O6A_2 O 0.6383(2) -1.0371(2) -1.13854(18)
C11A C 2.5752(4) 0.7973(3) -0.1829(3)
H15A H 2.4816 0.8341 -0.1951
H16A H 2.6312 0.8275 -0.2447
C12A C 2.6355(3) 0.8448(3) -0.1112(2)
C13A C 2.3988(3) 0.6126(3) -0.0873(2)
C14A C 2.1886(3) 0.5451(3) -0.0390(2)
C15A C 2.0595(3) 0.4752(3) -0.0270(3)
H17A H 2.0312 0.4824 -0.0912
H18A H 2.0786 0.3883 0.0097
O7A O 0.6246(2) -0.8668(2) -1.02205(18)
H19A H 0.6214 -0.7986 -1.0084
H20A H 0.5652 -0.8318 -1.0739
O8A O 0.5926(2) -1.1204(2) -0.86475(18)
O9 O 1.3240(4) 0.2658(5) -0.3136(3)
O10 O 0.6068(5) 0.3621(4) 0.5245(3)
O11 O 1.4530(5) 0.4888(4) 0.3472(4)
O12 O 0.5937(7) 0.1730(9) 0.3881(6)
O13 O 0.6416(8) -0.1236(10) 0.4450(6)
loop_
_geom_bond_atom_site_label_1
_geom_bond_atom_site_label_2
_geom_bond_site_symmetry_1
_geom_bond_site_symmetry_2
Ce1 O1 1_555 1_555
S1 C6 1_555 1_555
S2 C11 1_555 1_555
S3 C2 1_555 1_555
O1 C1 1_555 1_555
O2 Ce1 1_555 1_555
O3 C3 1_555 1_555
O4 C1 1_555 1_555
C1 C7 1_555 1_555
C2 N4 1_555 1_555
N1 N7 1_555 1_555
N2 N5 1_555 1_555
N3 C6 1_555 1_555
N4 N9 1_555 1_555
C3 O2 1_555 1_555
C4 S3 1_555 1_555
H1 C4 1_555 1_555
H2 C4 1_555 1_555
N5 C13 1_555 1_555
N6 C2 1_555 1_555
N7 H3 1_555 1_555
H4 N7 1_555 1_555
C5 H5 1_555 1_555
H6 C5 1_555 1_555
C6 N11 1_555 1_555
N8 N3 1_555 1_555
H7 N8 1_555 1_555
H8 N8 1_555 1_555
C7 S1 1_555 1_555
H9 C7 1_555 1_555
H10 C7 1_555 1_555
N9 C8 1_555 1_555
N10 N11 1_555 1_555
C8 N6 1_555 1_555
C9 N3 1_555 1_555
C10 C9 1_555 1_555
H11 C10 1_555 1_555
H12 C10 1_555 1_555
N12 N6 1_555 1_555
H13 N12 1_555 1_555
H14 N12 1_555 1_555
O5 Ce1 1_555 1_555
O6 Ce1 1_555 1_555
C11 H15 1_555 1_555
H16 C11 1_555 1_555
C12 O5 1_555 1_555
C13 S2 1_555 1_555
C14 N1 1_555 1_555
C15 C14 1_555 1_555
H17 C15 1_555 1_555
H18 C15 1_555 1_555
O7 Ce1 1_555 1_555
H19 O7 1_555 1_555
H20 O7 1_555 1_555
O8 Ce1 1_555 1_555
Ce1A O1A 1_555 1_555
Ce1A_2 O2 1_555 1_555
Ce1_2 O2A_3 1_555 1_555
Ce1A_3 O5A 1_555 1_555
Ce1A_4 O2A 1_555 1_555
Ce1_3 O2A 1_555 1_555
S1A C6A 1_555 1_555
S2A C11A 1_555 1_555
S3A C2A 1_555 1_555
O1A C1A 1_555 1_555
O2A C3A 1_555 1_555
O2A_2 Ce1 1_555 1_555
O2A_3 Ce1A 1_555 1_555
O2_2 Ce1A 1_555 1_555
O3A Ce1_3 1_555 1_555
O3A_2 Ce1 1_555 1_555
O3_2 Ce1A 1_555 1_555
O4A Ce1_2 1_555 1_555
O4A_2 Ce1 1_555 1_555
O4_2 Ce1A 1_555 1_555
C1A O4A 1_555 1_555
C2A N4A 1_555 1_555
N1A N7A 1_555 1_555
N2A N5A 1_555 1_555
N3A C6A 1_555 1_555
N4A N9A 1_555 1_555
C3A O3A 1_555 1_555
C4A S3A 1_555 1_555
H1A C4A 1_555 1_555
H2A C4A 1_555 1_555
N5A C13A 1_555 1_555
N6A C2A 1_555 1_555
N7A H3A 1_555 1_555
H4A N7A 1_555 1_555
C5A C5 1_555 1_555
H5A C5A 1_555 1_555
H6A C5A 1_555 1_555
C6A N11A 1_555 1_555
N8A N3A 1_555 1_555
H7A N8A 1_555 1_555
H8A N8A 1_555 1_555
C7A S1A 1_555 1_555
H9A C7A 1_555 1_555
H10A C7A 1_555 1_555
N9A C8A 1_555 1_555
N10A N11A 1_555 1_555
C8A N6A 1_555 1_555
C9A N3A 1_555 1_555
C10A C10 1_555 1_555
H11A C10A 1_555 1_555
H12A C10A 1_555 1_555
N12A N6A 1_555 1_555
H13A N12A 1_555 1_555
H14A N12A 1_555 1_555
O5A C12A 1_555 1_555
O5A_2 Ce1A 1_555 1_555
O6A Ce1A_3 1_555 1_555
O6A_2 Ce1A 1_555 1_555
C11A H15A 1_555 1_555
H16A C11A 1_555 1_555
C12A O6A 1_555 1_555
C13A S2A 1_555 1_555
C14A N1A 1_555 1_555
C15A C15 1_555 1_555
H17A C15A 1_555 1_555
H18A C15A 1_555 1_555
O7A Ce1A 1_555 1_555
H19A O7A 1_555 1_555
H20A O7A 1_555 1_555
O8A Ce1A 1_555 1_555
O3 Ce1A_2 1_555 1_555
O4 Ce1A_2 1_555 1_555
N1 C13 1_555 1_555
N2 C14 1_555 1_555
C3 C4 1_555 1_555
C5 C8 1_555 1_555
N10 C9 1_555 1_555
O6 C12 1_555 1_555
C11 C12 1_555 1_555
Ce1A_2 O2A_2 1_555 1_555
Ce1_2 O2_2 1_555 1_555
C1A C7A 1_555 1_555
N1A C13A 1_555 1_555
N2A C14A 1_555 1_555
C3A C4A 1_555 1_555
C5A C8A 1_555 1_555
N10A C9A 1_555 1_555
C9A C10A 1_555 1_555
C11A C12A 1_555 1_555
C14A C15A 1_555 1_555

#END
