
#######################################################################
#
#                 Cambridge Crystallographic Data Centre
#                                CCDC 
#
#######################################################################
#
# If this CIF has been generated from an entry in the Cambridge 
# Structural Database, then it will include bibliographic, chemical, 
# crystal, experimental, refinement or atomic coordinate data resulting 
# from the CCDC's data processing and validation procedures.
#
#######################################################################

data_LAVTUZ
_symmetry_cell_setting           tetragonal
_symmetry_space_group_name_H-M   'P 41 2 2'
_symmetry_Int_Tables_number      91
_space_group_name_Hall           'P 4w 2c'
loop_
_symmetry_equiv_pos_site_id
_symmetry_equiv_pos_as_xyz
1 x,y,z
2 -x,-y,1/2+z
3 -y,x,1/4+z
4 y,-x,3/4+z
5 -x,y,-z
6 x,-y,1/2-z
7 y,x,3/4-z
8 -y,-x,1/4-z
_cell_length_a                   10.2400(14)
_cell_length_b                   10.2400(14)
_cell_length_c                   14.420(3)
_cell_angle_alpha                90
_cell_angle_beta                 90
_cell_angle_gamma                90
_cell_volume                     1512.05
loop_
_atom_site_label
_atom_site_type_symbol
_atom_site_fract_x
_atom_site_fract_y
_atom_site_fract_z
Yb1 Yb 0.647848(17) 0.352152(17) 0.1250
O1 O 0.5739(5) 0.1660(4) 0.0586(3)
O2 O 0.8114(4) 0.1886(4) 0.1250
O3 O 0.6124(5) -0.4338(4) 0.1498(3)
O4 O 0.5951(4) -0.2598(4) 0.2376(3)
C1 C 0.5890(5) -0.3178(5) 0.1610(4)
C2 C 0.5446(6) -0.1042(5) 0.0775(4)
H1 H 0.5749 -0.0590 0.1291
C3 C 0.5435(5) -0.2398(5) 0.0774(3)
C4 C 0.5000 0.1116(7) 0.0000
C5 C 0.5000 -0.0357(7) 0.0000
C6 C 0.5000 -0.3081(7) 0.0000
H2 H 0.5000 -0.3989 0.0000
Yb1_2 Yb 0.647848(17) -0.647848(17) 0.1250
Yb1A Yb 0.352152(17) -0.352152(17) -0.3750
Yb1B Yb 0.647848(17) -0.352152(17) 0.3750
Yb1C Yb 0.352152(17) -0.647848(17) -0.1250
Yb1C_2 Yb 0.352152(17) 0.352152(17) -0.1250
O1D O 0.4261(5) 0.1660(4) -0.0586(3)
O1G O 0.8340(4) 0.4261(5) 0.1914(3)
O3D O 0.3876(5) -0.4338(4) -0.1498(3)
O3_2 O 0.6124(5) 0.5662(4) 0.1498(3)
O3G O 0.4338(4) 0.3876(5) 0.1002(3)
O4D O 0.4049(4) -0.2598(4) -0.2376(3)
O4C O 0.7402(4) 0.4049(4) -0.0124(3)
O4E O 0.5951(4) 0.2598(4) 0.2624(3)
C1D C 0.4110(5) -0.3178(5) -0.1610(4)
C2D C 0.4554(6) -0.1042(5) -0.0775(4)
H1D H 0.4251 -0.0590 -0.1291
C3D C 0.4565(5) -0.2398(5) -0.0774(3)
loop_
_geom_bond_atom_site_label_1
_geom_bond_atom_site_label_2
_geom_bond_site_symmetry_1
_geom_bond_site_symmetry_2
Yb1 O1 1_555 1_555
O1 C4 1_555 1_555
O2 Yb1 1_555 1_555
O3 C1 1_555 1_555
O4 C1 1_555 1_555
C1 C3 1_555 1_555
C2 H1 1_555 1_555
C3 C2 1_555 1_555
C4 C5 1_555 1_555
C5 C2 1_555 1_555
C6 C3 1_555 1_555
H2 C6 1_555 1_555
Yb1_2 O3 1_555 1_555
Yb1A O4D 1_555 1_555
Yb1B O4 1_555 1_555
Yb1C O3D 1_555 1_555
Yb1C_2 O1D 1_555 1_555
O1D C4 1_555 1_555
O1G Yb1 1_555 1_555
O3D C1D 1_555 1_555
O3_2 Yb1 1_555 1_555
O3G Yb1 1_555 1_555
O4D C1D 1_555 1_555
O4C Yb1 1_555 1_555
O4E Yb1 1_555 1_555
C1D C3D 1_555 1_555
C2D C5 1_555 1_555
H1D C2D 1_555 1_555
C3D C6 1_555 1_555
C2D C3D 1_555 1_555

#END
