
#######################################################################
#
#                 Cambridge Crystallographic Data Centre
#                                CCDC 
#
#######################################################################
#
# If this CIF has been generated from an entry in the Cambridge 
# Structural Database, then it will include bibliographic, chemical, 
# crystal, experimental, refinement or atomic coordinate data resulting 
# from the CCDC's data processing and validation procedures.
#
#######################################################################

data_LAZKUU
_symmetry_cell_setting           monoclinic
_symmetry_space_group_name_H-M   'P 21/c'
_symmetry_Int_Tables_number      14
_space_group_name_Hall           '-P 2ybc'
loop_
_symmetry_equiv_pos_site_id
_symmetry_equiv_pos_as_xyz
1 x,y,z
2 -x,1/2+y,1/2-z
3 -x,-y,-z
4 x,1/2-y,1/2+z
_cell_length_a                   20.613(2)
_cell_length_b                   12.7980(11)
_cell_length_c                   18.8901(17)
_cell_angle_alpha                90
_cell_angle_beta                 104.4500(10)
_cell_angle_gamma                90
_cell_volume                     4825.66
loop_
_atom_site_label
_atom_site_type_symbol
_atom_site_fract_x
_atom_site_fract_y
_atom_site_fract_z
Cd1 Cd 0.29904(3) 0.49657(6) 0.92213(3)
Cl1 Cl 0.20733(13) 0.6421(2) 0.91340(15)
Cl2 Cl 0.39386(13) 0.3587(2) 0.93464(14)
N1 N 0.4516(4) 0.8141(6) 0.7446(4)
N2 N 0.3553(4) 0.6080(6) 0.8572(4)
N3 N 0.3600(4) 0.9279(7) 0.5356(4)
N4 N 1.1359(4) 1.2054(6) 1.1067(4)
N5 N 1.2330(4) 1.0796(6) 1.3118(4)
N6 N 1.2417(4) 1.3840(6) 0.9867(4)
C1 C 0.6933(5) 1.0142(8) 0.8852(6)
C2 C 0.7460(6) 1.0480(9) 0.9121(7)
C3 C 0.8109(6) 1.0828(9) 0.9444(7)
C4 C 0.8665(6) 1.1088(9) 0.9742(7)
C5 C 0.6313(5) 0.9659(8) 0.8499(7)
C6 C 0.6215(5) 0.9275(9) 0.7797(6)
H7 H 0.6548 0.9367 0.7548
C7 C 0.5640(5) 0.8762(8) 0.7462(6)
H8 H 0.5588 0.8489 0.6995
C8 C 0.5129(5) 0.8650(8) 0.7824(6)
C9 C 0.5219(5) 0.9038(9) 0.8514(6)
H9 H 0.4879 0.8968 0.8754
C10 C 0.5798(5) 0.9526(9) 0.8855(6)
H10 H 0.5853 0.9774 0.9329
C11 C 0.9343(5) 1.1370(9) 1.0076(7)
C12 C 0.9823(6) 1.1243(10) 0.9732(7)
H11 H 0.9704 1.0998 0.9254
C13 C 1.0499(5) 1.1455(9) 1.0047(6)
H12 H 1.0818 1.1359 0.9782
C14 C 1.0675(5) 1.1793(9) 1.0729(6)
C15 C 1.0196(6) 1.1944(9) 1.1115(6)
H13 H 1.0317 1.2216 1.1586
C16 C 0.9537(6) 1.1690(10) 1.0798(7)
H14 H 0.9221 1.1733 1.1073
C17 C 0.3225(5) 0.6681(8) 0.8041(6)
H15 H 0.2760 0.6645 0.7923
C18 C 0.3511(5) 0.7362(8) 0.7642(5)
H16 H 0.3249 0.7758 0.7265
C19 C 0.4190(5) 0.7437(7) 0.7819(5)
C20 C 0.4538(5) 0.6816(8) 0.8367(5)
H17 H 0.5004 0.6840 0.8495
C21 C 0.4218(5) 0.6169(8) 0.8726(5)
H18 H 0.4473 0.5762 0.9102
C22 C 0.3558(5) 0.8295(8) 0.5536(6)
H19 H 0.3310 0.7849 0.5181
C23 C 0.3852(5) 0.7878(8) 0.6202(6)
H20 H 0.3816 0.7168 0.6290
C24 C 0.4198(5) 0.8525(8) 0.6736(5)
C25 C 0.4248(5) 0.9563(8) 0.6556(6)
H21 H 0.4478 1.0033 0.6904
C26 C 0.3958(5) 0.9889(8) 0.5870(5)
H22 H 0.4014 1.0584 0.5753
C27 C 1.1843(5) 1.0291(8) 1.2651(6)
H23 H 1.1724 0.9629 1.2778
C28 C 1.1509(5) 1.0701(8) 1.1990(6)
H24 H 1.1160 1.0324 1.1693
C29 C 1.1677(5) 1.1652(8) 1.1755(5)
C30 C 1.2176(5) 1.2189(8) 1.2256(5)
H25 H 1.2304 1.2854 1.2146
C31 C 1.2474(5) 1.1734(8) 1.2907(5)
H26 H 1.2805 1.2113 1.3229
C32 C 1.1778(5) 1.3988(8) 0.9817(6)
H27 H 1.1557 1.4495 0.9494
C33 C 1.1414(5) 1.3443(9) 1.0212(6)
H28 H 1.0967 1.3612 1.0170
C34 C 1.1716(5) 1.2632(8) 1.0678(6)
C35 C 1.2393(5) 1.2474(8) 1.0721(6)
H29 H 1.2633 1.1964 1.1029
C36 C 1.2703(5) 1.3084(8) 1.0301(6)
H30 H 1.3152 1.2948 1.0329
Cd1C Cd 0.29904(3) 1.00343(6) 0.42213(3)
Cd1C_2 Cd 1.29904(3) 1.00343(6) 1.42213(3)
Cd1_2 Cd 1.29904(3) 1.49657(6) 0.92213(3)
N3C N 0.3600(4) 0.5721(7) 1.0356(4)
N5C N 0.2330(4) 0.4204(6) 0.8118(4)
N6_2 N 0.2417(4) 0.3840(6) 0.9867(4)
N7 N 0.944(8) 0.817(9) 0.185(6)
O1 O 0.991(3) 0.663(7) 0.184(4)
C37 C 0.940(10) 0.716(12) 0.172(9)
H31 H 0.8981 0.6843 0.1527
C38 C 0.883(3) 0.882(7) 0.169(4)
H32 H 0.8636 0.8828 0.1174
H33 H 0.8950 0.9517 0.1860
H34 H 0.8518 0.8536 0.1939
C39 C 1.009(3) 0.871(6) 0.214(3)
H35 H 1.0430 0.8207 0.2325
H36 H 1.0045 0.9174 0.2525
H37 H 1.0199 0.9107 0.1755
N8 N 0.827(6) 0.067(10) 0.352(8)
O2 O 0.928(4) 0.111(4) 0.410(3)
C40 C 0.892(8) 0.050(13) 0.364(10)
H38 H 0.9099 -0.0027 0.3408
C41 C 0.800(4) 0.150(5) 0.390(4)
H39 H 0.8150 0.1386 0.4418
H40 H 0.7523 0.1486 0.3752
H41 H 0.8164 0.2160 0.3779
C42 C 0.776(4) 0.005(5) 0.301(5)
H42 H 0.7388 -0.0072 0.3213
H43 H 0.7954 -0.0608 0.2921
H44 H 0.7618 0.0423 0.2556
O3 O 0.972(2) 0.472(4) 0.085(3)
H1 H 0.9763 0.5330 0.1023
H2 H 0.9307 0.4542 0.0768
O4 O 0.878(2) 0.253(3) 0.270(2)
H3 H 0.8692 0.2208 0.3056
H4 H 0.9185 0.2410 0.2703
O5 O 0.5110(13) 0.859(2) 0.0385(16)
H5 H 0.5330 0.8905 0.0765
H6 H 0.5293 0.7995 0.0370
C43? C 0.673(7) -0.066(11) 0.185(8)
C44? C 0.634(4) 0.053(6) 0.083(4)
C45? C 0.755(4) 0.024(6) 0.132(4)
H45? H 0.7051 -0.1012 0.2200
H46? H 0.6382 0.1273 0.0919
H47? H 0.5911 0.0300 0.0874
H48? H 0.6390 0.0385 0.0349
H49? H 0.7782 -0.0392 0.1278
H50? H 0.7777 0.0606 0.1757
H51? H 0.7527 0.0676 0.0904
N9? N 0.687(6) -0.001(8) 0.137(6)
O6? O 0.611(3) -0.076(6) 0.178(4)
loop_
_geom_bond_atom_site_label_1
_geom_bond_atom_site_label_2
_geom_bond_site_symmetry_1
_geom_bond_site_symmetry_2
Cd1 Cl1 1_555 1_555
Cl2 Cd1 1_555 1_555
N1 C8 1_555 1_555
N2 Cd1 1_555 1_555
N3 C22 1_555 1_555
N4 C14 1_555 1_555
N5 C27 1_555 1_555
N6 C32 1_555 1_555
N7 C37 1_555 1_555
N8 C40 1_555 1_555
O1 C37 1_555 1_555
O2 C40 1_555 1_555
O3 H1 1_555 1_555
H2 O3 1_555 1_555
O4 H3 1_555 1_555
H4 O4 1_555 1_555
O5 H5 1_555 1_555
H6 O5 1_555 1_555
C1 C2 1_555 1_555
C2 C3 1_555 1_555
C3 C4 1_555 1_555
C4 C11 1_555 1_555
C5 C1 1_555 1_555
C6 C5 1_555 1_555
H7 C6 1_555 1_555
C7 C6 1_555 1_555
H8 C7 1_555 1_555
C8 C7 1_555 1_555
C9 C8 1_555 1_555
H9 C9 1_555 1_555
C10 C5 1_555 1_555
H10 C10 1_555 1_555
C11 C12 1_555 1_555
C12 H11 1_555 1_555
C13 C12 1_555 1_555
H12 C13 1_555 1_555
C14 C13 1_555 1_555
C15 C14 1_555 1_555
H13 C15 1_555 1_555
C16 C11 1_555 1_555
H14 C16 1_555 1_555
C17 N2 1_555 1_555
H15 C17 1_555 1_555
C18 C17 1_555 1_555
H16 C18 1_555 1_555
C19 N1 1_555 1_555
C20 C19 1_555 1_555
H17 C20 1_555 1_555
C21 N2 1_555 1_555
H18 C21 1_555 1_555
C22 H19 1_555 1_555
C23 C22 1_555 1_555
H20 C23 1_555 1_555
C24 N1 1_555 1_555
C25 C24 1_555 1_555
H21 C25 1_555 1_555
C26 N3 1_555 1_555
H22 C26 1_555 1_555
C27 H23 1_555 1_555
C28 C27 1_555 1_555
H24 C28 1_555 1_555
C29 N4 1_555 1_555
C30 C29 1_555 1_555
H25 C30 1_555 1_555
C31 N5 1_555 1_555
H26 C31 1_555 1_555
C32 H27 1_555 1_555
C33 C32 1_555 1_555
H28 C33 1_555 1_555
C34 N4 1_555 1_555
C35 C34 1_555 1_555
H29 C35 1_555 1_555
C36 N6 1_555 1_555
H30 C36 1_555 1_555
C37 H31 1_555 1_555
C38 N7 1_555 1_555
H32 C38 1_555 1_555
H33 C38 1_555 1_555
H34 C38 1_555 1_555
C39 N7 1_555 1_555
H35 C39 1_555 1_555
H36 C39 1_555 1_555
H37 C39 1_555 1_555
C40 H38 1_555 1_555
C41 N8 1_555 1_555
H39 C41 1_555 1_555
H40 C41 1_555 1_555
H41 C41 1_555 1_555
C42 N8 1_555 1_555
H42 C42 1_555 1_555
H43 C42 1_555 1_555
H44 C42 1_555 1_555
Cd1C N3 1_555 1_555
Cd1C_2 N5 1_555 1_555
Cd1_2 N6 1_555 1_555
N3C Cd1 1_555 1_555
N5C Cd1 1_555 1_555
N6_2 Cd1 1_555 1_555
C9 C10 1_555 1_555
C15 C16 1_555 1_555
C18 C19 1_555 1_555
C20 C21 1_555 1_555
C23 C24 1_555 1_555
C25 C26 1_555 1_555
C28 C29 1_555 1_555
C30 C31 1_555 1_555
C33 C34 1_555 1_555
C35 C36 1_555 1_555

#END
