
#######################################################################
#
#                 Cambridge Crystallographic Data Centre
#                                CCDC 
#
#######################################################################
#
# If this CIF has been generated from an entry in the Cambridge 
# Structural Database, then it will include bibliographic, chemical, 
# crystal, experimental, refinement or atomic coordinate data resulting 
# from the CCDC's data processing and validation procedures.
#
#######################################################################

data_LEGGEK
_symmetry_cell_setting           triclinic
_symmetry_space_group_name_H-M   'P -1'
_symmetry_Int_Tables_number      2
_space_group_name_Hall           '-P 1'
loop_
_symmetry_equiv_pos_site_id
_symmetry_equiv_pos_as_xyz
1 x,y,z
2 -x,-y,-z
_cell_length_a                   7.7970(16)
_cell_length_b                   10.047(2)
_cell_length_c                   13.577(3)
_cell_angle_alpha                110.18(3)
_cell_angle_beta                 105.46(3)
_cell_angle_gamma                93.90(3)
_cell_volume                     947.001
loop_
_atom_site_label
_atom_site_type_symbol
_atom_site_fract_x
_atom_site_fract_y
_atom_site_fract_z
Zn1 Zn 0.63082(5) -0.12226(4) 0.25522(3)
Zn2 Zn 1.0000 0.5000 0.5000
Zn3 Zn 1.5000 0.5000 0.5000
O1 O 0.8593(3) -0.0936(3) 0.2098(2)
O2 O 0.6148(4) -0.0929(3) 0.0870(2)
O3 O 0.3642(3) -0.2033(2) 0.1991(2)
O4 O 0.4932(3) -0.3802(3) 0.1126(2)
N1 N 1.0821(4) 0.4272(3) 0.3468(2)
N2 N 1.2607(4) 0.4276(3) 0.3465(2)
N3 N 1.0842(4) 0.3404(3) 0.1764(2)
H1 H 1.0470 0.3032 0.1038
N4 N 0.7886(4) 0.3185(3) 0.4303(2)
N5 N 0.6107(4) 0.3141(3) 0.4286(2)
N6 N 0.6489(4) 0.0904(3) 0.3429(2)
N7 N 0.8207(4) 0.6219(3) 0.4350(2)
N8 N 0.6446(4) 0.6211(3) 0.4370(2)
N9 N 0.7022(4) 0.7695(3) 0.3562(2)
C1 C 0.9794(4) 0.3744(4) 0.2436(3)
H2 H 0.8512 0.3618 0.2196
C2 C 1.2578(4) 0.3752(4) 0.2435(3)
H3 H 1.3614 0.3633 0.2192
C3 C 0.8051(4) 0.1848(3) 0.3787(3)
H4 H 0.9150 0.1575 0.3678
C4 C 0.5335(4) 0.1765(3) 0.3761(3)
H5 H 0.4098 0.1422 0.3633
C5 C 0.8485(4) 0.7118(3) 0.3865(3)
H6 H 0.9599 0.7333 0.3744
C6 C 0.5805(4) 0.7098(4) 0.3897(3)
H7 H 0.4610 0.7294 0.3803
C7 C 0.7823(5) -0.0755(4) 0.1221(3)
C8 C 0.8961(5) -0.0361(3) 0.0594(3)
C9 C 1.0818(5) -0.0334(4) 0.0906(3)
H8 H 1.1377 -0.0558 0.1528
C10 C 0.8136(5) -0.0020(4) -0.0317(3)
H9 H 0.6870 -0.0029 -0.0532
C11 C 0.0188(4) -0.3756(3) 0.0920(3)
H10 H 0.0322 -0.2908 0.1547
C12 C 0.1519(4) -0.5424(4) -0.0303(3)
H11 H 0.2550 -0.5711 -0.0509
C13 C 0.1715(4) -0.4173(3) 0.0620(3)
C14 C 0.3567(4) -0.3285(4) 0.1276(3)
Zn1A Zn 1.36918(5) 1.12226(4) 0.74478(3)
Zn1_2 Zn 0.63082(5) 0.87774(4) 0.25522(3)
Zn1A_2 Zn 1.36918(5) 0.12226(4) -0.25522(3)
Zn1A_3 Zn -0.63082(5) -0.87774(4) -0.25522(3)
Zn1A_4 Zn 1.36918(5) 0.12226(4) 0.74478(3)
Zn3_2 Zn 0.5000 0.5000 0.5000
O1A O 1.1407(3) 0.0936(3) -0.2098(2)
O1A_2 O 1.1407(3) 1.0936(3) 0.7902(2)
O2A O 1.3852(4) 0.0929(3) -0.0870(2)
O2A_2 O 1.3852(4) 1.0929(3) 0.9130(2)
O3A O -0.3642(3) -0.7967(2) -0.1991(2)
O3A_2 O 1.6358(3) 1.2033(2) 0.8009(2)
O4A O -0.4932(3) -0.6198(3) -0.1126(2)
N1A N 0.9179(4) 0.5728(3) 0.6532(2)
N2A N 0.7393(4) 0.5724(3) 0.6535(2)
N2A_2 N 1.7393(4) 0.5724(3) 0.6535(2)
N3A N 0.9158(4) 0.6596(3) 0.8236(2)
H1A H 0.9530 0.6968 0.8962
N4A N 1.2114(4) 0.6815(3) 0.5697(2)
N5A N 1.3893(4) 0.6859(3) 0.5714(2)
N5_2 N 1.6107(4) 0.3141(3) 0.4286(2)
N6A N 1.3511(4) 0.9096(3) 0.6571(2)
N7A N 1.1793(4) 0.3781(3) 0.5650(2)
N8A N 1.3554(4) 0.3789(3) 0.5630(2)
N8_2 N 1.6446(4) 0.6211(3) 0.4370(2)
N9A N 1.2978(4) 0.2305(3) 0.6438(2)
N9_2 N 0.7022(4) -0.2305(3) 0.3562(2)
N9A_2 N 1.2978(4) 1.2305(3) 0.6438(2)
C1A C 1.0206(4) 0.6256(4) 0.7564(3)
H2A H 1.1488 0.6382 0.7804
C2A C 0.7422(4) 0.6248(4) 0.7565(3)
H3A H 0.6386 0.6367 0.7808
C3A C 1.1949(4) 0.8152(3) 0.6213(3)
H4A H 1.0850 0.8425 0.6322
C4A C 1.4665(4) 0.8235(3) 0.6239(3)
H5A H 1.5902 0.8578 0.6367
C5A C 1.1515(4) 0.2882(3) 0.6135(3)
H6A H 1.0401 0.2667 0.6256
C6A C 1.4195(4) 0.2902(4) 0.6103(3)
H7A H 1.5390 0.2706 0.6197
C7A C 1.2177(5) 0.0755(4) -0.1221(3)
C8A C 1.1039(5) 0.0361(3) -0.0594(3)
C9A C 0.9182(5) 0.0334(4) -0.0906(3)
H8A H 0.8623 0.0558 -0.1528
C10A C 1.1864(5) 0.0020(4) 0.0317(3)
H9A H 1.3130 0.0029 0.0532
C11A C -0.0188(4) -0.6244(3) -0.0920(3)
H10A H -0.0322 -0.7092 -0.1547
C12A C -0.1519(4) -0.4576(4) 0.0303(3)
H11A H -0.2550 -0.4289 0.0509
C13A C -0.1715(4) -0.5827(3) -0.0620(3)
C14A C -0.3567(4) -0.6715(4) -0.1276(3)
O5 O 0.5562(4) -0.6624(3) 0.1186(2)
O6 O 0.1975(7) 0.9251(6) 0.3642(4)
loop_
_geom_bond_atom_site_label_1
_geom_bond_atom_site_label_2
_geom_bond_site_symmetry_1
_geom_bond_site_symmetry_2
Zn1 O1 1_555 1_555
Zn2 N1 1_555 1_555
Zn3 N2 1_555 1_555
O1 C7 1_555 1_555
O2 Zn1 1_555 1_555
O3 Zn1 1_555 1_555
O4 C14 1_555 1_555
N1 N2 1_555 1_555
N2 C2 1_555 1_555
N3 H1 1_555 1_555
N4 Zn2 1_555 1_555
N5 N4 1_555 1_555
N6 Zn1 1_555 1_555
N7 Zn2 1_555 1_555
N8 N7 1_555 1_555
N9 C5 1_555 1_555
C1 N1 1_555 1_555
H2 C1 1_555 1_555
C2 N3 1_555 1_555
H3 C2 1_555 1_555
C3 N4 1_555 1_555
H4 C3 1_555 1_555
C4 N5 1_555 1_555
H5 C4 1_555 1_555
C5 N7 1_555 1_555
H6 C5 1_555 1_555
C6 N8 1_555 1_555
H7 C6 1_555 1_555
C7 O2 1_555 1_555
C8 C7 1_555 1_555
C9 C8 1_555 1_555
H8 C9 1_555 1_555
C10 C8 1_555 1_555
H9 C10 1_555 1_555
C11 H10 1_555 1_555
C12 H11 1_555 1_555
C13 C11 1_555 1_555
C14 O3 1_555 1_555
Zn1A O1A_2 1_555 1_555
Zn1_2 N9 1_555 1_555
Zn1A_2 O1A 1_555 1_555
Zn1A_3 O3A 1_555 1_555
Zn1A_4 N9A 1_555 1_555
Zn3_2 N5 1_555 1_555
O1A C7A 1_555 1_555
O2A Zn1A_2 1_555 1_555
O2A_2 Zn1A 1_555 1_555
O3A C14A 1_555 1_555
O3A_2 Zn1A 1_555 1_555
O4A C14A 1_555 1_555
N1A Zn2 1_555 1_555
N2A Zn3_2 1_555 1_555
N2A_2 Zn3 1_555 1_555
N3A H1A 1_555 1_555
N4A Zn2 1_555 1_555
N5A Zn3 1_555 1_555
N5_2 Zn3 1_555 1_555
N6A Zn1A 1_555 1_555
N7A Zn2 1_555 1_555
N8A Zn3 1_555 1_555
N8_2 Zn3 1_555 1_555
N9A C5A 1_555 1_555
N9_2 Zn1 1_555 1_555
N9A_2 Zn1A 1_555 1_555
C1A N1A 1_555 1_555
H2A C1A 1_555 1_555
C2A N2A 1_555 1_555
H3A C2A 1_555 1_555
C3A N4A 1_555 1_555
H4A C3A 1_555 1_555
C4A N5A 1_555 1_555
H5A C4A 1_555 1_555
C5A N7A 1_555 1_555
H6A C5A 1_555 1_555
C6A N8A 1_555 1_555
H7A C6A 1_555 1_555
C7A O2A 1_555 1_555
C8A C7A 1_555 1_555
C9A C10 1_555 1_555
H8A C9A 1_555 1_555
C10A C9 1_555 1_555
H9A C10A 1_555 1_555
C11A C12 1_555 1_555
H10A C11A 1_555 1_555
C12A C11 1_555 1_555
H11A C12A 1_555 1_555
C13A C11A 1_555 1_555
C14A C13A 1_555 1_555
N3 C1 1_555 1_555
N6 C3 1_555 1_555
N6 C4 1_555 1_555
N8 Zn3_2 1_555 1_555
N9 C6 1_555 1_555
C12 C13 1_555 1_555
C13 C14 1_555 1_555
N1A N2A 1_555 1_555
N3A C1A 1_555 1_555
N3A C2A 1_555 1_555
N4A N5A 1_555 1_555
N6A C3A 1_555 1_555
N6A C4A 1_555 1_555
N7A N8A 1_555 1_555
N9A C6A 1_555 1_555
C8A C9A 1_555 1_555
C8A C10A 1_555 1_555
C12A C13A 1_555 1_555

#END
