
#######################################################################
#
#                 Cambridge Crystallographic Data Centre
#                                CCDC 
#
#######################################################################
#
# If this CIF has been generated from an entry in the Cambridge 
# Structural Database, then it will include bibliographic, chemical, 
# crystal, experimental, refinement or atomic coordinate data resulting 
# from the CCDC's data processing and validation procedures.
#
#######################################################################

data_LEJCIO
_symmetry_cell_setting           rhombohedral
_symmetry_space_group_name_H-M   'R -3 c'
_symmetry_Int_Tables_number      167
_space_group_name_Hall           '-R 3 2"c'
loop_
_symmetry_equiv_pos_site_id
_symmetry_equiv_pos_as_xyz
1 x,y,z
2 -y,x-y,z
3 -x+y,-x,z
4 x-y,-y,1/2-z
5 -x,-x+y,1/2-z
6 y,x,1/2-z
7 2/3+x,1/3+y,1/3+z
8 2/3-y,1/3+x-y,1/3+z
9 2/3-x+y,1/3-x,1/3+z
10 2/3+x-y,1/3-y,5/6-z
11 2/3-x,1/3-x+y,5/6-z
12 2/3+y,1/3+x,5/6-z
13 1/3+x,2/3+y,2/3+z
14 1/3-y,2/3+x-y,2/3+z
15 1/3-x+y,2/3-x,2/3+z
16 1/3+x-y,2/3-y,1/6-z
17 1/3-x,2/3-x+y,1/6-z
18 1/3+y,2/3+x,1/6-z
19 -x,-y,-z
20 y,-x+y,-z
21 x-y,x,-z
22 -x+y,y,1/2+z
23 x,x-y,1/2+z
24 -y,-x,1/2+z
25 1/3-x,2/3-y,2/3-z
26 1/3+y,2/3-x+y,2/3-z
27 1/3+x-y,2/3+x,2/3-z
28 1/3-x+y,2/3+y,1/6+z
29 1/3+x,2/3+x-y,1/6+z
30 1/3-y,2/3-x,1/6+z
31 2/3-x,1/3-y,1/3-z
32 2/3+y,1/3-x+y,1/3-z
33 2/3+x-y,1/3+x,1/3-z
34 2/3-x+y,1/3+y,5/6+z
35 2/3+x,1/3+x-y,5/6+z
36 2/3-y,1/3-x,5/6+z
_cell_length_a                   33.139(6)
_cell_length_b                   33.139(6)
_cell_length_c                   96.086(18)
_cell_angle_alpha                90
_cell_angle_beta                 90
_cell_angle_gamma                120
_cell_volume                     91383.9
loop_
_atom_site_label
_atom_site_type_symbol
_atom_site_fract_x
_atom_site_fract_y
_atom_site_fract_z
C1 C 0.4183(3) 0.7534(3) 0.53537(9)
C2 C 0.4544(4) 0.7931(4) 0.54343(12)
C3 C 0.4425(3) 0.7991(4) 0.55692(16)
H1 H 0.4134 0.7781 0.5605
C4 C 0.4748(6) 0.8369(6) 0.56495(12)
H2 H 0.4645 0.8408 0.5736
C5 C 0.5227(7) 0.8706(7) 0.56128(11)
C6 C 0.5297(4) 0.8594(4) 0.5472(2)
C7 C 0.4963(6) 0.8228(5) 0.53837(9)
H3 H 0.5040 0.8200 0.5293
C8 C 0.5732(6) 0.8875(5) 0.54103(9)
H4 H 0.5783 0.8814 0.5319
C9 C 0.6080(3) 0.9236(4) 0.54814(13)
H5 H 0.6372 0.9411 0.5440
C10 C 0.6002(4) 0.9349(4) 0.56182(16)
C11 C 0.5586(5) 0.9096(4) 0.56807(13)
H6 H 0.5536 0.9178 0.5769
C12 C 0.6265(2) 0.9923(2) 0.58054(5)
H7 H 0.6235 0.9728 0.5885
H8 H 0.5977 0.9930 0.5798
C13 C 0.6667 1.0421(3) 0.5833
C14 C 0.6742(3) 1.0704(3) 0.56998(5)
H9 H 0.6810 1.0554 0.5624
H10 H 0.7010 1.1012 0.5712
C15 C 0.6386(2) 1.1015(3) 0.55739(5)
C16 C 0.5980(3) 1.10293(18) 0.55487(6)
H11 H 0.5714 1.0845 0.5601
C17 C 0.59732(16) 1.13205(16) 0.54457(7)
H12 H 0.5702 1.1330 0.5429
C18 C 0.63720(18) 1.1597(2) 0.53680(5)
C19 C 0.6777(2) 1.15824(16) 0.53932(5)
C20 C 0.67845(14) 1.12918(18) 0.54962(6)
H13 H 0.7056 1.1282 0.5513
C21 C 0.70804(3) 1.18623(3) 0.530381(7)
H14 H 0.7363 1.1867 0.5308
C22 C 0.70711(3) 1.21576(3) 0.520277(7)
H15 H 0.7336 1.2343 0.5150
C23 C 0.66667(3) 1.21773(3) 0.518089(7)
C24 C 0.62715(3) 1.19016(3) 0.526006(7)
H16 H 0.5995 1.1905 0.5248
C25 C 0.66793(3) 1.25584(3) 0.510296(7)
O1 O 0.38322(3) 0.72477(3) 0.541672(7)
O2 O 0.70441(3) 1.27687(3) 0.504098(7)
O3 O 0.42703(3) 0.75505(3) 0.522506(7)
O4 O 0.63121(3) 1.24609(3) 0.506549(7)
O5 O 0.33333(3) 0.66667(3) 0.513469(7)
O6 O 0.63699(3) 1.07459(3) 0.566519(7)
O7 O 0.63245(3) 0.97182(3) 0.568348(7)
Zn1 Zn 0.33333(3) 0.66667(3) 0.533774(7)
Zn2 Zn 0.33399(3) 0.61199(3) 0.506800(7)
C1P C 0.9150(3) 1.0018(4) 0.63130(9)
C1S C -0.2466(3) 0.3351(4) 0.46463(9)
C1GA C 0.0018(4) 0.0867(3) 0.36870(9)
C1T C 0.6649(4) 0.4183(3) 0.46463(9)
C1IA C 0.9133(3) 0.9150(3) 0.36870(9)
C2P C 0.8789(4) 1.0054(6) 0.62324(12)
C2S C -0.2069(4) 0.3387(6) 0.45657(12)
C2GA C 0.0054(6) 0.1264(4) 0.37676(12)
C2T C 0.6613(6) 0.4544(4) 0.45657(12)
C2IA C 0.8736(4) 0.8789(4) 0.37676(12)
C3P C 0.8908(3) 1.0233(5) 0.60975(16)
C3S C -0.2009(4) 0.3566(5) 0.44308(16)
C3GA C 0.0233(5) 0.1324(4) 0.39025(16)
C3T C 0.6434(5) 0.4425(3) 0.44308(16)
C3IA C 0.8676(4) 0.8908(3) 0.39025(16)
H1P H 0.9199 1.0314 0.6062
H1S H -0.2219 0.3647 0.4395
H1GA H 0.0314 0.1114 0.3938
H1T H 0.6353 0.4134 0.4395
H1IA H 0.8886 0.9199 0.3938
C4P C 0.8585(6) 1.0288(8) 0.60172(12)
C4S C -0.1631(6) 0.3621(8) 0.43505(12)
C4GA C 0.0288(8) 0.1702(6) 0.39828(12)
C4T C 0.6379(8) 0.4748(6) 0.43505(12)
C4IA C 0.8298(6) 0.8585(6) 0.39828(12)
H2P H 0.8688 1.0430 0.5931
H2S H -0.1592 0.3763 0.4264
H2GA H 0.0430 0.1741 0.4069
H2T H 0.6237 0.4645 0.4264
H2IA H 0.8259 0.8688 0.4069
C5P C 0.8106(7) 1.0146(10) 0.60539(11)
C5S C -0.1294(7) 0.3479(10) 0.43872(11)
C5GA C 0.0146(10) 0.2039(7) 0.39461(11)
C5T C 0.6521(10) 0.5227(7) 0.43872(11)
C5IA C 0.7961(7) 0.8106(7) 0.39461(11)
C6P C 0.8036(4) 0.9964(6) 0.6195(2)
C6S C -0.1406(4) 0.3297(6) 0.4528(2)
C6GA C -0.0036(6) 0.1927(4) 0.3805(2)
C6T C 0.6703(6) 0.5297(4) 0.4528(2)
C6IA C 0.8073(4) 0.8036(4) 0.3805(2)
C7P C 0.8370(6) 0.9932(8) 0.62830(9)
C7S C -0.1772(5) 0.3265(8) 0.46163(9)
C7GA C -0.0068(8) 0.1561(5) 0.37170(9)
C7T C 0.6735(8) 0.4963(6) 0.46163(9)
C7IA C 0.8439(5) 0.8370(6) 0.37170(9)
H3P H 0.8293 0.9827 0.6374
H3S H -0.1800 0.3160 0.4707
H3GA H -0.0173 0.1533 0.3626
H3T H 0.6840 0.5040 0.4707
H3IA H 0.8467 0.8293 0.3626
C8P C 0.7601(6) 0.9810(8) 0.62564(9)
C8S C -0.1125(5) 0.3143(8) 0.45897(9)
C8GA C -0.0190(8) 0.2208(5) 0.37436(9)
C8T C 0.6857(8) 0.5732(6) 0.45897(9)
C8IA C 0.7792(5) 0.7601(6) 0.37436(9)
H4P H 0.7550 0.9698 0.6348
H4S H -0.1186 0.3031 0.4681
H4GA H -0.0302 0.2147 0.3652
H4T H 0.6969 0.5783 0.4681
H4IA H 0.7853 0.7550 0.3652
C9P C 0.7253(3) 0.9823(5) 0.61853(13)
C9S C -0.0764(4) 0.3156(5) 0.45186(13)
C9GA C -0.0177(5) 0.2569(4) 0.38147(13)
C9T C 0.6844(5) 0.6080(3) 0.45186(13)
C9IA C 0.7431(4) 0.7253(3) 0.38147(13)
H5P H 0.6961 0.9706 0.6227
H5S H -0.0589 0.3039 0.4560
H5GA H -0.0294 0.2744 0.3773
H5T H 0.6961 0.6372 0.4560
H5IA H 0.7256 0.6961 0.3773
C10P C 0.7331(4) 1.0014(6) 0.60485(16)
C10S C -0.0651(4) 0.3347(6) 0.43818(16)
C10GA C 0.0014(6) 0.2682(4) 0.39515(16)
C10T C 0.6653(6) 0.6002(4) 0.43818(16)
C10IA C 0.7318(4) 0.7331(4) 0.39515(16)
C11P C 0.7747(5) 1.0177(6) 0.59860(13)
C11S C -0.0904(4) 0.3510(6) 0.43193(13)
C11GA C 0.0177(6) 0.2429(4) 0.40140(13)
C11T C 0.6490(6) 0.5586(5) 0.43193(13)
C11IA C 0.7571(4) 0.7747(5) 0.40140(13)
H6P H 0.7797 1.0309 0.5898
H6S H -0.0822 0.3642 0.4231
H6GA H 0.0309 0.2511 0.4102
H6T H 0.6358 0.5536 0.4231
H6IA H 0.7489 0.7797 0.4102
C12P C 0.7068(2) 1.0325(3) 0.58613(5)
C12S C -0.0077(2) 0.3658(3) 0.41946(5)
C12GA C 0.0325(3) 0.3256(2) 0.41387(5)
C12T C 0.6342(3) 0.6265(2) 0.41946(5)
C12IA C 0.6744(2) 0.7068(2) 0.41387(5)
H7P H 0.7098 1.0160 0.5782
H7S H -0.0272 0.3493 0.4115
H7GA H 0.0160 0.3061 0.4218
H7T H 0.6507 0.6235 0.4115
H7IA H 0.6939 0.7098 0.4218
H8P H 0.7356 1.0620 0.5869
H8S H -0.0070 0.3953 0.4202
H8GA H 0.0620 0.3263 0.4131
H8T H 0.6047 0.5977 0.4202
H8IA H 0.6737 0.7356 0.4131
C13S C 0.0421(3) 0.3754(3) 0.4167
C13T C 0.6246(3) 0.6667 0.4167
C14P C 0.6591(3) 1.0629(4) 0.59669(5)
C14S C 0.0704(3) 0.3962(4) 0.43002(5)
C14GA C 0.0629(4) 0.4037(3) 0.40331(5)
C14T C 0.6038(4) 0.6742(3) 0.43002(5)
C14IA C 0.5963(3) 0.6591(3) 0.40331(5)
H9P H 0.6523 1.0411 0.6043
H9S H 0.0554 0.3744 0.4376
H9GA H 0.0411 0.3887 0.3957
H9T H 0.6256 0.6810 0.4376
H9IA H 0.6113 0.6523 0.3957
H10P H 0.6323 1.0669 0.5955
H10S H 0.1012 0.4002 0.4288
H10GA H 0.0669 0.4345 0.4045
H10T H 0.5998 0.7010 0.4288
H10IA H 0.5655 0.6323 0.4045
C15P C 0.6947(2) 1.1296(4) 0.60928(5)
C15S C 0.1015(3) 0.4629(4) 0.44261(5)
C15GA C 0.1296(4) 0.4348(3) 0.39072(5)
C15T C 0.5371(4) 0.6386(2) 0.44261(5)
C15IA C 0.5652(3) 0.6947(2) 0.39072(5)
C16P C 0.7353(3) 1.17160(35) 0.61180(6)
C16S C 0.10293(18) 0.50493(35) 0.44513(6)
C16GA C 0.17160(35) 0.43626(18) 0.38820(6)
C16T C 0.49507(35) 0.5980(3) 0.44513(6)
C16IA C 0.56374(18) 0.7353(3) 0.38820(6)
H11P H 0.7619 1.1798 0.6066
H11S H 0.0845 0.5131 0.4399
H11GA H 0.1798 0.4178 0.3934
H11T H 0.4869 0.5714 0.4399
H11IA H 0.5822 0.7619 0.3934
C17P C 0.73601(16) 1.20140(23) 0.62210(7)
C17S C 0.13205(16) 0.53473(23) 0.45543(7)
C17GA C 0.20140(23) 0.46538(16) 0.37790(7)
C17T C 0.46527(23) 0.59732(16) 0.45543(7)
C17IA C 0.53462(16) 0.73601(16) 0.37790(7)
H12P H 0.7631 1.2295 0.6238
H12S H 0.1330 0.5628 0.4571
H12GA H 0.2295 0.4663 0.3762
H12T H 0.4372 0.5702 0.4571
H12IA H 0.5337 0.7631 0.3762
C18P C 0.69613(18) 1.18917(27) 0.62987(5)
C18S C 0.1597(2) 0.52250(27) 0.46320(5)
C18GA C 0.18917(27) 0.4930(2) 0.37013(5)
C18T C 0.47750(27) 0.63720(18) 0.46320(5)
C18IA C 0.5070(2) 0.69613(18) 0.37013(5)
C19P C 0.6556(2) 1.14721(26) 0.62735(5)
C19S C 0.15824(16) 0.48054(26) 0.46068(5)
C19GA C 0.14721(26) 0.49157(16) 0.37265(5)
C19T C 0.51946(26) 0.6777(2) 0.46068(5)
C19IA C 0.50843(16) 0.6556(2) 0.37265(5)
C20P C 0.65488(14) 1.11740(23) 0.61705(6)
C20S C 0.12918(18) 0.45073(23) 0.45038(6)
C20GA C 0.11740(23) 0.46251(18) 0.38295(6)
C20T C 0.54927(23) 0.67845(14) 0.45038(6)
C20IA C 0.53749(18) 0.65488(14) 0.38295(6)
H13P H 0.6277 1.0893 0.6154
H13S H 0.1282 0.4226 0.4487
H13GA H 0.0893 0.4615 0.3846
H13T H 0.5774 0.7056 0.4487
H13IA H 0.5385 0.6277 0.3846
C21P C 0.62529(3) 1.14486(4) 0.636286(7)
C21S C 0.18623(3) 0.47819(4) 0.469619(7)
C21GA C 0.14486(4) 0.51956(3) 0.363714(7)
C21T C 0.52181(4) 0.70804(3) 0.469619(7)
C21IA C 0.48044(3) 0.62529(3) 0.363714(7)
H14P H 0.5970 1.1171 0.6359
H14S H 0.1867 0.4504 0.4692
H14GA H 0.1171 0.5200 0.3641
H14T H 0.5496 0.7363 0.4692
H14IA H 0.4800 0.5970 0.3641
C22P C 0.62622(3) 1.17532(4) 0.646390(7)
C22S C 0.21576(3) 0.50865(4) 0.479723(7)
C22GA C 0.17532(4) 0.54909(3) 0.353610(7)
C22T C 0.49135(4) 0.70711(3) 0.479723(7)
C22IA C 0.45091(3) 0.62622(3) 0.353610(7)
H15P H 0.5997 1.1674 0.6517
H15S H 0.2343 0.5007 0.4850
H15GA H 0.1674 0.5676 0.3483
H15T H 0.4993 0.7336 0.4850
H15IA H 0.4324 0.5997 0.3483
C23P C 0.66666(3) 1.21773(4) 0.648578(7)
C23S C 0.21773(3) 0.55106(4) 0.481911(7)
C23GA C 0.21773(4) 0.55106(3) 0.351422(7)
C23T C 0.44894(4) 0.66667(3) 0.481911(7)
C23IA C 0.44894(3) 0.66666(3) 0.351422(7)
C24P C 0.70618(3) 1.22968(4) 0.640661(7)
C24S C 0.19016(3) 0.56301(4) 0.473994(7)
C24GA C 0.22968(4) 0.52349(3) 0.359339(7)
C24T C 0.43699(4) 0.62715(3) 0.473994(7)
C24IA C 0.47651(3) 0.70618(3) 0.359339(7)
H16P H 0.7338 1.2577 0.6419
H16S H 0.1905 0.5910 0.4752
H16GA H 0.2577 0.5238 0.3581
H16T H 0.4090 0.5995 0.4752
H16IA H 0.4762 0.7338 0.3581
C25P C 0.66540(3) 1.25458(4) 0.656371(7)
C25S C 0.25584(3) 0.58791(4) 0.489704(7)
C25GA C 0.25458(4) 0.58917(3) 0.343629(7)
C25T C 0.41209(4) 0.66793(3) 0.489704(7)
C25IA C 0.41083(3) 0.66540(3) 0.343629(7)
O1P O 0.95011(3) 1.00822(4) 0.624995(7)
O1S O -0.27523(3) 0.34155(4) 0.458328(7)
O1GA O 0.00822(4) 0.05810(3) 0.375005(7)
O1T O 0.65845(4) 0.38322(3) 0.458328(7)
O1IA O 0.94190(3) 0.95011(3) 0.375005(7)
O1R O 0.61678(3) 0.27523(3) 0.458328(7)
O1S_2 O 0.72477(3) 0.34155(4) 0.458328(7)
O1A O 0.27523(3) 0.65845(4) 0.541672(7)
O1B O 0.34155(4) 0.61678(3) 0.541672(7)
O2P O 0.62892(3) 1.23913(4) 0.662569(7)
O2S O 0.27687(3) 0.57246(4) 0.495902(7)
O2GA O 0.23913(4) 0.61020(3) 0.337431(7)
O2T O 0.42754(4) 0.70441(3) 0.495902(7)
O2IA O 0.38980(3) 0.62892(3) 0.337431(7)
O2_2 O 0.70441(3) 0.27687(3) 0.504098(7)
O2B O 0.57246(4) 1.29559(3) 0.504098(7)
O2R O 0.29559(3) 0.72313(3) 0.495902(7)
O3P O 0.90630(3) 0.99469(4) 0.644161(7)
O3S O -0.24495(3) 0.32802(4) 0.477494(7)
O3GA O -0.00531(4) 0.08838(3) 0.355839(7)
O3T O 0.67198(4) 0.42703(3) 0.477494(7)
O3IA O 0.91162(3) 0.90630(3) 0.355839(7)
O3S_2 O 0.75505(3) 0.32802(4) 0.477494(7)
O3S_3 O 0.75505(3) 1.32802(4) 0.477494(7)
O3A O 0.24495(3) 0.67198(4) 0.522506(7)
O3B O 0.32802(4) 0.57297(3) 0.522506(7)
O3R O 0.57297(3) 1.24495(3) 0.477494(7)
O4P O 0.70212(3) 1.28155(4) 0.660118(7)
O4S O 0.24609(3) 0.61488(4) 0.493451(7)
O4GA O 0.28155(4) 0.57942(3) 0.339882(7)
O4T O 0.38512(4) 0.63121(3) 0.493451(7)
O4IA O 0.42058(3) 0.70212(3) 0.339882(7)
O4A O 0.75391(3) 0.38512(4) 0.506549(7)
O4A_2 O 0.75391(3) 1.38512(4) 0.506549(7)
O4R O 0.36879(3) 0.75391(3) 0.493451(7)
O5T O 0.66666(4) 0.33333(3) 0.486531(7)
O5S O 0.66667(3) 1.33334(4) 0.486531(7)
O6P O 0.69634(3) 1.10427(4) 0.600148(7)
O6S O 0.07459(3) 0.43760(4) 0.433481(7)
O6GA O 0.10427(4) 0.40792(3) 0.399852(7)
O6T O 0.56240(4) 0.63699(3) 0.433481(7)
O6IA O 0.59208(3) 0.69634(3) 0.399852(7)
O7P O 0.70088(3) 1.00604(4) 0.598319(7)
O7S O -0.02818(3) 0.33937(4) 0.431652(7)
O7GA O 0.00604(4) 0.30515(3) 0.401681(7)
O7T O 0.66063(4) 0.63245(3) 0.431652(7)
O7IA O 0.69485(3) 0.70088(3) 0.401681(7)
Zn1T Zn 0.66666(4) 0.33333(3) 0.466226(7)
Zn1O Zn 0.99999(4) 1.00000(3) 0.632893(7)
Zn1R Zn -0.33333(3) 0.33333(3) 0.466226(7)
Zn1GA Zn 0.00001(4) 0.00000(3) 0.367107(7)
Zn1GA_2 Zn 1.00001(4) 1.00000(3) 0.367107(7)
Zn2A Zn 0.38801(3) 0.72200(4) 0.506800(7)
Zn2B Zn 0.27800(4) 0.66601(3) 0.506800(7)
Zn2T Zn 0.72200(4) 0.33399(3) 0.493200(7)
Zn2T_2 Zn 0.72200(4) 1.33399(3) 0.493200(7)
Zn2S Zn 0.61199(3) 1.27800(4) 0.493200(7)
Zn2I Zn 0.38867(4) 0.72134(3) 0.326533(7)
Zn2J Zn 0.33268(3) 0.61133(4) 0.326533(7)
Zn2K Zn 0.27866(3) 0.66732(3) 0.326533(7)
Zn2Q Zn 0.94532(3) 1.00066(3) 0.659867(7)
Zn2R Zn 0.66601(3) 0.38801(3) 0.493200(7)
Zn2S_2 Zn 0.61199(3) 0.27800(4) 0.493200(7)
Zn2T_3 Zn -0.27800(4) 0.33399(3) 0.493200(7)
Zn2GA Zn 0.94467(4) 0.94532(3) 0.340133(7)
Zn2HA Zn 0.00066(3) 0.05533(4) 0.340133(7)
Zn2AA Zn 0.61133(4) 1.27866(3) 0.673467(7)
Zn2CA Zn 0.72134(3) 1.33268(3) 0.673467(7)
loop_
_geom_bond_atom_site_label_1
_geom_bond_atom_site_label_2
_geom_bond_site_symmetry_1
_geom_bond_site_symmetry_2
C1 C2 1_555 1_555
C2 C3 1_555 1_555
C3 H1 1_555 1_555
C4 C3 1_555 1_555
H2 C4 1_555 1_555
C5 C4 1_555 1_555
C6 C5 1_555 1_555
C7 C2 1_555 1_555
H3 C7 1_555 1_555
C8 C6 1_555 1_555
H4 C8 1_555 1_555
C9 C8 1_555 1_555
H5 C9 1_555 1_555
C10 C9 1_555 1_555
C11 C5 1_555 1_555
H6 C11 1_555 1_555
C12 H7 1_555 1_555
H8 C12 1_555 1_555
C13 C12 1_555 1_555
C14 C13 1_555 1_555
H9 C14 1_555 1_555
H10 C14 1_555 1_555
C15 C16 1_555 1_555
C16 H11 1_555 1_555
C17 C16 1_555 1_555
H12 C17 1_555 1_555
C18 C17 1_555 1_555
C19 C18 1_555 1_555
C20 C15 1_555 1_555
H13 C20 1_555 1_555
C21 C19 1_555 1_555
H14 C21 1_555 1_555
C22 C21 1_555 1_555
H15 C22 1_555 1_555
C23 C22 1_555 1_555
C24 C18 1_555 1_555
H16 C24 1_555 1_555
C25 C23 1_555 1_555
O1 C1 1_555 1_555
O2 C25 1_555 1_555
O3 C1 1_555 1_555
O4 C25 1_555 1_555
O5 Zn1 1_555 1_555
O6 C14 1_555 1_555
O7 C10 1_555 1_555
Zn1 O1 1_555 1_555
Zn2 O5 1_555 1_555
C1P C2P 1_555 1_555
C1S C2S 1_555 1_555
C1GA C2GA 1_555 1_555
C1T C2T 1_555 1_555
C1IA C2IA 1_555 1_555
C2P C3P 1_555 1_555
C2S C3S 1_555 1_555
C2GA C3GA 1_555 1_555
C2T C3T 1_555 1_555
C2IA C3IA 1_555 1_555
C3P H1P 1_555 1_555
C3S H1S 1_555 1_555
C3GA H1GA 1_555 1_555
C3T H1T 1_555 1_555
C3IA H1IA 1_555 1_555
C4P C3P 1_555 1_555
C4S C3S 1_555 1_555
C4GA C3GA 1_555 1_555
C4T C3T 1_555 1_555
C4IA C3IA 1_555 1_555
H2P C4P 1_555 1_555
H2S C4S 1_555 1_555
H2GA C4GA 1_555 1_555
H2T C4T 1_555 1_555
H2IA C4IA 1_555 1_555
C5P C4P 1_555 1_555
C5S C4S 1_555 1_555
C5GA C4GA 1_555 1_555
C5T C4T 1_555 1_555
C5IA C4IA 1_555 1_555
C6P C5P 1_555 1_555
C6S C5S 1_555 1_555
C6GA C5GA 1_555 1_555
C6T C5T 1_555 1_555
C6IA C5IA 1_555 1_555
C7P C2P 1_555 1_555
C7S C2S 1_555 1_555
C7GA C2GA 1_555 1_555
C7T C2T 1_555 1_555
C7IA C2IA 1_555 1_555
H3P C7P 1_555 1_555
H3S C7S 1_555 1_555
H3GA C7GA 1_555 1_555
H3T C7T 1_555 1_555
H3IA C7IA 1_555 1_555
C8P C6P 1_555 1_555
C8S C6S 1_555 1_555
C8GA C6GA 1_555 1_555
C8T C6T 1_555 1_555
C8IA C6IA 1_555 1_555
H4P C8P 1_555 1_555
H4S C8S 1_555 1_555
H4GA C8GA 1_555 1_555
H4T C8T 1_555 1_555
H4IA C8IA 1_555 1_555
C9P C8P 1_555 1_555
C9S C8S 1_555 1_555
C9GA C8GA 1_555 1_555
C9T C8T 1_555 1_555
C9IA C8IA 1_555 1_555
H5P C9P 1_555 1_555
H5S C9S 1_555 1_555
H5GA C9GA 1_555 1_555
H5T C9T 1_555 1_555
H5IA C9IA 1_555 1_555
C10P C9P 1_555 1_555
C10S C9S 1_555 1_555
C10GA C9GA 1_555 1_555
C10T C9T 1_555 1_555
C10IA C9IA 1_555 1_555
C11P C5P 1_555 1_555
C11S C5S 1_555 1_555
C11GA C5GA 1_555 1_555
C11T C5T 1_555 1_555
C11IA C5IA 1_555 1_555
H6P C11P 1_555 1_555
H6S C11S 1_555 1_555
H6GA C11GA 1_555 1_555
H6T C11T 1_555 1_555
H6IA C11IA 1_555 1_555
C12P C13 1_555 1_555
C12S H7S 1_555 1_555
C12GA H7GA 1_555 1_555
C12T H7T 1_555 1_555
C12IA H7IA 1_555 1_555
H7P C12P 1_555 1_555
H8P C12P 1_555 1_555
H8S C12S 1_555 1_555
H8GA C12GA 1_555 1_555
H8T C12T 1_555 1_555
H8IA C12IA 1_555 1_555
C13S C12S 1_555 1_555
C13T C12T 1_555 1_555
C14P C13 1_555 1_555
C14S C13S 1_555 1_555
C14GA C13S 1_555 1_555
C14T C13T 1_555 1_555
C14IA C13T 1_555 1_555
H9P C14P 1_555 1_555
H9S C14S 1_555 1_555
H9GA C14GA 1_555 1_555
H9T C14T 1_555 1_555
H9IA C14IA 1_555 1_555
H10P C14P 1_555 1_555
H10S C14S 1_555 1_555
H10GA C14GA 1_555 1_555
H10T C14T 1_555 1_555
H10IA C14IA 1_555 1_555
C15P C16P 1_555 1_555
C15S C16S 1_555 1_555
C15GA C16GA 1_555 1_555
C15T C16T 1_555 1_555
C15IA C16IA 1_555 1_555
C16P H11P 1_555 1_555
C16S H11S 1_555 1_555
C16GA H11GA 1_555 1_555
C16T H11T 1_555 1_555
C16IA H11IA 1_555 1_555
C17P C16P 1_555 1_555
C17S C16S 1_555 1_555
C17GA C16GA 1_555 1_555
C17T C16T 1_555 1_555
C17IA C16IA 1_555 1_555
H12P C17P 1_555 1_555
H12S C17S 1_555 1_555
H12GA C17GA 1_555 1_555
H12T C17T 1_555 1_555
H12IA C17IA 1_555 1_555
C18P C17P 1_555 1_555
C18S C17S 1_555 1_555
C18GA C17GA 1_555 1_555
C18T C17T 1_555 1_555
C18IA C17IA 1_555 1_555
C19P C18P 1_555 1_555
C19S C18S 1_555 1_555
C19GA C18GA 1_555 1_555
C19T C18T 1_555 1_555
C19IA C18IA 1_555 1_555
C20P C15P 1_555 1_555
C20S C15S 1_555 1_555
C20GA C15GA 1_555 1_555
C20T C15T 1_555 1_555
C20IA C15IA 1_555 1_555
H13P C20P 1_555 1_555
H13S C20S 1_555 1_555
H13GA C20GA 1_555 1_555
H13T C20T 1_555 1_555
H13IA C20IA 1_555 1_555
C21P C19P 1_555 1_555
C21S C19S 1_555 1_555
C21GA C19GA 1_555 1_555
C21T C19T 1_555 1_555
C21IA C19IA 1_555 1_555
H14P C21P 1_555 1_555
H14S C21S 1_555 1_555
H14GA C21GA 1_555 1_555
H14T C21T 1_555 1_555
H14IA C21IA 1_555 1_555
C22P C21P 1_555 1_555
C22S C21S 1_555 1_555
C22GA C21GA 1_555 1_555
C22T C21T 1_555 1_555
C22IA C21IA 1_555 1_555
H15P C22P 1_555 1_555
H15S C22S 1_555 1_555
H15GA C22GA 1_555 1_555
H15T C22T 1_555 1_555
H15IA C22IA 1_555 1_555
C23P C22P 1_555 1_555
C23S C22S 1_555 1_555
C23GA C22GA 1_555 1_555
C23T C22T 1_555 1_555
C23IA C22IA 1_555 1_555
C24P C18P 1_555 1_555
C24S C18S 1_555 1_555
C24GA C18GA 1_555 1_555
C24T C18T 1_555 1_555
C24IA C18IA 1_555 1_555
H16P C24P 1_555 1_555
H16S C24S 1_555 1_555
H16GA C24GA 1_555 1_555
H16T C24T 1_555 1_555
H16IA C24IA 1_555 1_555
C25P C23P 1_555 1_555
C25S C23S 1_555 1_555
C25GA C23GA 1_555 1_555
C25T C23T 1_555 1_555
C25IA C23IA 1_555 1_555
O1P C1P 1_555 1_555
O1S C1S 1_555 1_555
O1GA C1GA 1_555 1_555
O1T C1T 1_555 1_555
O1IA C1IA 1_555 1_555
O1R Zn1T 1_555 1_555
O1S_2 Zn1T 1_555 1_555
O1A Zn1 1_555 1_555
O1B Zn1 1_555 1_555
O2P C25P 1_555 1_555
O2S Zn2 1_555 1_555
O2GA C25GA 1_555 1_555
O2T C25T 1_555 1_555
O2IA C25IA 1_555 1_555
O2_2 Zn2T 1_555 1_555
O2B Zn2S 1_555 1_555
O2R Zn2B 1_555 1_555
O3P C1P 1_555 1_555
O3S C1S 1_555 1_555
O3GA C1GA 1_555 1_555
O3T C1T 1_555 1_555
O3IA C1IA 1_555 1_555
O3S_2 Zn2T 1_555 1_555
O3S_3 Zn2T_2 1_555 1_555
O3A Zn2B 1_555 1_555
O3B Zn2 1_555 1_555
O3R Zn2S 1_555 1_555
O4P C25P 1_555 1_555
O4S C25S 1_555 1_555
O4GA C25GA 1_555 1_555
O4T Zn2 1_555 1_555
O4IA C25IA 1_555 1_555
O4A Zn2T 1_555 1_555
O4A_2 Zn2T_2 1_555 1_555
O4R Zn2A 1_555 1_555
O5T Zn1T 1_555 1_555
O5S Zn2T_2 1_555 1_555
O6P C14P 1_555 1_555
O6S C14S 1_555 1_555
O6GA C14GA 1_555 1_555
O6T C14T 1_555 1_555
O6IA C14IA 1_555 1_555
O7P C10P 1_555 1_555
O7S C10S 1_555 1_555
O7GA C10GA 1_555 1_555
O7T C10T 1_555 1_555
O7IA C10IA 1_555 1_555
Zn1T O1T 1_555 1_555
Zn1O O1P 1_555 1_555
Zn1R O1S 1_555 1_555
Zn1GA O1GA 1_555 1_555
Zn1GA_2 O1IA 1_555 1_555
Zn2A O3 1_555 1_555
Zn2B O5 1_555 1_555
Zn2T O5T 1_555 1_555
Zn2T_2 O2 1_555 1_555
Zn2S O4 1_555 1_555
Zn2I O4IA 1_555 1_555
Zn2J O2IA 1_555 1_555
Zn2K O2GA 1_555 1_555
Zn2Q O3P 1_555 1_555
Zn2R O3T 1_555 1_555
Zn2S_2 O5T 1_555 1_555
Zn2T_3 O3S 1_555 1_555
Zn2GA O3IA 1_555 1_555
Zn2HA O3GA 1_555 1_555
Zn2AA O2P 1_555 1_555
Zn2CA O4P 1_555 1_555
C6 C7 1_555 1_555
C10 C11 1_555 1_555
C12 O7 1_555 1_555
C15 O6 1_555 1_555
C19 C20 1_555 1_555
C23 C24 1_555 1_555
O5 Zn2A 1_555 1_555
C6P C7P 1_555 1_555
C6S C7S 1_555 1_555
C6GA C7GA 1_555 1_555
C6T C7T 1_555 1_555
C6IA C7IA 1_555 1_555
C10P C11P 1_555 1_555
C10S C11S 1_555 1_555
C10GA C11GA 1_555 1_555
C10T C11T 1_555 1_555
C10IA C11IA 1_555 1_555
C12P O7P 1_555 1_555
C12S O7S 1_555 1_555
C12GA C13S 1_555 1_555
C12GA O7GA 1_555 1_555
C12T O7T 1_555 1_555
C12IA C13T 1_555 1_555
C12IA O7IA 1_555 1_555
C15P O6P 1_555 1_555
C15S O6S 1_555 1_555
C15GA O6GA 1_555 1_555
C15T O6T 1_555 1_555
C15IA O6IA 1_555 1_555
C19P C20P 1_555 1_555
C19S C20S 1_555 1_555
C19GA C20GA 1_555 1_555
C19T C20T 1_555 1_555
C19IA C20IA 1_555 1_555
C23P C24P 1_555 1_555
C23S C24S 1_555 1_555
C23GA C24GA 1_555 1_555
C23T C24T 1_555 1_555
C23IA C24IA 1_555 1_555
C25S O2S 1_555 1_555
C25T O4T 1_555 1_555
O2T Zn2A 1_555 1_555
O4S Zn2B 1_555 1_555
O4GA Zn2J 1_555 1_555
O5T Zn2R 1_555 1_555
O5S Zn2S 1_555 1_555

#END
