
#######################################################################
#
#                 Cambridge Crystallographic Data Centre
#                                CCDC 
#
#######################################################################
#
# If this CIF has been generated from an entry in the Cambridge 
# Structural Database, then it will include bibliographic, chemical, 
# crystal, experimental, refinement or atomic coordinate data resulting 
# from the CCDC's data processing and validation procedures.
#
#######################################################################

data_LEJCAG
_symmetry_cell_setting           rhombohedral
_symmetry_space_group_name_H-M   'R -3 c'
_symmetry_Int_Tables_number      167
_space_group_name_Hall           '-R 3 2"c'
loop_
_symmetry_equiv_pos_site_id
_symmetry_equiv_pos_as_xyz
1 x,y,z
2 -y,x-y,z
3 -x+y,-x,z
4 x-y,-y,1/2-z
5 -x,-x+y,1/2-z
6 y,x,1/2-z
7 2/3+x,1/3+y,1/3+z
8 2/3-y,1/3+x-y,1/3+z
9 2/3-x+y,1/3-x,1/3+z
10 2/3+x-y,1/3-y,5/6-z
11 2/3-x,1/3-x+y,5/6-z
12 2/3+y,1/3+x,5/6-z
13 1/3+x,2/3+y,2/3+z
14 1/3-y,2/3+x-y,2/3+z
15 1/3-x+y,2/3-x,2/3+z
16 1/3+x-y,2/3-y,1/6-z
17 1/3-x,2/3-x+y,1/6-z
18 1/3+y,2/3+x,1/6-z
19 -x,-y,-z
20 y,-x+y,-z
21 x-y,x,-z
22 -x+y,y,1/2+z
23 x,x-y,1/2+z
24 -y,-x,1/2+z
25 1/3-x,2/3-y,2/3-z
26 1/3+y,2/3-x+y,2/3-z
27 1/3+x-y,2/3+x,2/3-z
28 1/3-x+y,2/3+y,1/6+z
29 1/3+x,2/3+x-y,1/6+z
30 1/3-y,2/3-x,1/6+z
31 2/3-x,1/3-y,1/3-z
32 2/3+y,1/3-x+y,1/3-z
33 2/3+x-y,1/3+x,1/3-z
34 2/3-x+y,1/3+y,5/6+z
35 2/3+x,1/3+x-y,5/6+z
36 2/3-y,1/3-x,5/6+z
_cell_length_a                   26.880(3)
_cell_length_b                   26.880(3)
_cell_length_c                   85.169(4)
_cell_angle_alpha                90
_cell_angle_beta                 90
_cell_angle_gamma                120
_cell_volume                     53293.1
loop_
_atom_site_label
_atom_site_type_symbol
_atom_site_fract_x
_atom_site_fract_y
_atom_site_fract_z
Zn1 Zn 0.0000 0.0000 0.138519(7)
Zn2 Zn 0.063799(18) 0.072106(18) 0.168696(4)
O1 O 0.0000 0.0000 0.16131(3)
C1 C 0.3526(2) 0.3333 0.0833
O2 O 0.27162(13) 0.29296(11) 0.10128(3)
C2 C 0.2282(2) 0.2470(2) 0.10880(6)
O3 O 0.10400(13) 0.12227(12) 0.15142(3)
C3 C 0.29452(16) 0.28117(15) 0.08721(4)
H1 H 0.2682 0.2729 0.0785
H2 H 0.2989 0.2479 0.0889
O4 O 0.39489(12) 0.30186(15) 0.10155(3)
C4 C 0.1446(2) 0.1602(2) 0.12689(6)
O5 O 0.58849(14) 0.36896(13) 0.15225(3)
C5 C 0.5106(3) 0.3148(3) 0.13505(6)
C6 C 0.39175(17) 0.35183(18) 0.09742(4)
H3 H 0.3759 0.3633 0.1059
H4 H 0.4295 0.3836 0.0948
C7 C 0.4762(2) 0.2655(2) 0.12761(7)
H5 H 0.4789 0.2331 0.1298
C8 C 0.4337(3) 0.3089(3) 0.11284(6)
C9 C 0.5061(2) 0.3627(3) 0.13187(6)
H6 H 0.5287 0.3971 0.1371
C10 C 0.4373(3) 0.2617(3) 0.11683(7)
C11 C 0.1938(2) 0.1952(3) 0.10268(5)
H7 H 0.1990 0.1877 0.0923
C12 C 0.4669(3) 0.3582(2) 0.12048(7)
H8 H 0.4637 0.3902 0.1181
O6 O 0.2552(2) 0.3095(2) 0.12973(5)
C13 C 0.1505(2) 0.15257(19) 0.11148(6)
H9 H 0.1249 0.1179 0.1067
C14 C 0.2189(3) 0.2529(3) 0.12421(8)
C15 C 0.5539(3) 0.3199(3) 0.14655(7)
C16 C 0.1790(3) 0.2111(3) 0.13318(6)
H10 H 0.1755 0.2177 0.1437
O7 O 0.55396(13) 0.27390(16) 0.15041(4)
O8 O 0.06531(13) 0.06733(14) 0.12990(3)
O9 O 0.4009(2) 0.21263(18) 0.10892(5)
C17 C 0.0998(2) 0.1139(2) 0.13668(6)
C18 C 0.4224(4) 0.1669(4) 0.10833(10)
H11 H 0.3959 0.1342 0.1022
H12 H 0.4598 0.1842 0.1035
H13 H 0.4244 0.1548 0.1188
C19 C 0.2504(5) 0.3232(3) 0.14580(10)
H14 H 0.2772 0.3630 0.1477
H15 H 0.2586 0.2999 0.1527
H16 H 0.2121 0.3158 0.1477
Zn1DA Zn -0.3333 -0.6667 0.194814(7)
Zn1O Zn 0.3333 0.6667 0.028148(7)
Zn1DA_2 Zn -0.3333 0.3333 0.194814(7)
Zn1AA Zn -0.6667 -0.3333 0.305186(7)
Zn1AA_2 Zn 0.3333 0.6667 0.305186(7)
Zn2A Zn -0.072106(18) -0.008307(25) 0.168696(4)
Zn2B Zn 0.008307(25) -0.063799(18) 0.168696(4)
Zn2DA Zn 0.602868(18) 0.261227(18) 0.164637(4)
Zn2EA Zn -0.261227(18) 0.341640(25) 0.164637(4)
Zn2FA Zn -0.341640(25) -0.602868(18) 0.164637(4)
Zn2C Zn -0.008307(25) -0.072106(18) 0.331304(4)
Zn2D Zn -0.063799(18) 0.008307(25) 0.331304(4)
Zn2E Zn 0.072106(18) 0.063799(18) 0.331304(4)
Zn2O Zn 0.325026(25) 0.594561(18) -0.002029(4)
Zn2DA_2 Zn -0.397132(18) -0.738773(18) 0.164637(4)
Zn2EA_2 Zn -0.261227(18) -0.658360(25) 0.164637(4)
Zn2FA_2 Zn 0.658360(25) 0.397132(18) 0.164637(4)
Zn2GA Zn 0.674974(25) 0.405439(18) 0.002029(4)
Zn2IA Zn 0.594561(18) 0.269534(18) 0.002029(4)
Zn2BA Zn -0.602868(18) -0.341640(25) 0.335363(4)
Zn2CA Zn 0.261227(18) 0.602868(18) 0.335363(4)
O1DA O -0.3333 -0.6667 0.17202(3)
O1DA_2 O -0.3333 0.3333 0.17202(3)
O1DA_3 O 0.6667 0.3333 0.17202(3)
C1EA C -0.0000 0.3140(2) 0.2500
C1FA C -0.3140(2) -0.3141(2) 0.2500
O2O O 0.31199(17) 0.37371(11) 0.06539(3)
O2EA O -0.04037(11) 0.35467(17) 0.23205(3)
O2CA O 0.04037(11) 0.39505(13) 0.26795(3)
O2FA O -0.35467(17) -0.39505(13) 0.23205(3)
O2BA O -0.39505(13) -0.35467(17) 0.26795(3)
C2O C 0.3145(3) 0.4197(2) 0.05787(6)
C2EA C -0.0863(2) 0.3521(3) 0.22453(6)
C2CA C 0.0863(2) 0.4385(2) 0.27547(6)
C2FA C -0.3521(3) -0.4385(2) 0.22453(6)
C2BA C -0.4385(2) -0.3521(3) 0.27547(6)
O3O O 0.31506(18) 0.54440(12) 0.01525(3)
O3EA O -0.21106(12) 0.35160(18) 0.18191(3)
O3CA O 0.21106(12) 0.56267(13) 0.31809(3)
O3FA O -0.35160(18) -0.56267(13) 0.18191(3)
O3BA O -0.56267(13) -0.35160(18) 0.31809(3)
O3B O 0.01827(18) -0.10400(13) 0.15142(3)
O3A O -0.12227(12) -0.01827(18) 0.15142(3)
O3DA O 0.56267(13) 0.21106(12) 0.18191(3)
C3O C 0.34668(22) 0.38550(15) 0.07946(4)
C3EA C -0.05216(15) 0.31998(22) 0.24612(4)
C3CA C 0.05216(15) 0.37215(16) 0.25388(4)
C3FA C -0.31998(22) -0.37215(16) 0.24612(4)
C3BA C -0.37215(16) -0.31998(22) 0.25388(4)
H1O H 0.3286 0.3938 0.0882
H1EA H -0.0604 0.3380 0.2548
H1CA H 0.0604 0.3985 0.2452
H1FA H -0.3380 -0.3985 0.2548
H1BA H -0.3985 -0.3380 0.2452
H2O H 0.3843 0.4188 0.0778
H2EA H -0.0854 0.2823 0.2444
H2CA H 0.0854 0.3678 0.2556
H2FA H -0.2823 -0.3678 0.2444
H2BA H -0.3678 -0.2823 0.2556
O4O O 0.42636(19) 0.36481(15) 0.06512(3)
O4EA O -0.03147(15) 0.24030(19) 0.23178(3)
O4CA O 0.03147(15) 0.27178(12) 0.26822(3)
O4FA O -0.24030(19) -0.27178(12) 0.23178(3)
O4BA O -0.27178(12) -0.24030(19) 0.26822(3)
C4O C 0.3177(3) 0.5065(2) 0.03978(6)
C4EA C -0.1731(2) 0.3489(3) 0.20644(6)
C4CA C 0.1731(2) 0.5221(2) 0.29356(6)
C4FA C -0.3489(3) -0.5221(2) 0.20644(6)
C4BA C -0.5221(2) -0.3489(3) 0.29356(6)
O5O O 0.55286(19) 0.29771(13) 0.01442(3)
O5EA O 0.03563(13) 0.11380(19) 0.18108(3)
O5CA O -0.03563(13) 0.07818(14) 0.31892(3)
O5FA O -0.11380(19) -0.07818(14) 0.18108(3)
O5BA O -0.07818(14) -0.11380(19) 0.31892(3)
O5_2 O -0.41151(14) -0.63104(13) 0.15225(3)
O5A O 0.63104(13) 0.21953(19) 0.15225(3)
O5B O -0.21953(19) 0.41151(14) 0.15225(3)
O5DA O 0.07818(14) -0.03563(13) 0.18108(3)
C5O C 0.5291(4) 0.3519(3) 0.03162(6)
C5EA C -0.0185(3) 0.1375(4) 0.19828(6)
C5CA C 0.0185(3) 0.1561(3) 0.30172(6)
C5FA C -0.1375(4) -0.1561(3) 0.19828(6)
C5BA C -0.1561(3) -0.1375(4) 0.30172(6)
C6O C 0.37325(25) 0.31484(18) 0.06925(4)
C6EA C 0.01850(18) 0.29341(25) 0.23591(4)
C6CA C -0.01850(18) 0.27492(17) 0.26409(4)
C6FA C -0.29341(25) -0.27492(17) 0.23591(4)
C6BA C -0.27492(17) -0.29341(25) 0.26409(4)
H3O H 0.3459 0.3034 0.0608
H3EA H 0.0300 0.3207 0.2274
H3CA H -0.0300 0.2908 0.2726
H3FA H -0.3207 -0.2908 0.2274
H3BA H -0.2908 -0.3207 0.2726
H4O H 0.3792 0.2831 0.0719
H4EA H 0.0503 0.2874 0.2385
H4CA H -0.0503 0.2372 0.2615
H4FA H -0.2874 -0.2372 0.2385
H4BA H -0.2372 -0.2874 0.2615
C7O C 0.5440(3) 0.4012(2) 0.03906(7)
C7EA C -0.0678(2) 0.1226(3) 0.20572(7)
C7CA C 0.0678(2) 0.1905(2) 0.29428(7)
C7FA C -0.1226(3) -0.1905(2) 0.20572(7)
C7BA C -0.1905(2) -0.1226(3) 0.29428(7)
H5O H 0.5791 0.4336 0.0369
H5EA H -0.1002 0.0875 0.2035
H5CA H 0.1002 0.1878 0.2965
H5FA H -0.0875 -0.1878 0.2035
H5BA H -0.1878 -0.0875 0.2965
C8O C 0.4581(4) 0.3578(3) 0.05383(6)
C8EA C -0.0244(3) 0.2085(4) 0.22049(6)
C8CA C 0.0244(3) 0.2330(3) 0.27951(6)
C8FA C -0.2085(4) -0.2330(3) 0.22049(6)
C8BA C -0.2330(3) -0.2085(4) 0.27951(6)
C9O C 0.4767(4) 0.3040(3) 0.03480(6)
C9EA C 0.0294(3) 0.1899(4) 0.20146(6)
C9CA C -0.0294(3) 0.1606(2) 0.29854(6)
C9FA C -0.1899(4) -0.1606(2) 0.20146(6)
C9BA C -0.1606(2) -0.1899(4) 0.29854(6)
H6O H 0.4649 0.2696 0.0296
H6EA H 0.0638 0.2017 0.1962
H6CA H -0.0638 0.1380 0.3038
H6FA H -0.2017 -0.1380 0.1962
H6BA H -0.1380 -0.2017 0.3038
C10O C 0.5089(4) 0.4050(3) 0.04984(7)
C10EA C -0.0716(3) 0.1577(4) 0.21650(7)
C10CA C 0.0716(3) 0.2294(3) 0.28350(7)
C10FA C -0.1577(4) -0.2294(3) 0.21650(7)
C10BA C -0.2294(3) -0.1577(4) 0.28350(7)
C11O C 0.3319(4) 0.4715(3) 0.06399(5)
C11EA C -0.1381(3) 0.3347(4) 0.23065(5)
C11CA C 0.1381(3) 0.4729(2) 0.26935(5)
C11FA C -0.3347(4) -0.4729(2) 0.23065(5)
C11BA C -0.4729(2) -0.3347(4) 0.26935(5)
H7O H 0.3446 0.4790 0.0744
H7EA H -0.1456 0.3220 0.2410
H7CA H 0.1456 0.4677 0.2590
H7FA H -0.3220 -0.4677 0.2410
H7BA H -0.4677 -0.3220 0.2590
C12O C 0.4420(4) 0.3085(2) 0.04619(7)
C12EA C 0.0249(2) 0.2246(4) 0.21285(7)
C12CA C -0.0249(2) 0.1998(3) 0.28715(7)
C12FA C -0.2246(4) -0.1998(3) 0.21285(7)
C12BA C -0.1998(3) -0.2246(4) 0.28715(7)
H8O H 0.4068 0.2765 0.0486
H8EA H 0.0569 0.2598 0.2152
H8CA H -0.0569 0.2030 0.2848
H8FA H -0.2598 -0.2030 0.2152
H8BA H -0.2030 -0.2598 0.2848
O6O O 0.2790(3) 0.3572(2) 0.03694(5)
O6EA O -0.0238(2) 0.3876(3) 0.20360(5)
O6CA O 0.0238(2) 0.4115(2) 0.29640(5)
O6FA O -0.3876(3) -0.4115(2) 0.20360(5)
O6BA O -0.4115(2) -0.3876(3) 0.29640(5)
C13O C 0.33126(28) 0.51410(19) 0.05519(6)
C13EA C -0.18076(19) 0.33540(28) 0.22185(6)
C13CA C 0.18076(19) 0.5162(2) 0.27815(6)
C13FA C -0.33540(28) -0.5162(2) 0.22185(6)
C13BA C -0.5162(2) -0.33540(28) 0.27815(6)
H9O H 0.3403 0.5488 0.0600
H9EA H -0.2154 0.3263 0.2266
H9CA H 0.2154 0.5418 0.2734
H9FA H -0.3263 -0.5418 0.2266
H9BA H -0.5418 -0.3263 0.2734
C14O C 0.2993(4) 0.4138(3) 0.04246(8)
C14EA C -0.0804(3) 0.3673(4) 0.20912(8)
C14CA C 0.0804(3) 0.4478(3) 0.29088(8)
C14FA C -0.3673(4) -0.4478(3) 0.20912(8)
C14BA C -0.4478(3) -0.3673(4) 0.29088(8)
C15O C 0.5673(4) 0.3468(3) 0.02012(7)
C15EA C -0.0134(3) 0.0993(4) 0.18678(7)
C15CA C 0.0134(3) 0.1128(3) 0.31322(7)
C15FA C -0.0993(4) -0.1128(3) 0.18678(7)
C15BA C -0.1128(3) -0.0993(4) 0.31322(7)
C16O C 0.3012(4) 0.4556(3) 0.03349(6)
C16EA C -0.1222(3) 0.3654(4) 0.20015(6)
C16CA C 0.1222(3) 0.4877(3) 0.29985(6)
C16FA C -0.3654(4) -0.4877(3) 0.20015(6)
C16BA C -0.4877(3) -0.3654(4) 0.29985(6)
H10O H 0.2911 0.4490 0.0230
H10EA H -0.1156 0.3755 0.1896
H10CA H 0.1156 0.4912 0.3104
H10FA H -0.3755 -0.4912 0.1896
H10BA H -0.4912 -0.3755 0.3104
O7O O 0.61339(21) 0.39277(16) 0.01626(4)
O7EA O -0.05943(16) 0.05327(21) 0.18292(4)
O7CA O 0.05943(16) 0.11271(13) 0.31708(4)
O7FA O -0.05327(21) -0.11271(13) 0.18292(4)
O7BA O -0.11271(13) -0.05327(21) 0.31708(4)
O7B O -0.28006(21) -0.55396(13) 0.15041(4)
O7A O -0.27390(16) 0.28006(21) 0.15041(4)
O7DA O 0.11271(13) 0.05943(16) 0.18292(4)
O8O O 0.33131(19) 0.59934(14) 0.03677(3)
O8EA O -0.26600(14) 0.33535(19) 0.20343(3)
O8CA O 0.26600(14) 0.60136(13) 0.29657(3)
O8FA O -0.33535(19) -0.60136(13) 0.20343(3)
O8BA O -0.60136(13) -0.33535(19) 0.29657(3)
O8DA O -0.39864(13) -0.73400(14) 0.20343(3)
O8EA_2 O -0.26600(14) -0.66465(19) 0.20343(3)
O8B O 0.00202(19) -0.06531(13) 0.12990(3)
O8A O -0.06733(14) -0.00202(19) 0.12990(3)
O9O O 0.52160(27) 0.45404(18) 0.05775(5)
O9EA O -0.12070(18) 0.14506(27) 0.22441(5)
O9CA O 0.12070(18) 0.2658(2) 0.27559(5)
O9FA O -0.14506(27) -0.2658(2) 0.22441(5)
O9BA O -0.2658(2) -0.14506(27) 0.27559(5)
C17O C 0.3192(3) 0.5528(2) 0.02999(6)
C17EA C -0.2194(2) 0.3474(3) 0.19665(6)
C17CA C 0.2194(2) 0.5669(2) 0.30335(6)
C17FA C -0.3474(3) -0.5669(2) 0.19665(6)
C17BA C -0.5669(2) -0.3474(3) 0.30335(6)
C18O C 0.5888(6) 0.4998(4) 0.05834(10)
C18EA C -0.1664(4) 0.0778(6) 0.22500(10)
C18CA C 0.1664(4) 0.2443(4) 0.27500(10)
C18FA C -0.0778(6) -0.2443(4) 0.22500(10)
C18BA C -0.2443(4) -0.0778(6) 0.27500(10)
H11O H 0.5950 0.5325 0.0645
H11EA H -0.1991 0.0716 0.2311
H11CA H 0.1991 0.2708 0.2689
H11FA H -0.0716 -0.2708 0.2311
H11BA H -0.2708 -0.0716 0.2689
H12O H 0.6089 0.4825 0.0632
H12EA H -0.1491 0.0577 0.2298
H12CA H 0.1491 0.2069 0.2702
H12FA H -0.0577 -0.2069 0.2298
H12BA H -0.2069 -0.0577 0.2702
H13O H 0.6029 0.5119 0.0479
H13EA H -0.1785 0.0637 0.2145
H13CA H 0.1785 0.2423 0.2855
H13FA H -0.0637 -0.2423 0.2145
H13BA H -0.2423 -0.0637 0.2855
C19O C 0.2605(6) 0.3435(3) 0.02087(10)
C19EA C -0.0101(3) 0.4061(6) 0.18753(10)
C19CA C 0.0101(3) 0.4163(5) 0.31247(10)
C19FA C -0.4061(6) -0.4163(5) 0.18753(10)
C19BA C -0.4163(5) -0.4061(6) 0.31247(10)
H14O H 0.2475 0.3037 0.0190
H14EA H 0.0297 0.4191 0.1856
H14CA H -0.0297 0.3895 0.3144
H14FA H -0.4191 -0.3895 0.1856
H14BA H -0.3895 -0.4191 0.3144
H15O H 0.2920 0.3668 0.0140
H15EA H -0.0334 0.3746 0.1806
H15CA H 0.0334 0.4081 0.3194
H15FA H -0.3746 -0.4081 0.1806
H15BA H -0.4081 -0.3746 0.3194
H16O H 0.2296 0.3509 0.0190
H16EA H -0.0175 0.4370 0.1856
H16CA H 0.0175 0.4546 0.3144
H16FA H -0.4370 -0.4546 0.1856
H16BA H -0.4546 -0.4370 0.3144
loop_
_geom_bond_atom_site_label_1
_geom_bond_atom_site_label_2
_geom_bond_site_symmetry_1
_geom_bond_site_symmetry_2
Zn1 O1 1_555 1_555
Zn2 O1 1_555 1_555
O1 Zn2A 1_555 1_555
C1 C3 1_555 1_555
O2 C2 1_555 1_555
C2 C11 1_555 1_555
O3 Zn2 1_555 1_555
C3 O2 1_555 1_555
H1 C3 1_555 1_555
H2 C3 1_555 1_555
O4 C6 1_555 1_555
C4 C13 1_555 1_555
O5 C15 1_555 1_555
C5 C7 1_555 1_555
C6 C1 1_555 1_555
H3 C6 1_555 1_555
H4 C6 1_555 1_555
C7 H5 1_555 1_555
C8 O4 1_555 1_555
C9 C5 1_555 1_555
H6 C9 1_555 1_555
C10 C7 1_555 1_555
C11 H7 1_555 1_555
C12 C8 1_555 1_555
H8 C12 1_555 1_555
O6 C14 1_555 1_555
C13 C11 1_555 1_555
H9 C13 1_555 1_555
C14 C2 1_555 1_555
C15 C5 1_555 1_555
C16 C4 1_555 1_555
H10 C16 1_555 1_555
O7 C15 1_555 1_555
O8 Zn1 1_555 1_555
O9 C10 1_555 1_555
C17 O3 1_555 1_555
C18 O9 1_555 1_555
H11 C18 1_555 1_555
H12 C18 1_555 1_555
H13 C18 1_555 1_555
C19 O6 1_555 1_555
H14 C19 1_555 1_555
H15 C19 1_555 1_555
H16 C19 1_555 1_555
Zn1DA O1DA 1_555 1_555
Zn1O O8O 1_555 1_555
Zn1DA_2 O1DA_2 1_555 1_555
Zn1AA O8BA 1_555 1_555
Zn1AA_2 O8CA 1_555 1_555
Zn2A O3A 1_555 1_555
Zn2B O1 1_555 1_555
Zn2DA O7 1_555 1_555
Zn2EA O1DA_2 1_555 1_555
Zn2FA O1DA 1_555 1_555
Zn2C O5BA 1_555 1_555
Zn2D O5CA 1_555 1_555
Zn2E O7CA 1_555 1_555
Zn2O O3O 1_555 1_555
Zn2DA_2 O1DA 1_555 1_555
Zn2EA_2 O1DA 1_555 1_555
Zn2FA_2 O5 1_555 1_555
Zn2GA O7O 1_555 1_555
Zn2IA O5O 1_555 1_555
Zn2BA O3BA 1_555 1_555
Zn2CA O3CA 1_555 1_555
O1DA_3 Zn2DA 1_555 1_555
C1EA C3EA 1_555 1_555
C1FA C3FA 1_555 1_555
O2O C2O 1_555 1_555
O2EA C2EA 1_555 1_555
O2CA C2CA 1_555 1_555
O2FA C2FA 1_555 1_555
O2BA C2BA 1_555 1_555
C2O C11O 1_555 1_555
C2EA C11EA 1_555 1_555
C2CA C11CA 1_555 1_555
C2FA C11FA 1_555 1_555
C2BA C11BA 1_555 1_555
O3O C17O 1_555 1_555
O3EA Zn2EA 1_555 1_555
O3CA C17CA 1_555 1_555
O3FA Zn2FA 1_555 1_555
O3BA C17BA 1_555 1_555
O3B Zn2B 1_555 1_555
O3DA Zn2DA 1_555 1_555
C3O C1 1_555 1_555
C3EA O2EA 1_555 1_555
C3CA C1EA 1_555 1_555
C3FA O2FA 1_555 1_555
C3BA C1FA 1_555 1_555
H1O C3O 1_555 1_555
H1EA C3EA 1_555 1_555
H1CA C3CA 1_555 1_555
H1FA C3FA 1_555 1_555
H1BA C3BA 1_555 1_555
H2O C3O 1_555 1_555
H2EA C3EA 1_555 1_555
H2CA C3CA 1_555 1_555
H2FA C3FA 1_555 1_555
H2BA C3BA 1_555 1_555
O4O C6O 1_555 1_555
O4EA C6EA 1_555 1_555
O4CA C6CA 1_555 1_555
O4FA C6FA 1_555 1_555
O4BA C6BA 1_555 1_555
C4O C13O 1_555 1_555
C4EA C13EA 1_555 1_555
C4CA C13CA 1_555 1_555
C4FA C13FA 1_555 1_555
C4BA C13BA 1_555 1_555
O5O C15O 1_555 1_555
O5EA Zn2 1_555 1_555
O5CA C15CA 1_555 1_555
O5FA Zn2A 1_555 1_555
O5BA C15BA 1_555 1_555
O5_2 Zn2FA 1_555 1_555
O5A Zn2DA 1_555 1_555
O5B Zn2EA 1_555 1_555
O5DA Zn2B 1_555 1_555
C5O C7O 1_555 1_555
C5EA C7EA 1_555 1_555
C5CA C7CA 1_555 1_555
C5FA C7FA 1_555 1_555
C5BA C7BA 1_555 1_555
C6O C1 1_555 1_555
C6EA C1EA 1_555 1_555
C6CA C1EA 1_555 1_555
C6FA C1FA 1_555 1_555
C6BA C1FA 1_555 1_555
H3O C6O 1_555 1_555
H3EA C6EA 1_555 1_555
H3CA C6CA 1_555 1_555
H3FA C6FA 1_555 1_555
H3BA C6BA 1_555 1_555
H4O C6O 1_555 1_555
H4EA C6EA 1_555 1_555
H4CA C6CA 1_555 1_555
H4FA C6FA 1_555 1_555
H4BA C6BA 1_555 1_555
C7O H5O 1_555 1_555
C7EA H5EA 1_555 1_555
C7CA H5CA 1_555 1_555
C7FA H5FA 1_555 1_555
C7BA H5BA 1_555 1_555
C8O O4O 1_555 1_555
C8EA O4EA 1_555 1_555
C8CA O4CA 1_555 1_555
C8FA O4FA 1_555 1_555
C8BA O4BA 1_555 1_555
C9O C5O 1_555 1_555
C9EA C5EA 1_555 1_555
C9CA C5CA 1_555 1_555
C9FA C5FA 1_555 1_555
C9BA C5BA 1_555 1_555
H6O C9O 1_555 1_555
H6EA C9EA 1_555 1_555
H6CA C9CA 1_555 1_555
H6FA C9FA 1_555 1_555
H6BA C9BA 1_555 1_555
C10O C7O 1_555 1_555
C10EA C7EA 1_555 1_555
C10CA C7CA 1_555 1_555
C10FA C7FA 1_555 1_555
C10BA C7BA 1_555 1_555
C11O H7O 1_555 1_555
C11EA H7EA 1_555 1_555
C11CA H7CA 1_555 1_555
C11FA H7FA 1_555 1_555
C11BA H7BA 1_555 1_555
C12O C8O 1_555 1_555
C12EA C8EA 1_555 1_555
C12CA C8CA 1_555 1_555
C12FA C8FA 1_555 1_555
C12BA C8BA 1_555 1_555
H8O C12O 1_555 1_555
H8EA C12EA 1_555 1_555
H8CA C12CA 1_555 1_555
H8FA C12FA 1_555 1_555
H8BA C12BA 1_555 1_555
O6O C14O 1_555 1_555
O6EA C14EA 1_555 1_555
O6CA C14CA 1_555 1_555
O6FA C14FA 1_555 1_555
O6BA C14BA 1_555 1_555
C13O C11O 1_555 1_555
C13EA C11EA 1_555 1_555
C13CA C11CA 1_555 1_555
C13FA C11FA 1_555 1_555
C13BA C11BA 1_555 1_555
H9O C13O 1_555 1_555
H9EA C13EA 1_555 1_555
H9CA C13CA 1_555 1_555
H9FA C13FA 1_555 1_555
H9BA C13BA 1_555 1_555
C14O C2O 1_555 1_555
C14EA C2EA 1_555 1_555
C14CA C2CA 1_555 1_555
C14FA C2FA 1_555 1_555
C14BA C2BA 1_555 1_555
C15O C5O 1_555 1_555
C15EA O5EA 1_555 1_555
C15CA C5CA 1_555 1_555
C15FA O5FA 1_555 1_555
C15BA C5BA 1_555 1_555
C16O C4O 1_555 1_555
C16EA C4EA 1_555 1_555
C16CA C4CA 1_555 1_555
C16FA C4FA 1_555 1_555
C16BA C4BA 1_555 1_555
H10O C16O 1_555 1_555
H10EA C16EA 1_555 1_555
H10CA C16CA 1_555 1_555
H10FA C16FA 1_555 1_555
H10BA C16BA 1_555 1_555
O7O C15O 1_555 1_555
O7EA Zn2A 1_555 1_555
O7CA C15CA 1_555 1_555
O7FA Zn2B 1_555 1_555
O7BA Zn2D 1_555 1_555
O7B Zn2FA 1_555 1_555
O7A Zn2EA 1_555 1_555
O7DA Zn2 1_555 1_555
O8O C17O 1_555 1_555
O8EA Zn1DA_2 1_555 1_555
O8CA C17CA 1_555 1_555
O8FA Zn1DA 1_555 1_555
O8BA C17BA 1_555 1_555
O8DA Zn1DA 1_555 1_555
O8EA_2 Zn1DA 1_555 1_555
O8B Zn1 1_555 1_555
O8A Zn1 1_555 1_555
O9O C10O 1_555 1_555
O9EA C10EA 1_555 1_555
O9CA C10CA 1_555 1_555
O9FA C10FA 1_555 1_555
O9BA C10BA 1_555 1_555
C17O C4O 1_555 1_555
C17EA O3EA 1_555 1_555
C17CA C4CA 1_555 1_555
C17FA O3FA 1_555 1_555
C17BA C4BA 1_555 1_555
C18O O9O 1_555 1_555
C18EA O9EA 1_555 1_555
C18CA O9CA 1_555 1_555
C18FA O9FA 1_555 1_555
C18BA O9BA 1_555 1_555
H11O C18O 1_555 1_555
H11EA C18EA 1_555 1_555
H11CA C18CA 1_555 1_555
H11FA C18FA 1_555 1_555
H11BA C18BA 1_555 1_555
H12O C18O 1_555 1_555
H12EA C18EA 1_555 1_555
H12CA C18CA 1_555 1_555
H12FA C18FA 1_555 1_555
H12BA C18BA 1_555 1_555
H13O C18O 1_555 1_555
H13EA C18EA 1_555 1_555
H13CA C18CA 1_555 1_555
H13FA C18FA 1_555 1_555
H13BA C18BA 1_555 1_555
C19O O6O 1_555 1_555
C19EA O6EA 1_555 1_555
C19CA O6CA 1_555 1_555
C19FA O6FA 1_555 1_555
C19BA O6BA 1_555 1_555
H14O C19O 1_555 1_555
H14EA C19EA 1_555 1_555
H14CA C19CA 1_555 1_555
H14FA C19FA 1_555 1_555
H14BA C19BA 1_555 1_555
H15O C19O 1_555 1_555
H15EA C19EA 1_555 1_555
H15CA C19CA 1_555 1_555
H15FA C19FA 1_555 1_555
H15BA C19BA 1_555 1_555
H16O C19O 1_555 1_555
H16EA C19EA 1_555 1_555
H16CA C19CA 1_555 1_555
H16FA C19FA 1_555 1_555
H16BA C19BA 1_555 1_555
C4 C17 1_555 1_555
C8 C10 1_555 1_555
C9 C12 1_555 1_555
C14 C16 1_555 1_555
O8 C17 1_555 1_555
Zn2FA_2 O1DA_3 1_555 1_555
O2O C3O 1_555 1_555
O2CA C3CA 1_555 1_555
O2BA C3BA 1_555 1_555
C4EA C17EA 1_555 1_555
C4FA C17FA 1_555 1_555
C5EA C15EA 1_555 1_555
C5FA C15FA 1_555 1_555
C8O C10O 1_555 1_555
C8EA C10EA 1_555 1_555
C8CA C10CA 1_555 1_555
C8FA C10FA 1_555 1_555
C8BA C10BA 1_555 1_555
C9O C12O 1_555 1_555
C9EA C12EA 1_555 1_555
C9CA C12CA 1_555 1_555
C9FA C12FA 1_555 1_555
C9BA C12BA 1_555 1_555
C14O C16O 1_555 1_555
C14EA C16EA 1_555 1_555
C14CA C16CA 1_555 1_555
C14FA C16FA 1_555 1_555
C14BA C16BA 1_555 1_555
C15EA O7EA 1_555 1_555
C15FA O7FA 1_555 1_555
C15BA O7BA 1_555 1_555
O8EA C17EA 1_555 1_555
O8FA C17FA 1_555 1_555

#END
