
#######################################################################
#
#                 Cambridge Crystallographic Data Centre
#                                CCDC 
#
#######################################################################
#
# If this CIF has been generated from an entry in the Cambridge 
# Structural Database, then it will include bibliographic, chemical, 
# crystal, experimental, refinement or atomic coordinate data resulting 
# from the CCDC's data processing and validation procedures.
#
#######################################################################

data_LENKIA
_symmetry_cell_setting           rhombohedral
_symmetry_space_group_name_H-M   'R -3'
_symmetry_Int_Tables_number      148
_space_group_name_Hall           '-R 3'
loop_
_symmetry_equiv_pos_site_id
_symmetry_equiv_pos_as_xyz
1 x,y,z
2 -y,x-y,z
3 -x+y,-x,z
4 2/3+x,1/3+y,1/3+z
5 2/3-y,1/3+x-y,1/3+z
6 2/3-x+y,1/3-x,1/3+z
7 1/3+x,2/3+y,2/3+z
8 1/3-y,2/3+x-y,2/3+z
9 1/3-x+y,2/3-x,2/3+z
10 -x,-y,-z
11 y,-x+y,-z
12 x-y,x,-z
13 1/3-x,2/3-y,2/3-z
14 1/3+y,2/3-x+y,2/3-z
15 1/3+x-y,2/3+x,2/3-z
16 2/3-x,1/3-y,1/3-z
17 2/3+y,1/3-x+y,1/3-z
18 2/3+x-y,1/3+x,1/3-z
_cell_length_a                   25.9972(11)
_cell_length_b                   25.9972(11)
_cell_length_c                   6.2587(3)
_cell_angle_alpha                90
_cell_angle_beta                 90
_cell_angle_gamma                120
_cell_volume                     3663.26
loop_
_atom_site_label
_atom_site_type_symbol
_atom_site_fract_x
_atom_site_fract_y
_atom_site_fract_z
Cu1 Cu 0.29095(3) 0.01523(3) 0.34667(11)
O2 O 0.25019(14) -0.05673(14) 0.1687(5)
O3 O 0.28480(15) -0.03077(15) 0.5989(6)
O4 O 0.26622(15) -0.10919(15) 0.7890(5)
C1 C 0.1635(2) -0.1502(2) 0.1282(8)
H1 H 0.1608 -0.1394 -0.0145
C2 C 0.2577(2) -0.0861(2) 0.6256(8)
C3 C 0.2096(2) -0.1095(2) 0.2552(8)
C4 C 0.2121(2) -0.1273(2) 0.4669(8)
C5 C 0.1944(5) 0.0629(5) 0.469(2)
O5 O 0.2099(2) 0.0174(2) 0.4841(8)
O6 O 0.1802(3) -0.0266(3) 0.8931(11)
C6 C 0.1896(13) 0.0078(14) 0.668(3)
N1 N 0.162(2) 0.0246(17) 0.803(5)
C7 C 0.1446(14) -0.0151(13) 0.984(4)
C8 C 0.151(3) 0.067(3) 0.698(10)
Cu1L Cu 0.04238(3) -0.34856(3) 0.32000(11)
Cu1G Cu 0.31810(3) -0.05761(4) 0.01334(11)
Cu1G_2 Cu 0.31810(3) -0.05761(4) 1.01334(11)
Cu1J Cu 0.01523(3) -0.27572(4) -0.34667(11)
Cu1J_2 Cu 0.01523(3) -0.27572(4) 0.65333(11)
O2L O 0.08314(14) -0.27660(14) 0.4980(5)
O2E O 0.35975(20) 0.08314(14) 0.5020(5)
O2Q O -0.02641(20) -0.41648(14) 0.1646(5)
O3L O 0.04853(15) -0.30256(15) 0.0678(6)
O4L O 0.06711(15) -0.22414(15) -0.1223(5)
O4E O 0.29126(21) 0.06711(15) 0.1223(5)
O4Q O 0.04208(21) -0.40045(15) 0.5443(5)
C1L C 0.1698(2) -0.1831(2) 0.5385(8)
H1L H 0.1725 -0.1939 0.6812
C2L C 0.0756(2) -0.2472(2) 0.0411(8)
C3L C 0.1237(2) -0.2238(2) 0.4115(8)
C4L C 0.1212(2) -0.2060(2) 0.1998(8)
C5L C 0.1389(5) -0.3962(5) 0.198(2)
O5L O 0.1234(2) -0.3507(2) 0.1826(8)
O6L O 0.1531(3) -0.3067(3) -0.2264(11)
C6L C 0.1437(13) -0.3411(14) -0.001(3)
N1L N 0.171(2) -0.3579(17) -0.136(5)
C7L C 0.1887(14) -0.3182(13) -0.317(4)
C8L C 0.182(3) -0.400(3) -0.031(10)
O1 O 0.0573(7) -0.1054(7) 0.853(3)
loop_
_geom_bond_atom_site_label_1
_geom_bond_atom_site_label_2
_geom_bond_site_symmetry_1
_geom_bond_site_symmetry_2
Cu1 O2 1_555 1_555
O2 C3 1_555 1_555
O3 Cu1 1_555 1_555
O4 C2 1_555 1_555
C1 H1 1_555 1_555
C2 O3 1_555 1_555
C3 C1 1_555 1_555
C4 C2 1_555 1_555
C5 O5 1_555 1_555
O5 Cu1 1_555 1_555
O6 C6 1_555 1_555
C6 O5 1_555 1_555
N1 O6 1_555 1_555
C7 O6 1_555 1_555
C8 N1 1_555 1_555
Cu1L O2L 1_555 1_555
Cu1G O2 1_555 1_555
Cu1G_2 O4 1_555 1_555
Cu1J O4L 1_555 1_555
Cu1J_2 O2L 1_555 1_555
O2L C3L 1_555 1_555
O2E Cu1 1_555 1_555
O2Q Cu1L 1_555 1_555
O3L Cu1L 1_555 1_555
O4L C2L 1_555 1_555
O4E Cu1 1_555 1_555
O4Q Cu1L 1_555 1_555
C1L C4 1_555 1_555
H1L C1L 1_555 1_555
C2L O3L 1_555 1_555
C3L C1L 1_555 1_555
C4L C1 1_555 1_555
C5L O5L 1_555 1_555
O5L Cu1L 1_555 1_555
O6L C6L 1_555 1_555
C6L O5L 1_555 1_555
N1L O6L 1_555 1_555
C7L O6L 1_555 1_555
C8L N1L 1_555 1_555
C3 C4 1_555 1_555
C6 N1 1_555 1_555
N1 C7 1_555 1_555
C2L C4L 1_555 1_555
C3L C4L 1_555 1_555
C6L N1L 1_555 1_555
N1L C7L 1_555 1_555

#END
