
#######################################################################
#
#                 Cambridge Crystallographic Data Centre
#                                CCDC 
#
#######################################################################
#
# If this CIF has been generated from an entry in the Cambridge 
# Structural Database, then it will include bibliographic, chemical, 
# crystal, experimental, refinement or atomic coordinate data resulting 
# from the CCDC's data processing and validation procedures.
#
#######################################################################

data_LETRIN
_symmetry_cell_setting           monoclinic
_symmetry_space_group_name_H-M   'C 2/c'
_symmetry_Int_Tables_number      15
_space_group_name_Hall           '-C 2yn'
loop_
_symmetry_equiv_pos_site_id
_symmetry_equiv_pos_as_xyz
1 x,y,z
2 -x,y,1/2-z
3 1/2+x,1/2+y,z
4 1/2-x,1/2+y,1/2-z
5 -x,-y,-z
6 x,-y,1/2+z
7 1/2-x,1/2-y,-z
8 1/2+x,1/2-y,1/2+z
_cell_length_a                   17.9856(4)
_cell_length_b                   12.7314(4)
_cell_length_c                   11.0892(3)
_cell_angle_alpha                90
_cell_angle_beta                 93.206(2)
_cell_angle_gamma                90
_cell_volume                     2535.25
loop_
_atom_site_label
_atom_site_type_symbol
_atom_site_fract_x
_atom_site_fract_y
_atom_site_fract_z
Zn1 Zn 0.080187(19) 0.05111(3) 0.00083(3)
Zn2 Zn 0.0000 0.10390(4) 0.2500
O1 O 0.08251(13) 0.2133(2) 0.2381(2)
O2 O 0.14085(13) 0.1859(2) 0.0671(2)
O3 O 0.01664(12) 0.08715(18) 0.4339(2)
H1 H 0.0480 0.0385 0.4499
N1 N 0.37476(15) 0.4677(2) 0.3553(3)
N2 N 0.40979(14) 0.4812(2) 0.2548(3)
N3 N 0.37354(15) 0.4351(2) 0.1613(3)
C1 C 0.31333(18) 0.4098(3) 0.3279(3)
C2 C 0.31209(19) 0.3880(3) 0.2046(3)
C3 C 0.25378(18) 0.3282(3) 0.1483(3)
H2 H 0.2518 0.3143 0.0659
C4 C 0.19978(18) 0.2915(3) 0.2215(3)
C5 C 0.2021(2) 0.3148(3) 0.3455(4)
H3 H 0.1642 0.2897 0.3915
C6 C 0.2580(2) 0.3733(3) 0.4014(4)
H4 H 0.2592 0.3878 0.4836
C7 C 0.13577(19) 0.2244(3) 0.1700(3)
Zn1B Zn -0.419813(19) -0.44889(3) 0.00083(3)
Zn1A Zn -0.080187(19) 0.05111(3) 0.49917(3)
Zn1E Zn 0.080187(19) -0.05111(3) 0.50083(3)
Zn1C Zn 0.419813(19) 0.55111(3) 0.49917(3)
Zn1F Zn 0.419813(19) 0.44889(3) -0.00083(3)
Zn1D Zn -0.080187(19) -0.05111(3) -0.00083(3)
Zn2B Zn 0.5000 0.60390(4) 0.2500
Zn2B_2 Zn -0.5000 -0.39610(4) 0.2500
O1B O -0.41749(13) -0.2867(2) 0.2381(2)
O1A O -0.08251(13) 0.2133(2) 0.2619(2)
O2B O -0.35915(13) -0.3141(2) 0.0671(2)
O2A O -0.14085(13) 0.1859(2) 0.4329(2)
O3A O -0.01664(12) 0.08715(18) 0.0661(2)
O3E O 0.01664(12) -0.08715(18) -0.0661(2)
O3D O -0.01664(12) -0.08715(18) 0.5661(2)
H1A H -0.0480 0.0385 0.0501
H1E H 0.0480 -0.0385 -0.0501
H1D H -0.0480 -0.0385 0.5501
N1B N -0.12524(15) -0.0323(2) 0.3553(3)
N1C N 0.12524(15) -0.0323(2) 0.1447(3)
N2B N -0.09021(14) -0.0188(2) 0.2548(3)
N2C N 0.09021(14) -0.0188(2) 0.2452(3)
N3B N -0.12646(15) -0.0649(2) 0.1613(3)
N3F N 0.12646(15) 0.0649(2) -0.1613(3)
N3G N -0.12646(15) 0.0649(2) 0.6613(3)
C1B C -0.18667(18) -0.0902(3) 0.3279(3)
C2B C -0.18791(19) -0.1120(3) 0.2046(3)
C3B C -0.24622(18) -0.1718(3) 0.1483(3)
H2B H -0.2482 -0.1857 0.0659
C4B C -0.30022(18) -0.2085(3) 0.2215(3)
C5B C -0.2979(2) -0.1852(3) 0.3455(4)
H3B H -0.3358 -0.2103 0.3915
C6B C -0.2420(2) -0.1267(3) 0.4014(4)
H4B H -0.2408 -0.1122 0.4836
C7B C -0.36423(19) -0.2756(3) 0.1700(3)
loop_
_geom_bond_atom_site_label_1
_geom_bond_atom_site_label_2
_geom_bond_site_symmetry_1
_geom_bond_site_symmetry_2
Zn1 O2 1_555 1_555
Zn2 O1 1_555 1_555
O1 C7 1_555 1_555
O2 C7 1_555 1_555
O3 Zn2 1_555 1_555
H1 O3 1_555 1_555
N1 N2 1_555 1_555
N2 N3 1_555 1_555
N3 C2 1_555 1_555
C1 N1 1_555 1_555
C2 C1 1_555 1_555
C3 C2 1_555 1_555
H2 C3 1_555 1_555
C4 C3 1_555 1_555
C5 C4 1_555 1_555
H3 C5 1_555 1_555
C6 C1 1_555 1_555
H4 C6 1_555 1_555
C7 C4 1_555 1_555
Zn1B O2B 1_555 1_555
Zn1A O3 1_555 1_555
Zn1E O3 1_555 1_555
Zn1C N1 1_555 1_555
Zn1F N3 1_555 1_555
Zn1D O3A 1_555 1_555
Zn2B N2 1_555 1_555
Zn2B_2 O1B 1_555 1_555
O1B C7B 1_555 1_555
O1A Zn2 1_555 1_555
O2B C7B 1_555 1_555
O2A Zn1A 1_555 1_555
O3A Zn1 1_555 1_555
O3E Zn1 1_555 1_555
O3D Zn1A 1_555 1_555
H1A O3A 1_555 1_555
H1E O3E 1_555 1_555
H1D O3D 1_555 1_555
N1B Zn1A 1_555 1_555
N1C Zn1 1_555 1_555
N2B Zn2 1_555 1_555
N2C Zn2 1_555 1_555
N3B Zn1D 1_555 1_555
N3F Zn1 1_555 1_555
N3G Zn1A 1_555 1_555
C1B N1B 1_555 1_555
C2B N3B 1_555 1_555
C3B C2B 1_555 1_555
H2B C3B 1_555 1_555
C4B C3B 1_555 1_555
C5B C4B 1_555 1_555
H3B C5B 1_555 1_555
C6B C1B 1_555 1_555
H4B C6B 1_555 1_555
C7B C4B 1_555 1_555
Zn2 O3A 1_555 1_555
C5 C6 1_555 1_555
Zn1E O3D 1_555 1_555
Zn1D O3E 1_555 1_555
N1B N2B 1_555 1_555
N1C N2C 1_555 1_555
N2B N3B 1_555 1_555
C1B C2B 1_555 1_555
C5B C6B 1_555 1_555

#END
