
#######################################################################
#
#                 Cambridge Crystallographic Data Centre
#                                CCDC 
#
#######################################################################
#
# If this CIF has been generated from an entry in the Cambridge 
# Structural Database, then it will include bibliographic, chemical, 
# crystal, experimental, refinement or atomic coordinate data resulting 
# from the CCDC's data processing and validation procedures.
#
#######################################################################

data_LETRUZ
_symmetry_cell_setting           monoclinic
_symmetry_space_group_name_H-M   'C 2/c'
_symmetry_Int_Tables_number      15
_space_group_name_Hall           '-C 2yn'
loop_
_symmetry_equiv_pos_site_id
_symmetry_equiv_pos_as_xyz
1 x,y,z
2 -x,y,1/2-z
3 1/2+x,1/2+y,z
4 1/2-x,1/2+y,1/2-z
5 -x,-y,-z
6 x,-y,1/2+z
7 1/2-x,1/2-y,-z
8 1/2+x,1/2-y,1/2+z
_cell_length_a                   19.465(3)
_cell_length_b                   9.3348(13)
_cell_length_c                   11.0748(15)
_cell_angle_alpha                90
_cell_angle_beta                 90.00
_cell_angle_gamma                90
_cell_volume                     2012.31
loop_
_atom_site_label
_atom_site_type_symbol
_atom_site_fract_x
_atom_site_fract_y
_atom_site_fract_z
Zn1 Zn -0.5000 -0.14060(11) -0.2500
Zn2 Zn -0.57502(3) -0.05946(8) -0.50530(6)
O1 O -0.6305(2) -0.2482(5) -0.4474(4)
O2 O -0.5780(2) -0.2888(5) -0.2696(4)
O3 O -0.48643(18) -0.1196(4) -0.4331(3)
H1 H -0.4561 -0.0561 -0.4470
N1 N -0.3805(2) 0.0417(5) -0.1359(4)
N2 N -0.4167(2) 0.0304(6) -0.2382(4)
N3 N -0.3791(2) 0.0697(6) -0.3348(4)
C1 C -0.3159(3) 0.0872(6) -0.1654(5)
C2 C -0.3147(3) 0.1061(6) -0.2927(5)
C3 C -0.2544(3) 0.1484(7) -0.3512(5)
H2 H -0.2533 0.1635 -0.4342
C4 C -0.6973(3) -0.3333(7) -0.2820(5)
C5 C -0.6994(3) -0.3510(7) -0.1526(5)
H3 H -0.6596 -0.3355 -0.1081
C6 C -0.2586(3) 0.1098(7) -0.0932(5)
H4 H -0.2601 0.0990 -0.0097
C7 C -0.6302(3) -0.2871(7) -0.3394(6)
Zn1B Zn -1.0000 -0.64060(11) -0.2500
Zn1B_2 Zn 0.0000 0.35940(11) -0.2500
Zn2F Zn -0.92498(3) -0.44054(8) -0.49470(6)
Zn2D Zn -0.42498(3) 0.05946(8) -0.49470(6)
Zn2A Zn -0.42498(3) -0.05946(8) 0.00530(6)
Zn2E Zn -0.57502(3) 0.05946(8) -0.00530(6)
Zn2C Zn -0.92498(3) -0.55946(8) 0.00530(6)
Zn2B Zn -0.07502(3) 0.44054(8) -0.50530(6)
O1A O -0.3695(2) -0.2482(5) -0.0526(4)
O1B O -0.1305(2) 0.2518(5) -0.4474(4)
O2A O -0.4220(2) -0.2888(5) -0.2304(4)
O2B O -0.0780(2) 0.2112(5) -0.2696(4)
O3D O -0.51357(18) 0.1196(4) -0.5669(3)
O3A O -0.51357(18) -0.1196(4) -0.0669(3)
O3E O -0.48643(18) 0.1196(4) 0.0669(3)
H1D H -0.5439 0.0561 -0.5530
H1A H -0.5439 -0.0561 -0.0530
H1E H -0.4561 0.0561 0.0530
N1A N -0.6195(2) 0.0417(5) -0.3641(4)
N1B N -0.8805(2) -0.4583(5) -0.1359(4)
N2B N -0.9167(2) -0.4696(6) -0.2382(4)
N2A N -0.5833(2) 0.0304(6) -0.2618(4)
N3D N -0.6209(2) -0.0697(6) -0.6652(4)
N3B N -0.8791(2) -0.4303(6) -0.3348(4)
N3E N -0.3791(2) -0.0697(6) 0.1652(4)
C1B C -0.8159(3) -0.4128(6) -0.1654(5)
C2B C -0.8147(3) -0.3939(6) -0.2927(5)
C3B C -0.7544(3) -0.3516(7) -0.3512(5)
H2B H -0.7533 -0.3365 -0.4342
C4B C -0.1973(3) 0.1667(7) -0.2820(5)
C5B C -0.1994(3) 0.1490(7) -0.1526(5)
H3B H -0.1596 0.1645 -0.1081
C6B C -0.7586(3) -0.3902(7) -0.0932(5)
H4B H -0.7601 -0.4010 -0.0097
C7B C -0.1302(3) 0.2129(7) -0.3394(6)
loop_
_geom_bond_atom_site_label_1
_geom_bond_atom_site_label_2
_geom_bond_site_symmetry_1
_geom_bond_site_symmetry_2
Zn1 O2 1_555 1_555
Zn2 O1 1_555 1_555
O1 C7 1_555 1_555
O2 C7 1_555 1_555
O3 Zn1 1_555 1_555
H1 O3 1_555 1_555
N1 N2 1_555 1_555
N2 Zn1 1_555 1_555
N3 N2 1_555 1_555
C1 N1 1_555 1_555
C2 N3 1_555 1_555
C3 C2 1_555 1_555
H2 C3 1_555 1_555
C4 C5 1_555 1_555
C5 H3 1_555 1_555
C6 C1 1_555 1_555
H4 C6 1_555 1_555
C7 C4 1_555 1_555
Zn1B N2B 1_555 1_555
Zn1B_2 O2B 1_555 1_555
Zn2F N3B 1_555 1_555
Zn2D O3 1_555 1_555
Zn2A N1 1_555 1_555
Zn2E O3A 1_555 1_555
Zn2C N1B 1_555 1_555
Zn2B O1B 1_555 1_555
O1A Zn2A 1_555 1_555
O1B C7B 1_555 1_555
O2A Zn1 1_555 1_555
O2B C7B 1_555 1_555
O3D Zn2 1_555 1_555
O3A Zn1 1_555 1_555
O3E Zn2A 1_555 1_555
H1D O3D 1_555 1_555
H1A O3A 1_555 1_555
H1E O3E 1_555 1_555
N1A Zn2 1_555 1_555
N1B N2B 1_555 1_555
N2B N3B 1_555 1_555
N2A Zn1 1_555 1_555
N3D Zn2 1_555 1_555
N3B C2B 1_555 1_555
N3E Zn2A 1_555 1_555
C1B N1B 1_555 1_555
C2B C1B 1_555 1_555
C3B C4 1_555 1_555
H2B C3B 1_555 1_555
C4B C3 1_555 1_555
C5B C6 1_555 1_555
H3B C5B 1_555 1_555
C6B C5 1_555 1_555
H4B C6B 1_555 1_555
C7B C4B 1_555 1_555
Zn2 O3 1_555 1_555
N3 Zn2D 1_555 1_555
C1 C2 1_555 1_555
Zn2D O3D 1_555 1_555
Zn2A O3A 1_555 1_555
Zn2E O3E 1_555 1_555
N1A N2A 1_555 1_555
C1B C6B 1_555 1_555
C2B C3B 1_555 1_555
C4B C5B 1_555 1_555

#END
