
#######################################################################
#
#                 Cambridge Crystallographic Data Centre
#                                CCDC 
#
#######################################################################
#
# If this CIF has been generated from an entry in the Cambridge 
# Structural Database, then it will include bibliographic, chemical, 
# crystal, experimental, refinement or atomic coordinate data resulting 
# from the CCDC's data processing and validation procedures.
#
#######################################################################

data_LEVNOQ
_symmetry_cell_setting           monoclinic
_symmetry_space_group_name_H-M   'C 2/c'
_symmetry_Int_Tables_number      15
_space_group_name_Hall           '-C 2yn'
loop_
_symmetry_equiv_pos_site_id
_symmetry_equiv_pos_as_xyz
1 x,y,z
2 1/2+x,1/2+y,z
3 -x,y,1/2-z
4 1/2-x,1/2+y,1/2-z
5 -x,-y,-z
6 1/2-x,1/2-y,-z
7 x,-y,1/2+z
8 1/2+x,1/2-y,1/2+z
_cell_length_a                   13.475(2)
_cell_length_b                   18.038(5)
_cell_length_c                   20.946(3)
_cell_angle_alpha                90
_cell_angle_beta                 99.860(19)
_cell_angle_gamma                90
_cell_volume                     5015.98
loop_
_atom_site_label
_atom_site_type_symbol
_atom_site_fract_x
_atom_site_fract_y
_atom_site_fract_z
Mg1 Mg 0.5000 0.25239(13) 0.7500
Mg2 Mg 0.73529(16) 0.24237(10) 0.69214(9)
C1 C 0.7141(4) 0.2744(3) 0.9821(3)
C2 C 0.6974(4) 0.2712(3) 0.9143(3)
H1 H 0.6500 0.3027 0.8908
C3 C 0.7489(5) 0.2233(3) 0.8823(3)
C4 C 0.8196(5) 0.1743(3) 0.9167(3)
H2 H 0.8549 0.1416 0.8946
C5 C 0.6640(5) 0.3250(4) 1.0175(3)
H3 H 0.6186 0.3586 0.9950
C6 C 0.7346(6) 0.2235(3) 0.8091(3)
O1 O 0.6432(4) 0.3094(3) 0.6310(2)
O2 O 0.5166(4) 0.3366(2) 0.6841(2)
C7 C 0.5372(5) 0.4753(3) 0.4922(3)
C8 C 0.5742(5) 0.4180(4) 0.5388(3)
H4 H 0.6246 0.3861 0.5304
C9 C 0.5366(6) 0.4103(4) 0.5944(3)
C10 C 0.4635(6) 0.4612(4) 0.6081(4)
H5 H 0.4386 0.4565 0.6467
C11 C 0.5722(6) 0.4818(4) 0.4342(4)
H6 H 0.6193 0.4483 0.4236
C12 C 0.5680(7) 0.3469(4) 0.6405(4)
O3 O 0.6584(3) 0.2548(2) 0.77643(18)
O4 O 0.8034(3) 0.1969(2) 0.78243(19)
C13 C 0.3823(5) 0.0378(3) 0.5224(3)
H7 H 0.3130 0.0347 0.5090
C14 C 0.4209(5) 0.0820(3) 0.5742(3)
H8 H 0.3769 0.1077 0.5959
C15 C 0.5245(5) 0.0893(3) 0.5950(3)
C16 C 0.5886(5) 0.0503(3) 0.5638(3)
H9 H 0.6577 0.0546 0.5777
C17 C 0.4478(4) -0.0032(3) 0.4894(3)
C18 C 0.5652(6) 0.1417(3) 0.6496(3)
O5 O 0.5027(3) 0.1713(2) 0.67934(19)
O6 O 0.6587(3) 0.1511(2) 0.6596(2)
O7 O 0.8133(5) 0.3433(3) 0.7262(3)
C19 C 0.7592(12) 0.3978(7) 0.7414(8)
N1 N 0.7769(11) 0.4629(5) 0.7369(5)
C20 C 0.845(2) 0.4991(12) 0.7126(11)
H10 H 0.8553 0.5468 0.7329
H11 H 0.8233 0.5053 0.6668
H12 H 0.9072 0.4718 0.7201
C21 C 0.7013(17) 0.5199(8) 0.7556(10)
H13 H 0.6427 0.4945 0.7647
H14 H 0.6821 0.5540 0.7205
H15 H 0.7322 0.5468 0.7935
O8 O 0.8491(5) 0.2196(3) 0.6431(3)
C22 C 0.9319(8) 0.2532(5) 0.6449(5)
N2 N 0.9479(6) 0.2934(4) 0.5960(4)
C23 C 1.0400(7) 0.3382(5) 0.6015(7)
H16 H 1.0261 0.3879 0.6138
H17 H 1.0627 0.3391 0.5605
H18 H 1.0914 0.3170 0.6337
C24 C 0.8767(14) 0.2984(10) 0.5399(7)
H19 H 0.8372 0.2538 0.5345
H20 H 0.9101 0.3049 0.5033
H21 H 0.8334 0.3401 0.5430
Mg1G Mg 1.0000 0.24761(13) 1.2500
Mg1F Mg 0.5000 0.74761(13) 0.2500
Mg1F_2 Mg 0.5000 -0.25239(13) 0.2500
Mg2D Mg 0.26471(16) 0.75763(10) 0.30786(9)
Mg2E Mg 0.76471(16) 0.25763(10) 1.30786(9)
Mg2D_2 Mg 0.26471(16) -0.24237(10) 0.30786(9)
C1E C 0.7859(4) 0.2256(3) 1.0179(3)
C2E C 0.8026(4) 0.2288(3) 1.0857(3)
H1E H 0.8500 0.1973 1.1092
C3E C 0.7511(5) 0.2767(3) 1.1177(3)
C4E C 0.6804(5) 0.3257(3) 1.0833(3)
H2E H 0.6451 0.3584 1.1054
C5E C 0.8360(5) 0.1750(4) 0.9825(3)
H3E H 0.8814 0.1414 1.0050
C6E C 0.7654(6) 0.2765(3) 1.1909(3)
O1D O 0.3568(4) 0.6906(3) 0.3690(2)
O2D O 0.4834(4) 0.6634(2) 0.3159(2)
O2B O 0.4834(4) 0.3366(2) 0.8159(2)
C7D C 0.4628(5) 0.5247(3) 0.5078(3)
C8D C 0.4258(5) 0.5820(4) 0.4612(3)
H4D H 0.3754 0.6139 0.4696
C9D C 0.4634(6) 0.5897(4) 0.4056(3)
C10D C 0.5365(6) 0.5388(4) 0.3919(4)
H5D H 0.5614 0.5435 0.3533
C11D C 0.4278(6) 0.5182(4) 0.5658(4)
H6D H 0.3807 0.5517 0.5764
C12D C 0.4320(7) 0.6531(4) 0.3595(4)
O3E O 0.8416(3) 0.2452(2) 1.22357(18)
O3B O 0.3416(3) 0.2548(2) 0.72357(18)
O3D O 0.3416(3) 0.7452(2) 0.22357(18)
O4E O 0.6966(3) 0.3031(2) 1.21757(19)
O4D O 0.1966(3) 0.8031(2) 0.21757(19)
C13D C 0.6177(5) -0.0378(3) 0.4776(3)
H7D H 0.6870 -0.0347 0.4910
C14D C 0.5791(5) -0.0820(3) 0.4258(3)
H8D H 0.6231 -0.1077 0.4041
C15D C 0.4755(5) -0.0893(3) 0.4050(3)
C16D C 0.4114(5) -0.0503(3) 0.4362(3)
H9D H 0.3423 -0.0546 0.4223
C17D C 0.5522(4) 0.0032(3) 0.5106(3)
C18D C 0.4348(6) -0.1417(3) 0.3504(3)
O5D O 0.4973(3) -0.1713(2) 0.32066(19)
O5B O 0.4973(3) 0.1713(2) 0.82066(19)
O6D O 0.3413(3) -0.1511(2) 0.3404(2)
O6D_2 O 0.3413(3) 0.8489(2) 0.3404(2)
O7D O 0.1867(5) 0.6567(3) 0.2738(3)
C19D C 0.2408(12) 0.6022(7) 0.2586(8)
N1D N 0.2231(11) 0.5371(5) 0.2631(5)
C20D C 0.155(2) 0.5009(12) 0.2874(11)
H10D H 0.1447 0.4532 0.2671
H11D H 0.1767 0.4947 0.3332
H12D H 0.0928 0.5282 0.2799
C21D C 0.2987(17) 0.4801(8) 0.2444(10)
H13D H 0.3573 0.5055 0.2353
H14D H 0.3179 0.4460 0.2795
H15D H 0.2678 0.4532 0.2065
O8D O 0.1509(5) 0.7804(3) 0.3569(3)
C22D C 0.0681(8) 0.7468(5) 0.3551(5)
N2D N 0.0521(6) 0.7066(4) 0.4040(4)
C23D C -0.0400(7) 0.6618(5) 0.3985(7)
H16D H -0.0261 0.6121 0.3862
H17D H -0.0627 0.6609 0.4395
H18D H -0.0914 0.6830 0.3663
C24D C 0.1233(14) 0.7016(10) 0.4601(7)
H19D H 0.1628 0.7462 0.4655
H20D H 0.0899 0.6951 0.4967
H21D H 0.1666 0.6599 0.4570
loop_
_geom_bond_atom_site_label_1
_geom_bond_atom_site_label_2
_geom_bond_site_symmetry_1
_geom_bond_site_symmetry_2
Mg1 O2 1_555 1_555
Mg2 O1 1_555 1_555
C1 C2 1_555 1_555
C2 H1 1_555 1_555
C3 C2 1_555 1_555
C4 C3 1_555 1_555
H2 C4 1_555 1_555
C5 C1 1_555 1_555
H3 C5 1_555 1_555
C6 C3 1_555 1_555
O1 C12 1_555 1_555
O2 C12 1_555 1_555
C7 C8 1_555 1_555
C8 H4 1_555 1_555
C9 C8 1_555 1_555
C10 C9 1_555 1_555
H5 C10 1_555 1_555
C11 C7 1_555 1_555
H6 C11 1_555 1_555
C12 C9 1_555 1_555
O3 Mg1 1_555 1_555
O4 Mg2 1_555 1_555
C13 H7 1_555 1_555
C14 C13 1_555 1_555
H8 C14 1_555 1_555
C15 C14 1_555 1_555
C16 C15 1_555 1_555
H9 C16 1_555 1_555
C17 C13 1_555 1_555
C18 C15 1_555 1_555
O5 Mg1 1_555 1_555
O6 Mg2 1_555 1_555
O7 Mg2 1_555 1_555
C19 O7 1_555 1_555
N1 C19 1_555 1_555
C20 N1 1_555 1_555
H10 C20 1_555 1_555
H11 C20 1_555 1_555
H12 C20 1_555 1_555
C21 N1 1_555 1_555
H13 C21 1_555 1_555
H14 C21 1_555 1_555
H15 C21 1_555 1_555
O8 Mg2 1_555 1_555
C22 O8 1_555 1_555
N2 C22 1_555 1_555
C23 N2 1_555 1_555
H16 C23 1_555 1_555
H17 C23 1_555 1_555
H18 C23 1_555 1_555
C24 N2 1_555 1_555
H19 C24 1_555 1_555
H20 C24 1_555 1_555
H21 C24 1_555 1_555
Mg1G O3E 1_555 1_555
Mg1F O2D 1_555 1_555
Mg1F_2 O5D 1_555 1_555
Mg2D O1D 1_555 1_555
Mg2E O3E 1_555 1_555
Mg2D_2 O6D 1_555 1_555
C1E C1 1_555 1_555
C2E C1E 1_555 1_555
H1E C2E 1_555 1_555
C3E C2E 1_555 1_555
C4E C5 1_555 1_555
H2E C4E 1_555 1_555
C5E C4 1_555 1_555
H3E C5E 1_555 1_555
C6E C3E 1_555 1_555
O1D C12D 1_555 1_555
O2D C12D 1_555 1_555
O2B Mg1 1_555 1_555
C7D C7 1_555 1_555
C8D C7D 1_555 1_555
H4D C8D 1_555 1_555
C9D C8D 1_555 1_555
C10D C11 1_555 1_555
H5D C10D 1_555 1_555
C11D C10 1_555 1_555
H6D C11D 1_555 1_555
C12D C9D 1_555 1_555
O3E C6E 1_555 1_555
O3B Mg1 1_555 1_555
O3D Mg1F 1_555 1_555
O4E Mg2E 1_555 1_555
O4D Mg2D 1_555 1_555
C13D H7D 1_555 1_555
C14D C13D 1_555 1_555
H8D C14D 1_555 1_555
C15D C14D 1_555 1_555
C16D C17 1_555 1_555
H9D C16D 1_555 1_555
C17D C16 1_555 1_555
C18D C15D 1_555 1_555
O5D C18D 1_555 1_555
O5B Mg1 1_555 1_555
O6D C18D 1_555 1_555
O6D_2 Mg2D 1_555 1_555
O7D Mg2D 1_555 1_555
C19D O7D 1_555 1_555
N1D C19D 1_555 1_555
C20D N1D 1_555 1_555
H10D C20D 1_555 1_555
H11D C20D 1_555 1_555
H12D C20D 1_555 1_555
C21D N1D 1_555 1_555
H13D C21D 1_555 1_555
H14D C21D 1_555 1_555
H15D C21D 1_555 1_555
O8D Mg2D 1_555 1_555
C22D O8D 1_555 1_555
N2D C22D 1_555 1_555
C23D N2D 1_555 1_555
H16D C23D 1_555 1_555
H17D C23D 1_555 1_555
H18D C23D 1_555 1_555
C24D N2D 1_555 1_555
H19D C24D 1_555 1_555
H20D C24D 1_555 1_555
H21D C24D 1_555 1_555
Mg2 O3 1_555 1_555
C6 O3 1_555 1_555
C6 O4 1_555 1_555
C17 C17D 1_555 1_555
C18 O5 1_555 1_555
C18 O6 1_555 1_555
Mg2D O3D 1_555 1_555
C1E C5E 1_555 1_555
C3E C4E 1_555 1_555
C6E O4E 1_555 1_555
C7D C11D 1_555 1_555
C9D C10D 1_555 1_555
C13D C17D 1_555 1_555
C15D C16D 1_555 1_555

#END
