
#######################################################################
#
#                 Cambridge Crystallographic Data Centre
#                                CCDC 
#
#######################################################################
#
# If this CIF has been generated from an entry in the Cambridge 
# Structural Database, then it will include bibliographic, chemical, 
# crystal, experimental, refinement or atomic coordinate data resulting 
# from the CCDC's data processing and validation procedures.
#
#######################################################################

data_LEVPAF
_symmetry_cell_setting           rhombohedral
_symmetry_space_group_name_H-M   'R -3'
_symmetry_Int_Tables_number      148
_space_group_name_Hall           '-R 3'
loop_
_symmetry_equiv_pos_site_id
_symmetry_equiv_pos_as_xyz
1 x,y,z
2 -y,x-y,z
3 -x+y,-x,z
4 2/3+x,1/3+y,1/3+z
5 2/3-y,1/3+x-y,1/3+z
6 2/3-x+y,1/3-x,1/3+z
7 1/3+x,2/3+y,2/3+z
8 1/3-y,2/3+x-y,2/3+z
9 1/3-x+y,2/3-x,2/3+z
10 -x,-y,-z
11 y,-x+y,-z
12 x-y,x,-z
13 1/3-x,2/3-y,2/3-z
14 1/3+y,2/3-x+y,2/3-z
15 1/3+x-y,2/3+x,2/3-z
16 2/3-x,1/3-y,1/3-z
17 2/3+y,1/3-x+y,1/3-z
18 2/3+x-y,1/3+x,1/3-z
_cell_length_a                   31.864(5)
_cell_length_b                   31.864(5)
_cell_length_c                   12.846(3)
_cell_angle_alpha                90
_cell_angle_beta                 90
_cell_angle_gamma                120
_cell_volume                     11295.3
loop_
_atom_site_label
_atom_site_type_symbol
_atom_site_fract_x
_atom_site_fract_y
_atom_site_fract_z
C1 C 0.02159(14) 0.29412(15) 1.0340(3)
C2 C 0.05546(15) 0.27527(15) 1.0227(3)
H1 H 0.0692 0.2765 0.9581
C3 C 0.06643(15) 0.25664(15) 1.1033(3)
H2 H 0.0501 0.2549 1.1646
C4 C 0.10012(16) 0.23843(16) 1.1108(4)
C5 C 0.13111(16) 0.24046(16) 1.0320(3)
C6 C 0.16487(19) 0.22550(18) 1.0496(5)
H3 H 0.1855 0.2273 0.9963
C7 C 0.1677(2) 0.20793(19) 1.1467(5)
H4 H 0.1907 0.1986 1.1586
C8 C 0.1368(2) 0.2040(2) 1.2249(5)
H5 H 0.1381 0.1914 1.2893
C9 C 0.10353(19) 0.21904(18) 1.2073(4)
H6 H 0.0826 0.2162 1.2609
C10 C 0.09638(16) 0.30748(16) 0.7495(3)
C11 C 0.12992(16) 0.29221(16) 0.7092(3)
H7 H 0.1630 0.3137 0.7156
C12 C 0.11599(16) 0.24995(17) 0.6644(3)
H8 H 0.0829 0.2289 0.6569
C13 C 0.14874(16) 0.23362(17) 0.6256(4)
C14 C 0.13243(18) 0.19606(18) 0.5520(4)
C15 C 0.16328(19) 0.18021(19) 0.5158(4)
H9 H 0.1522 0.1555 0.4667
C16 C 0.21009(18) 0.20092(19) 0.5524(4)
H10 H 0.2303 0.1896 0.5290
C17 C 0.22723(17) 0.23855(18) 0.6238(4)
H11 H 0.2592 0.2533 0.6465
C18 C 0.19660(17) 0.25413(17) 0.6611(4)
H12 H 0.2080 0.2787 0.7106
C19 C -0.08902(16) 0.24013(17) 0.8149(3)
H13 H -0.0845 0.2508 0.8835
C20 C -0.13434(15) 0.20358(16) 0.7853(3)
H14 H -0.1594 0.1902 0.8338
C21 C -0.14268(15) 0.18671(15) 0.6836(3)
C22 C -0.10323(16) 0.20916(16) 0.6155(3)
H15 H -0.1068 0.1997 0.5460
C23 C -0.05915(16) 0.24519(16) 0.6512(3)
H16 H -0.0334 0.2594 0.6046
N1 N -0.05148(12) 0.26086(12) 0.7501(3)
O1 O 0.01044(10) 0.30035(10) 1.1245(2)
O2 O 0.00454(10) 0.30376(10) 0.9547(2)
O3 O 0.05080(11) 0.27825(11) 0.7432(2)
O4 O 0.11311(11) 0.34883(12) 0.7878(3)
O5 O 0.12857(13) 0.25786(12) 0.9382(3)
H17 H 0.1555 0.2714 0.9112
O6 O 0.08627(14) 0.17652(17) 0.5182(4)
H18 H 0.0798 0.1535 0.4799
Zn1 Zn 0.016727(16) 0.309263(16) 0.80286(4)
C1O C -0.35492(14) 0.03921(15) 0.2993(3)
C2O C -0.38879(15) 0.05806(15) 0.3106(3)
H1O H -0.4025 0.0568 0.3752
C3O C -0.39976(15) 0.07669(15) 0.2300(3)
H2O H -0.3834 0.0784 0.1687
C4O C -0.43345(16) 0.09490(16) 0.2225(4)
C5O C -0.46444(16) 0.09287(16) 0.3013(3)
C6O C -0.49820(19) 0.10783(18) 0.2837(5)
H3O H -0.5188 0.1060 0.3370
C7O C -0.5010(2) 0.12540(19) 0.1866(5)
H4O H -0.5240 0.1347 0.1747
C8O C -0.4701(2) 0.1293(2) 0.1084(5)
H5O H -0.4714 0.1419 0.0440
C9O C -0.43686(19) 0.11429(18) 0.1260(4)
H6O H -0.4159 0.1171 0.0724
C10O C -0.42971(16) 0.02585(16) 0.5838(3)
C11O C -0.46325(16) 0.04112(16) 0.6241(3)
H7O H -0.4963 0.0196 0.6177
C12O C -0.44932(16) 0.08338(17) 0.6689(3)
H8O H -0.4162 0.1044 0.6764
C13O C -0.48207(16) 0.09971(17) 0.7077(4)
C14O C -0.46576(18) 0.13727(18) 0.7813(4)
C15O C -0.49661(19) 0.15312(19) 0.8175(4)
H9O H -0.4855 0.1778 0.8666
C16O C -0.54342(18) 0.13241(19) 0.7809(4)
H10O H -0.5636 0.1437 0.8043
C17O C -0.56056(17) 0.09478(18) 0.7095(4)
H11O H -0.5925 0.0800 0.6868
C18O C -0.52993(17) 0.07920(17) 0.6722(4)
H12O H -0.5413 0.0546 0.6227
C19O C -0.24431(16) 0.09320(17) 0.5184(3)
H13O H -0.2488 0.0825 0.4498
C20O C -0.19899(15) 0.12975(16) 0.5480(3)
H14O H -0.1739 0.1431 0.4995
C21O C -0.19065(15) 0.14662(15) 0.6497(3)
C22O C -0.23010(16) 0.12417(16) 0.7178(3)
H15O H -0.2265 0.1336 0.7873
C23O C -0.27418(16) 0.08814(16) 0.6821(3)
H16O H -0.2999 0.0739 0.7287
N1O N -0.28185(12) 0.07247(12) 0.5832(3)
O1G O 0.03298(10) 0.37676(14) 0.7912(2)
O1O O -0.34377(10) 0.03298(10) 0.2088(2)
O1M O -0.36632(10) -0.04342(14) 0.5422(2)
O2O O -0.33787(10) 0.02957(10) 0.3786(2)
O3O O -0.38413(11) 0.05508(11) 0.5901(2)
O4O O -0.44644(11) -0.01550(12) 0.5455(3)
O5O O -0.46190(13) 0.07547(12) 0.3951(3)
H17O H -0.4888 0.0619 0.4221
O6O O -0.41960(14) 0.15681(17) 0.8151(4)
H18O H -0.4131 0.1798 0.8534
Zn1O Zn -0.350060(16) 0.024070(16) 0.53047(4)
Zn1E Zn -0.040797(23) 0.316606(16) 1.13619(4)
Zn1K Zn -0.292536(23) 0.016727(16) 0.19714(4)
O7 O 0.0000 0.0000 1.0000
O8 O 0.0470(3) 0.9438(3) 0.3848(8)
H19 H 0.0439 0.9635 0.4242
H20 H 0.0694 0.9594 0.3406
O9 O 0.0619(4) 0.1327(3) 0.7785(9)
H21 H 0.0359 0.1221 0.7438
H22 H 0.0691 0.1599 0.8050
H23? H 0.0969 0.1076 0.8016
H24? H 0.1386 0.1493 0.7755
H25? H 0.0809 0.0960 0.9582
H26? H 0.0412 0.1023 0.9582
O10? O 0.1156(8) 0.1369(10) 0.8196(16)
O11? O 0.0680(5) 0.1106(5) 0.9284(11)
loop_
_geom_bond_atom_site_label_1
_geom_bond_atom_site_label_2
_geom_bond_site_symmetry_1
_geom_bond_site_symmetry_2
C1 C2 1_555 1_555
C2 H1 1_555 1_555
C3 C2 1_555 1_555
H2 C3 1_555 1_555
C4 C3 1_555 1_555
C5 C4 1_555 1_555
C6 C5 1_555 1_555
H3 C6 1_555 1_555
C7 C6 1_555 1_555
H4 C7 1_555 1_555
C8 C7 1_555 1_555
H5 C8 1_555 1_555
C9 C4 1_555 1_555
H6 C9 1_555 1_555
C10 C11 1_555 1_555
C11 H7 1_555 1_555
C12 C11 1_555 1_555
H8 C12 1_555 1_555
C13 C12 1_555 1_555
C14 C13 1_555 1_555
C15 C14 1_555 1_555
H9 C15 1_555 1_555
C16 C15 1_555 1_555
H10 C16 1_555 1_555
C17 C16 1_555 1_555
H11 C17 1_555 1_555
C18 C13 1_555 1_555
H12 C18 1_555 1_555
C19 H13 1_555 1_555
C20 C19 1_555 1_555
H14 C20 1_555 1_555
C21 C20 1_555 1_555
C22 C21 1_555 1_555
H15 C22 1_555 1_555
C23 C22 1_555 1_555
H16 C23 1_555 1_555
N1 C19 1_555 1_555
O1 C1 1_555 1_555
O2 C1 1_555 1_555
O3 C10 1_555 1_555
O4 C10 1_555 1_555
O5 C5 1_555 1_555
H17 O5 1_555 1_555
O6 C14 1_555 1_555
H18 O6 1_555 1_555
O8 H19 1_555 1_555
H20 O8 1_555 1_555
O9 H21 1_555 1_555
H22 O9 1_555 1_555
Zn1 N1 1_555 1_555
C1O C2O 1_555 1_555
C2O H1O 1_555 1_555
C3O C2O 1_555 1_555
H2O C3O 1_555 1_555
C4O C3O 1_555 1_555
C5O C4O 1_555 1_555
C6O C5O 1_555 1_555
H3O C6O 1_555 1_555
C7O C6O 1_555 1_555
H4O C7O 1_555 1_555
C8O C7O 1_555 1_555
H5O C8O 1_555 1_555
C9O C4O 1_555 1_555
H6O C9O 1_555 1_555
C10O C11O 1_555 1_555
C11O H7O 1_555 1_555
C12O C11O 1_555 1_555
H8O C12O 1_555 1_555
C13O C12O 1_555 1_555
C14O C13O 1_555 1_555
C15O C14O 1_555 1_555
H9O C15O 1_555 1_555
C16O C15O 1_555 1_555
H10O C16O 1_555 1_555
C17O C16O 1_555 1_555
H11O C17O 1_555 1_555
C18O C13O 1_555 1_555
H12O C18O 1_555 1_555
C19O H13O 1_555 1_555
C20O C19O 1_555 1_555
H14O C20O 1_555 1_555
C21O C21 1_555 1_555
C22O C21O 1_555 1_555
H15O C22O 1_555 1_555
C23O C22O 1_555 1_555
H16O C23O 1_555 1_555
N1O C19O 1_555 1_555
O1G Zn1 1_555 1_555
O1O C1O 1_555 1_555
O1M Zn1O 1_555 1_555
O2O C1O 1_555 1_555
O3O C10O 1_555 1_555
O4O C10O 1_555 1_555
O5O C5O 1_555 1_555
H17O O5O 1_555 1_555
O6O C14O 1_555 1_555
H18O O6O 1_555 1_555
Zn1O N1O 1_555 1_555
Zn1E O1 1_555 1_555
Zn1K O1O 1_555 1_555
C8 C9 1_555 1_555
C17 C18 1_555 1_555
C23 N1 1_555 1_555
O2 Zn1 1_555 1_555
O3 Zn1 1_555 1_555
C8O C9O 1_555 1_555
C17O C18O 1_555 1_555
C20O C21O 1_555 1_555
C23O N1O 1_555 1_555
O2O Zn1O 1_555 1_555
O3O Zn1O 1_555 1_555

#END
