
#######################################################################
#
#                 Cambridge Crystallographic Data Centre
#                                CCDC 
#
#######################################################################
#
# If this CIF has been generated from an entry in the Cambridge 
# Structural Database, then it will include bibliographic, chemical, 
# crystal, experimental, refinement or atomic coordinate data resulting 
# from the CCDC's data processing and validation procedures.
#
#######################################################################

data_LEVYOC
_symmetry_cell_setting           monoclinic
_symmetry_space_group_name_H-M   'C 2/c'
_symmetry_Int_Tables_number      15
_space_group_name_Hall           '-C 2yn'
loop_
_symmetry_equiv_pos_site_id
_symmetry_equiv_pos_as_xyz
1 x,y,z
2 -x,y,1/2-z
3 1/2+x,1/2+y,z
4 1/2-x,1/2+y,1/2-z
5 -x,-y,-z
6 x,-y,1/2+z
7 1/2-x,1/2-y,-z
8 1/2+x,1/2-y,1/2+z
_cell_length_a                   29.956(5)
_cell_length_b                   8.0173(13)
_cell_length_c                   20.629(4)
_cell_angle_alpha                90
_cell_angle_beta                 122.302(5)
_cell_angle_gamma                90
_cell_volume                     4187.66
loop_
_atom_site_label
_atom_site_type_symbol
_atom_site_fract_x
_atom_site_fract_y
_atom_site_fract_z
Co1 Co 0.114584(17) 1.03064(6) 1.10240(3)
Co2 Co 0.014198(17) 0.80783(6) 1.00646(3)
Co3 Co 0.132159(18) 0.75058(6) 1.01317(3)
S1 S 0.09588(4) 0.72372(14) 0.83746(6)
O1 O 0.06200(9) 0.3349(3) 0.60778(14)
O2 O 0.13932(10) 0.2216(3) 0.64189(16)
O3 O 0.30468(9) 0.4633(3) 0.86615(16)
O4 O 0.29357(9) 0.6906(4) 0.91945(16)
O5 O 0.07726(13) 0.8577(4) 0.78245(19)
O6 O 0.13315(11) 0.7838(4) 0.91590(16)
O7 O 0.05489(11) 0.6223(5) 0.83232(18)
O8 O 0.07729(9) 0.9035(3) 0.99661(14)
H1 H 0.0653 0.9771 0.9524
O9 O 0.03664(9) 1.0215(3) 1.07693(14)
H2 H 0.0332 1.0120 1.1214
O10 O 0.14180(12) 1.0858(5) 1.21737(17)
H3 H 0.1236 1.1583 1.2233
N1 N 0.05155(11) 0.3220(4) 1.00395(17)
N2 N 0.10325(11) 0.2642(4) 1.05626(18)
N3 N 0.10835(11) 0.5180(4) 1.01555(18)
N4 N 0.18867(12) 0.3820(4) 1.1054(2)
H4 H 0.2046 0.2973 1.1342
H5 H 0.2067 0.4652 1.1050
N5 N 0.01650(11) 0.5835(4) 0.93721(17)
H6 H -0.0146 0.5293 0.9148
H7 H 0.0207 0.6219 0.8998
C1 C 0.13488(13) 0.3846(4) 1.0603(2)
C2 C 0.05717(13) 0.4717(4) 0.9829(2)
C3 C 0.13808(13) 0.4224(5) 0.7244(2)
C4 C 0.19296(14) 0.4384(5) 0.7665(2)
H8 H 0.2128 0.3831 0.7507
C5 C 0.21799(13) 0.5373(5) 0.8322(2)
C6 C 0.18887(14) 0.6178(5) 0.8566(2)
H9 H 0.2056 0.6832 0.9006
C7 C 0.13430(14) 0.6003(5) 0.8148(2)
C8 C 0.10896(14) 0.5032(5) 0.7488(2)
H10 H 0.0724 0.4927 0.7211
C9 C 0.11091(13) 0.3179(4) 0.6530(2)
C10 C 0.27676(13) 0.5640(5) 0.8758(2)
C11 C 0.1876(3) 1.0173(9) 1.2815(4)
H11 H 0.2005 0.9276 1.2650
H12 H 0.1792 0.9757 1.3174
H13 H 0.2143 1.1020 1.3056
Co1_2 Co 0.114584(17) 0.03064(6) 1.10240(3)
Co1E Co 0.114584(17) -0.03064(6) 0.60240(3)
Co1F Co 0.385416(17) 0.46936(6) 0.89760(3)
Co2D Co -0.014198(17) 0.19217(6) 0.99354(3)
Co2D_2 Co -0.014198(17) 1.19217(6) 0.99354(3)
Co2E Co 0.014198(17) 0.19217(6) 0.50646(3)
Co3F Co 0.367841(18) 0.74942(6) 0.98683(3)
O1E O 0.06200(9) 0.6651(3) 1.10778(14)
O2E O 0.13932(10) 0.7784(3) 1.14189(16)
O3F O 0.19532(9) 1.0367(3) 1.13385(16)
O4F O 0.20643(9) 0.8094(4) 1.08055(16)
O9D O -0.03664(9) 0.9785(3) 0.92307(14)
N1D N -0.05155(11) 0.6780(4) 0.99605(17)
N2_2 N 0.10325(11) 1.2642(4) 1.05626(18)
O11 O 0.0202(3) 0.0528(6) 0.8472(3)
O13 O 0.0000 0.313(2) 0.7500
O12? O 0.0527(12) 0.206(3) 0.8449(13)
loop_
_geom_bond_atom_site_label_1
_geom_bond_atom_site_label_2
_geom_bond_site_symmetry_1
_geom_bond_site_symmetry_2
Co1 O8 1_555 1_555
Co2 O8 1_555 1_555
Co3 O6 1_555 1_555
S1 O5 1_555 1_555
O1 C9 1_555 1_555
O2 C9 1_555 1_555
O3 C10 1_555 1_555
O4 C10 1_555 1_555
O6 S1 1_555 1_555
O7 S1 1_555 1_555
O8 Co3 1_555 1_555
H1 O8 1_555 1_555
O9 Co1 1_555 1_555
H2 O9 1_555 1_555
O10 Co1 1_555 1_555
H3 O10 1_555 1_555
N1 N2 1_555 1_555
N2 C1 1_555 1_555
N3 Co3 1_555 1_555
N4 H4 1_555 1_555
H5 N4 1_555 1_555
N5 Co2 1_555 1_555
H6 N5 1_555 1_555
H7 N5 1_555 1_555
C1 N3 1_555 1_555
C2 N1 1_555 1_555
C3 C4 1_555 1_555
C4 H8 1_555 1_555
C5 C4 1_555 1_555
C6 C5 1_555 1_555
H9 C6 1_555 1_555
C7 S1 1_555 1_555
C8 C3 1_555 1_555
H10 C8 1_555 1_555
C9 C3 1_555 1_555
C10 C5 1_555 1_555
C11 O10 1_555 1_555
H11 C11 1_555 1_555
H12 C11 1_555 1_555
H13 C11 1_555 1_555
Co1_2 N2 1_555 1_555
Co1E O2 1_555 1_555
Co1F O3 1_555 1_555
Co2D N1 1_555 1_555
Co2D_2 O9 1_555 1_555
Co2E O1 1_555 1_555
Co3F O4 1_555 1_555
O1E Co2 1_555 1_555
O2E Co1 1_555 1_555
O3F Co1 1_555 1_555
O4F Co3 1_555 1_555
O9D Co2 1_555 1_555
N1D Co2 1_555 1_555
N2_2 Co1 1_555 1_555
Co2 O9 1_555 1_555
N3 C2 1_555 1_555
N4 C1 1_555 1_555
N5 C2 1_555 1_555
C6 C7 1_555 1_555
C7 C8 1_555 1_555
Co2D_2 O9D 1_555 1_555

#END
