
#######################################################################
#
#                 Cambridge Crystallographic Data Centre
#                                CCDC 
#
#######################################################################
#
# If this CIF has been generated from an entry in the Cambridge 
# Structural Database, then it will include bibliographic, chemical, 
# crystal, experimental, refinement or atomic coordinate data resulting 
# from the CCDC's data processing and validation procedures.
#
#######################################################################

data_LIFSEA
_symmetry_cell_setting           monoclinic
_symmetry_space_group_name_H-M   'C 2/c'
_symmetry_Int_Tables_number      15
_space_group_name_Hall           '-C 2yn'
loop_
_symmetry_equiv_pos_site_id
_symmetry_equiv_pos_as_xyz
1 x,y,z
2 -x,y,1/2-z
3 1/2+x,1/2+y,z
4 1/2-x,1/2+y,1/2-z
5 -x,-y,-z
6 x,-y,1/2+z
7 1/2-x,1/2-y,-z
8 1/2+x,1/2-y,1/2+z
_cell_length_a                   22.028(6)
_cell_length_b                   12.607(3)
_cell_length_c                   23.179(6)
_cell_angle_alpha                90
_cell_angle_beta                 103.760(5)
_cell_angle_gamma                90
_cell_volume                     6252.23
loop_
_atom_site_label
_atom_site_type_symbol
_atom_site_fract_x
_atom_site_fract_y
_atom_site_fract_z
Cd1 Cd 0.5000 0.400808(18) 0.2500
F1 F 0.5000 0.58244(15) 0.2500
O1 O 0.59944(8) 0.38252(16) 0.24409(10)
N1 N 0.5000 1.2110(2) 0.2500
Cd2 Cd 0.597525(8) 0.667749(13) 0.270600(8)
C1 C 0.64994(11) 0.4311(2) 0.25909(11)
O2 O 0.65759(9) 0.52158(15) 0.28069(10)
O3 O 0.55083(9) 0.82607(14) 0.27125(10)
N2 N 0.81147(10) 0.26637(18) 0.23330(10)
C2 C 0.70679(11) 0.3728(2) 0.25005(11)
C3 C 0.5000 0.8706(3) 0.2500
C4 C 0.70129(12) 0.2764(2) 0.22155(13)
C5 C 0.76581(13) 0.4153(2) 0.27009(16)
C6 C 0.5000 0.9901(3) 0.2500
H1 H 0.6623 0.2452 0.2078
C7 C 0.75467(12) 0.2266(2) 0.21371(13)
C8 C 0.81626(13) 0.3597(3) 0.26114(17)
H2 H 0.7712 0.4805 0.2893
C9 C 0.55313(12) 1.0464(2) 0.27673(14)
H3 H 0.7505 0.1620 0.1937
H4 H 0.8559 0.3886 0.2752
H5 H 0.5896 1.0111 0.2953
C10 C 0.55113(13) 1.1554(2) 0.27542(14)
H6 H 0.5873 1.1925 0.2932
N3 N 0.52603(12) 0.38746(19) 0.35514(10)
C11 C 0.58195(15) 0.3553(3) 0.38701(13)
C12 C 0.48211(15) 0.4032(3) 0.38527(13)
H7 H 0.6131 0.3425 0.3670
C13 C 0.59608(15) 0.3400(3) 0.44738(14)
C14 C 0.49217(15) 0.3892(3) 0.44546(14)
H8 H 0.4426 0.4248 0.3643
H9 H 0.6359 0.3181 0.4672
C15 C 0.55048(14) 0.3574(2) 0.47841(13)
H10 H 0.4599 0.4009 0.4642
C16 C 0.56288(14) 0.3453(3) 0.54345(13)
C17 C 0.62066(14) 0.3718(3) 0.58020(13)
C18 C 0.51749(15) 0.3102(3) 0.57101(14)
H11 H 0.6534 0.3932 0.5639
C19 C 0.62876(14) 0.3658(3) 0.64071(14)
C20 C 0.52975(14) 0.3056(3) 0.63172(14)
H12 H 0.4785 0.2897 0.5483
N4 N 0.58441(11) 0.3347(2) 0.66716(11)
H13 H 0.6675 0.3845 0.6646
H14 H 0.4985 0.2810 0.6492
N5 N 0.62946(11) 0.68454(19) 0.37386(11)
C21 C 0.65240(17) 0.6033(3) 0.40887(14)
C22 C 0.62897(15) 0.7790(3) 0.40022(14)
H15 H 0.6554 0.5377 0.3914
C23 C 0.6719(2) 0.6114(3) 0.46968(16)
C24 C 0.64847(18) 0.7926(3) 0.46079(16)
H16 H 0.6149 0.8378 0.3766
H17 H 0.6867 0.5516 0.4921
C25 C 0.66978(17) 0.7070(3) 0.49751(15)
H18 H 0.6473 0.8597 0.4771
C26 C 0.6899(2) 0.7178(5) 0.56396(17)
H19 H 0.7017 0.7900 0.5741
H20 H 0.7250 0.6720 0.5790
H21 H 0.6560 0.6983 0.5812
O3A O 0.44917(9) 0.82607(14) 0.22875(10)
C9A C 0.44687(12) 1.0464(2) 0.22327(14)
H5A H 0.4104 1.0111 0.2047
C10A C 0.44887(13) 1.1554(2) 0.22458(14)
H6A H 0.4127 1.1925 0.2068
O1A O 0.40056(8) 0.38252(16) 0.25591(10)
Cd2A Cd 0.402475(8) 0.667749(13) 0.229400(8)
C1A C 0.35006(11) 0.4311(2) 0.24091(11)
O2A O 0.34241(9) 0.52158(15) 0.21931(10)
N2A N 0.18853(10) 0.26637(18) 0.26670(10)
C2A C 0.29321(11) 0.3728(2) 0.24995(11)
C4A C 0.29871(12) 0.2764(2) 0.27845(13)
C5A C 0.23419(13) 0.4153(2) 0.22991(16)
H1A H 0.3377 0.2452 0.2922
C7A C 0.24533(12) 0.2266(2) 0.28629(13)
C8A C 0.18374(13) 0.3597(3) 0.23886(17)
H2A H 0.2288 0.4805 0.2107
H3A H 0.2495 0.1620 0.3063
H4A H 0.1441 0.3886 0.2248
N3A N 0.47397(12) 0.38746(19) 0.14486(10)
C11A C 0.41805(15) 0.3553(3) 0.11299(13)
C12A C 0.51789(15) 0.4032(3) 0.11473(13)
H7A H 0.3869 0.3425 0.1330
C13A C 0.40392(15) 0.3400(3) 0.05262(14)
C14A C 0.50783(15) 0.3892(3) 0.05454(14)
H8A H 0.5574 0.4248 0.1357
H9A H 0.3641 0.3181 0.0328
C15A C 0.44952(14) 0.3574(2) 0.02159(13)
H10A H 0.5401 0.4009 0.0358
C16A C 0.43712(14) 0.3453(3) -0.04345(13)
C17A C 0.37934(14) 0.3718(3) -0.08020(13)
C18A C 0.48251(15) 0.3102(3) -0.07101(14)
H11A H 0.3466 0.3932 -0.0639
C19A C 0.37124(14) 0.3658(3) -0.14071(14)
C20A C 0.47025(14) 0.3056(3) -0.13172(14)
H12A H 0.5215 0.2897 -0.0483
N4A N 0.41559(11) 0.3347(2) -0.16716(11)
H13A H 0.3325 0.3845 -0.1646
H14A H 0.5015 0.2810 -0.1492
N5A N 0.37054(11) 0.68454(19) 0.12614(11)
C21A C 0.34760(17) 0.6033(3) 0.09113(14)
C22A C 0.37103(15) 0.7790(3) 0.09978(14)
H15A H 0.3446 0.5377 0.1086
C23A C 0.3281(2) 0.6114(3) 0.03032(16)
C24A C 0.35153(18) 0.7926(3) 0.03921(16)
H16A H 0.3851 0.8378 0.1234
H17A H 0.3133 0.5516 0.0079
C25A C 0.33022(17) 0.7070(3) 0.00249(15)
H18A H 0.3527 0.8597 0.0229
C26A C 0.3101(2) 0.7178(5) -0.06396(17)
H19A H 0.2983 0.7900 -0.0741
H20A H 0.2750 0.6720 -0.0790
H21A H 0.3440 0.6983 -0.0812
Cd1_2 Cd 0.5000 1.400808(18) 0.2500
N1_2 N 0.5000 0.2110(2) 0.2500
Cd2B Cd 0.097525(8) 0.167749(13) 0.270600(8)
Cd2C Cd 0.902475(8) 0.167749(13) 0.229400(8)
Cd2D Cd 0.402475(8) 0.332251(13) -0.270600(8)
Cd2E Cd 0.597525(8) 0.332251(13) 0.770600(8)
N2B N 0.31147(10) 0.76637(18) 0.23330(10)
N2C N 0.68853(10) 0.76637(18) 0.26670(10)
N4D N 0.41559(11) 0.6653(2) 0.33284(11)
N4E N 0.58441(11) 0.6653(2) 0.16716(11)
N6 N 0.3850(2) 0.0590(4) 0.3673(2)
C27 C 0.3730(3) -0.0024(5) 0.4089(3)
H22 H 0.3331 -0.0308 0.4029
C28 C 0.4166(2) -0.0281(4) 0.4621(2)
H23 H 0.4052 -0.0718 0.4900
C29 C 0.47610(19) 0.0121(3) 0.47214(18)
C30 C 0.4889(3) 0.0747(5) 0.4282(2)
H24 H 0.5288 0.1022 0.4320
C31 C 0.4425(3) 0.0968(5) 0.3782(2)
H25 H 0.4525 0.1418 0.3500
N6D N 0.6150(2) -0.0590(4) 0.6327(2)
C27D C 0.6270(3) 0.0024(5) 0.5911(3)
H22D H 0.6669 0.0308 0.5971
C28D C 0.5834(2) 0.0281(4) 0.5379(2)
H23D H 0.5948 0.0718 0.5100
C29D C 0.52390(19) -0.0121(3) 0.52786(18)
C30D C 0.5111(3) -0.0747(5) 0.5718(2)
H24D H 0.4712 -0.1022 0.5680
C31D C 0.5575(3) -0.0968(5) 0.6218(2)
H25D H 0.5475 -0.1418 0.6500
B1 B 0.70074(19) 0.0916(4) 0.4059(2)
F2 F 0.6467(3) 0.0469(11) 0.4085(5)
F3 F 0.6890(6) 0.1723(8) 0.3677(5)
F4 F 0.7300(7) 0.1305(12) 0.4593(4)
F5 F 0.7382(6) 0.0210(9) 0.3897(6)
O4 O 0.7436(3) 0.3725(5) 0.4173(3)
H26 H 0.7218 0.3162 0.4125
H27 H 0.7496 0.3720 0.4549
F6? F 0.6447(3) 0.1034(15) 0.4157(5)
F7? F 0.7108(7) 0.1683(10) 0.3690(5)
F8? F 0.7467(3) 0.0963(11) 0.4547(3)
F9? F 0.7037(9) -0.0019(8) 0.3785(5)
loop_
_geom_bond_atom_site_label_1
_geom_bond_atom_site_label_2
_geom_bond_site_symmetry_1
_geom_bond_site_symmetry_2
Cd1 F1 1_555 1_555
F1 Cd2 1_555 1_555
O1 Cd1 1_555 1_555
N1 C10 1_555 1_555
Cd2 O2 1_555 1_555
C1 O1 1_555 1_555
O2 C1 1_555 1_555
O3 Cd2 1_555 1_555
N2 C7 1_555 1_555
C2 C1 1_555 1_555
C3 O3 1_555 1_555
C4 C2 1_555 1_555
C5 C2 1_555 1_555
C6 C3 1_555 1_555
H1 C4 1_555 1_555
C7 C4 1_555 1_555
C8 N2 1_555 1_555
H2 C5 1_555 1_555
C9 C6 1_555 1_555
H3 C7 1_555 1_555
H4 C8 1_555 1_555
H5 C9 1_555 1_555
C10 C9 1_555 1_555
H6 C10 1_555 1_555
N3 Cd1 1_555 1_555
C11 N3 1_555 1_555
C12 N3 1_555 1_555
H7 C11 1_555 1_555
C13 C11 1_555 1_555
C14 C12 1_555 1_555
H8 C12 1_555 1_555
H9 C13 1_555 1_555
C15 C13 1_555 1_555
H10 C14 1_555 1_555
C16 C15 1_555 1_555
C17 C16 1_555 1_555
C18 C16 1_555 1_555
H11 C17 1_555 1_555
C19 C17 1_555 1_555
C20 C18 1_555 1_555
H12 C18 1_555 1_555
N4 C19 1_555 1_555
H13 C19 1_555 1_555
H14 C20 1_555 1_555
N5 Cd2 1_555 1_555
C21 N5 1_555 1_555
C22 N5 1_555 1_555
H15 C21 1_555 1_555
C23 C21 1_555 1_555
C24 C22 1_555 1_555
H16 C22 1_555 1_555
H17 C23 1_555 1_555
C25 C23 1_555 1_555
H18 C24 1_555 1_555
C26 C25 1_555 1_555
H19 C26 1_555 1_555
H20 C26 1_555 1_555
H21 C26 1_555 1_555
N6 C27 1_555 1_555
C27 H22 1_555 1_555
C28 C27 1_555 1_555
H23 C28 1_555 1_555
C29 C28 1_555 1_555
C30 C29 1_555 1_555
H24 C30 1_555 1_555
C31 N6 1_555 1_555
H25 C31 1_555 1_555
B1 F2 1_555 1_555
F3 B1 1_555 1_555
F4 B1 1_555 1_555
F5 B1 1_555 1_555
O4 H26 1_555 1_555
H27 O4 1_555 1_555
O3A C3 1_555 1_555
C9A C6 1_555 1_555
H5A C9A 1_555 1_555
C10A N1 1_555 1_555
H6A C10A 1_555 1_555
O1A Cd1 1_555 1_555
Cd2A F1 1_555 1_555
C1A O1A 1_555 1_555
O2A Cd2A 1_555 1_555
N2A C7A 1_555 1_555
C2A C1A 1_555 1_555
C4A C2A 1_555 1_555
C5A C2A 1_555 1_555
H1A C4A 1_555 1_555
C7A C4A 1_555 1_555
C8A N2A 1_555 1_555
H2A C5A 1_555 1_555
H3A C7A 1_555 1_555
H4A C8A 1_555 1_555
N3A Cd1 1_555 1_555
C11A N3A 1_555 1_555
C12A N3A 1_555 1_555
H7A C11A 1_555 1_555
C13A C11A 1_555 1_555
C14A C12A 1_555 1_555
H8A C12A 1_555 1_555
H9A C13A 1_555 1_555
C15A C13A 1_555 1_555
H10A C14A 1_555 1_555
C16A C15A 1_555 1_555
C17A C16A 1_555 1_555
C18A C16A 1_555 1_555
H11A C17A 1_555 1_555
C19A C17A 1_555 1_555
C20A C18A 1_555 1_555
H12A C18A 1_555 1_555
N4A C19A 1_555 1_555
H13A C19A 1_555 1_555
H14A C20A 1_555 1_555
N5A Cd2A 1_555 1_555
C21A N5A 1_555 1_555
C22A N5A 1_555 1_555
H15A C21A 1_555 1_555
C23A C21A 1_555 1_555
C24A C22A 1_555 1_555
H16A C22A 1_555 1_555
H17A C23A 1_555 1_555
C25A C23A 1_555 1_555
H18A C24A 1_555 1_555
C26A C25A 1_555 1_555
H19A C26A 1_555 1_555
H20A C26A 1_555 1_555
H21A C26A 1_555 1_555
Cd1_2 N1 1_555 1_555
N1_2 Cd1 1_555 1_555
Cd2B N2A 1_555 1_555
Cd2C N2 1_555 1_555
Cd2D N4A 1_555 1_555
Cd2E N4 1_555 1_555
N2B Cd2A 1_555 1_555
N2C Cd2 1_555 1_555
N4D Cd2A 1_555 1_555
N4E Cd2 1_555 1_555
N6D C27D 1_555 1_555
C27D H22D 1_555 1_555
C28D C27D 1_555 1_555
H23D C28D 1_555 1_555
C29D C29 1_555 1_555
C30D C29D 1_555 1_555
H24D C30D 1_555 1_555
C31D N6D 1_555 1_555
H25D C31D 1_555 1_555
C5 C8 1_555 1_555
C14 C15 1_555 1_555
C20 N4 1_555 1_555
C24 C25 1_555 1_555
C30 C31 1_555 1_555
O3A Cd2A 1_555 1_555
C9A C10A 1_555 1_555
C1A O2A 1_555 1_555
C5A C8A 1_555 1_555
C14A C15A 1_555 1_555
C20A N4A 1_555 1_555
C24A C25A 1_555 1_555
C28D C29D 1_555 1_555
C30D C31D 1_555 1_555

#END
