
#######################################################################
#
#                 Cambridge Crystallographic Data Centre
#                                CCDC 
#
#######################################################################
#
# If this CIF has been generated from an entry in the Cambridge 
# Structural Database, then it will include bibliographic, chemical, 
# crystal, experimental, refinement or atomic coordinate data resulting 
# from the CCDC's data processing and validation procedures.
#
#######################################################################

data_LIHFAK
_symmetry_cell_setting           orthorhombic
_symmetry_space_group_name_H-M   'P n n m'
_symmetry_Int_Tables_number      58
_space_group_name_Hall           '-P 2 2n'
loop_
_symmetry_equiv_pos_site_id
_symmetry_equiv_pos_as_xyz
1 x,y,z
2 -x,-y,z
3 1/2-x,1/2+y,1/2-z
4 1/2+x,1/2-y,1/2-z
5 -x,-y,-z
6 x,y,-z
7 1/2+x,1/2-y,1/2+z
8 1/2-x,1/2+y,1/2+z
_cell_length_a                   30.317(12)
_cell_length_b                   19.411(8)
_cell_length_c                   24.161(9)
_cell_angle_alpha                90
_cell_angle_beta                 90
_cell_angle_gamma                90
_cell_volume                     14218.3
loop_
_atom_site_label
_atom_site_type_symbol
_atom_site_fract_x
_atom_site_fract_y
_atom_site_fract_z
Zn1 Zn 0.1076(9) 0.3038(12) 0.0659(12)
Zn2 Zn 0.0574(12) 0.1865(18) 0.0000
Zn3 Zn 0.1603(12) 0.1882(19) 0.0000
O1 O 0.108(7) 0.248(9) 0.0000
O2 O 0.056(4) 0.286(8) 0.111(6)
O3 O 0.022(5) 0.204(7) 0.063(6)
O4 O 0.071(7) 0.090(8) 0.0000
O5 O 0.147(7) 0.093(8) 0.0000
O6 O -0.305(5) 0.293(8) 0.438(6)
O7 O -0.341(4) 0.209(8) 0.390(7)
O8 O 0.107(8) -0.603(6) 0.043(3)
C1 C 0.023(5) 0.245(12) 0.106(8)
C2 C -0.015(4) 0.250(8) 0.142(6)
C3 C -0.017(4) 0.302(8) 0.181(7)
H1 H 0.0063 0.3346 0.1837
C4 C -0.054(4) 0.308(7) 0.215(7)
H2 H -0.0550 0.3434 0.2422
C5 C -0.088(3) 0.260(7) 0.211(6)
C6 C -0.086(4) 0.208(8) 0.172(7)
H3 H -0.1092 0.1757 0.1690
C7 C -0.049(5) 0.203(8) 0.137(7)
H4 H -0.0480 0.1669 0.1105
C8 C -0.126(5) 0.266(10) 0.247(8)
H5 H -0.1244 0.3026 0.2731
C9 C 0.110(11) 0.057(6) 0.0000
C10 C 0.110(7) -0.016(6) 0.0000
C11 C 0.070(6) -0.053(8) 0.0000
H6 H 0.0431 -0.0292 0.0000
C12 C 0.071(6) -0.126(8) 0.0000
H7 H 0.0444 -0.1510 0.0000
C13 C 0.112(6) -0.161(6) 0.0000
C14 C 0.152(5) -0.124(8) 0.0000
H8 H 0.1790 -0.1477 0.0000
C15 C 0.151(6) -0.051(8) 0.0000
H9 H 0.1778 -0.0259 0.0000
C16 C 0.113(9) -0.234(6) 0.0000
H10 H 0.1409 -0.2554 0.0000
C17 C -0.307(5) 0.251(11) 0.395(8)
C18 C -0.270(4) 0.245(8) 0.358(6)
C19 C -0.235(5) 0.290(8) 0.364(6)
H11 H -0.2349 0.3247 0.3914
C20 C -0.199(4) 0.284(7) 0.328(7)
H12 H -0.1746 0.3152 0.3313
C21 C -0.199(3) 0.234(7) 0.287(6)
C22 C -0.234(4) 0.189(7) 0.282(7)
H13 H -0.2339 0.1545 0.2542
C23 C -0.270(4) 0.195(8) 0.318(7)
H14 H -0.2941 0.1640 0.3143
C24 C -0.161(5) 0.228(10) 0.250(8)
H15 H -0.1632 0.1916 0.2239
C25 C 0.105(12) -0.565(7) 0.0000
C26 C 0.099(9) -0.494(6) 0.0000
C27 C 0.135(7) -0.448(9) 0.0000
H16 H 0.1641 -0.4661 0.0000
C28 C 0.129(6) -0.376(9) 0.0000
H17 H 0.1532 -0.3460 0.0000
C29 C 0.085(6) -0.350(6) 0.0000
C30 C 0.049(6) -0.394(8) 0.0000
H18 H 0.0201 -0.3755 0.0000
C31 C 0.055(8) -0.466(8) 0.0000
H19 H 0.0301 -0.4962 0.0000
C32 C 0.079(8) -0.277(6) 0.0000
H20 H 0.0497 -0.2584 0.0000
Zn1E Zn 0.1076(9) 0.3038(12) -0.0659(12)
Zn1C Zn -0.3924(9) 0.1962(12) 0.4341(12)
Zn1_2 Zn 0.1076(9) -0.6962(12) 0.0659(12)
Zn1E_2 Zn 0.1076(9) -0.6962(12) -0.0659(12)
Zn1F Zn -0.3924(9) 0.1962(12) -0.4341(12)
Zn3F Zn -0.3397(12) 0.3118(19) 0.5000
Zn3F_2 Zn -0.3397(12) 0.3118(19) -0.5000
O2E O 0.056(4) 0.286(8) -0.111(6)
O3E O 0.022(5) 0.204(7) -0.063(6)
O6E O -0.305(5) 0.293(8) -0.438(6)
O6F O 0.195(5) 0.207(8) -0.062(6)
O6C O 0.195(5) 0.207(8) 0.062(6)
O7E O -0.341(4) 0.209(8) -0.390(7)
O7C O 0.159(4) 0.291(8) 0.110(7)
O7F O 0.159(4) 0.291(8) -0.110(7)
O8E O 0.107(8) -0.603(6) -0.043(3)
O8_2 O 0.107(8) 0.397(6) 0.043(3)
O8E_2 O 0.107(8) 0.397(6) -0.043(3)
C1E C 0.023(5) 0.245(12) -0.106(8)
C2E C -0.015(4) 0.250(8) -0.142(6)
C3E C -0.017(4) 0.302(8) -0.181(7)
H1E H 0.0063 0.3346 -0.1837
C4E C -0.054(4) 0.308(7) -0.215(7)
H2E H -0.0550 0.3434 -0.2422
C5E C -0.088(3) 0.260(7) -0.211(6)
C6E C -0.086(4) 0.208(8) -0.172(7)
H3E H -0.1092 0.1757 -0.1690
C7E C -0.049(5) 0.203(8) -0.137(7)
H4E H -0.0480 0.1669 -0.1105
C8E C -0.126(5) 0.266(10) -0.247(8)
H5E H -0.1244 0.3026 -0.2731
C17E C -0.307(5) 0.251(11) -0.395(8)
C18E C -0.270(4) 0.245(8) -0.358(6)
C19E C -0.235(5) 0.290(8) -0.364(6)
H11E H -0.2349 0.3247 -0.3914
C20E C -0.199(4) 0.284(7) -0.328(7)
H12E H -0.1746 0.3152 -0.3313
C21E C -0.199(3) 0.234(7) -0.287(6)
C22E C -0.234(4) 0.189(7) -0.282(7)
H13E H -0.2339 0.1545 -0.2542
C23E C -0.270(4) 0.195(8) -0.318(7)
H14E H -0.2941 0.1640 -0.3143
C24E C -0.161(5) 0.228(10) -0.250(8)
H15E H -0.1632 0.1916 -0.2239
loop_
_geom_bond_atom_site_label_1
_geom_bond_atom_site_label_2
_geom_bond_site_symmetry_1
_geom_bond_site_symmetry_2
Zn1 O1 1_555 1_555
Zn2 O1 1_555 1_555
Zn3 O1 1_555 1_555
O1 Zn1E 1_555 1_555
O2 Zn1 1_555 1_555
O3 Zn2 1_555 1_555
O4 Zn2 1_555 1_555
O5 Zn3 1_555 1_555
O6 C17 1_555 1_555
O7 C17 1_555 1_555
O8 C25 1_555 1_555
C1 O2 1_555 1_555
C2 C1 1_555 1_555
C3 C2 1_555 1_555
H1 C3 1_555 1_555
C4 C3 1_555 1_555
H2 C4 1_555 1_555
C5 C4 1_555 1_555
C6 C5 1_555 1_555
H3 C6 1_555 1_555
C7 C2 1_555 1_555
H4 C7 1_555 1_555
C8 C5 1_555 1_555
H5 C8 1_555 1_555
C9 O4 1_555 1_555
C10 C9 1_555 1_555
C11 C10 1_555 1_555
H6 C11 1_555 1_555
C12 C11 1_555 1_555
H7 C12 1_555 1_555
C13 C12 1_555 1_555
C14 C13 1_555 1_555
H8 C14 1_555 1_555
C15 C10 1_555 1_555
H9 C15 1_555 1_555
C16 C13 1_555 1_555
H10 C16 1_555 1_555
C17 C18 1_555 1_555
C18 C19 1_555 1_555
C19 H11 1_555 1_555
C20 C19 1_555 1_555
H12 C20 1_555 1_555
C21 C20 1_555 1_555
C22 C21 1_555 1_555
H13 C22 1_555 1_555
C23 C18 1_555 1_555
H14 C23 1_555 1_555
C24 C8 1_555 1_555
H15 C24 1_555 1_555
C25 C26 1_555 1_555
C26 C27 1_555 1_555
C27 H16 1_555 1_555
C28 C27 1_555 1_555
H17 C28 1_555 1_555
C29 C28 1_555 1_555
C30 C29 1_555 1_555
H18 C30 1_555 1_555
C31 C26 1_555 1_555
H19 C31 1_555 1_555
C32 C16 1_555 1_555
H20 C32 1_555 1_555
Zn1E O2E 1_555 1_555
Zn1C O7 1_555 1_555
Zn1_2 O8 1_555 1_555
Zn1E_2 O8E 1_555 1_555
Zn1F O7E 1_555 1_555
Zn3F O6 1_555 1_555
Zn3F_2 O6E 1_555 1_555
O2E C1E 1_555 1_555
O3E Zn2 1_555 1_555
O6E C17E 1_555 1_555
O6F Zn3 1_555 1_555
O6C Zn3 1_555 1_555
O7E C17E 1_555 1_555
O7C Zn1 1_555 1_555
O7F Zn1E 1_555 1_555
O8E C25 1_555 1_555
O8_2 Zn1 1_555 1_555
O8E_2 Zn1E 1_555 1_555
C1E O3E 1_555 1_555
C2E C1E 1_555 1_555
C3E C2E 1_555 1_555
H1E C3E 1_555 1_555
C4E C3E 1_555 1_555
H2E C4E 1_555 1_555
C5E C4E 1_555 1_555
C6E C5E 1_555 1_555
H3E C6E 1_555 1_555
C7E C2E 1_555 1_555
H4E C7E 1_555 1_555
C8E C5E 1_555 1_555
H5E C8E 1_555 1_555
C17E C18E 1_555 1_555
C18E C19E 1_555 1_555
C19E H11E 1_555 1_555
C20E C19E 1_555 1_555
H12E C20E 1_555 1_555
C21E C20E 1_555 1_555
C22E C21E 1_555 1_555
H13E C22E 1_555 1_555
C23E C18E 1_555 1_555
H14E C23E 1_555 1_555
C24E C8E 1_555 1_555
H15E C24E 1_555 1_555
O3 C1 1_555 1_555
O5 C9 1_555 1_555
C6 C7 1_555 1_555
C14 C15 1_555 1_555
C21 C24 1_555 1_555
C22 C23 1_555 1_555
C29 C32 1_555 1_555
C30 C31 1_555 1_555
C6E C7E 1_555 1_555
C21E C24E 1_555 1_555
C22E C23E 1_555 1_555

#END
