
#######################################################################
#
#                 Cambridge Crystallographic Data Centre
#                                CCDC 
#
#######################################################################
#
# If this CIF has been generated from an entry in the Cambridge 
# Structural Database, then it will include bibliographic, chemical, 
# crystal, experimental, refinement or atomic coordinate data resulting 
# from the CCDC's data processing and validation procedures.
#
#######################################################################

data_LIKDOA
_symmetry_cell_setting           cubic
_symmetry_space_group_name_H-M   'F m -3 m'
_symmetry_Int_Tables_number      225
_space_group_name_Hall           '-F 4 2 3'
loop_
_symmetry_equiv_pos_site_id
_symmetry_equiv_pos_as_xyz
1 x,y,z
2 -x,-y,z
3 -x,y,-z
4 x,-y,-z
5 z,x,y
6 z,-x,-y
7 -z,-x,y
8 -z,x,-y
9 y,z,x
10 -y,z,-x
11 y,-z,-x
12 -y,-z,x
13 y,x,-z
14 -y,-x,-z
15 y,-x,z
16 -y,x,z
17 x,z,-y
18 -x,z,y
19 -x,-z,-y
20 x,-z,y
21 z,y,-x
22 z,-y,x
23 -z,y,x
24 -z,-y,-x
25 x,1/2+y,1/2+z
26 -x,1/2-y,1/2+z
27 -x,1/2+y,1/2-z
28 x,1/2-y,1/2-z
29 z,1/2+x,1/2+y
30 z,1/2-x,1/2-y
31 -z,1/2-x,1/2+y
32 -z,1/2+x,1/2-y
33 y,1/2+z,1/2+x
34 -y,1/2+z,1/2-x
35 y,1/2-z,1/2-x
36 -y,1/2-z,1/2+x
37 y,1/2+x,1/2-z
38 -y,1/2-x,1/2-z
39 y,1/2-x,1/2+z
40 -y,1/2+x,1/2+z
41 x,1/2+z,1/2-y
42 -x,1/2+z,1/2+y
43 -x,1/2-z,1/2-y
44 x,1/2-z,1/2+y
45 z,1/2+y,1/2-x
46 z,1/2-y,1/2+x
47 -z,1/2+y,1/2+x
48 -z,1/2-y,1/2-x
49 1/2+x,y,1/2+z
50 1/2-x,-y,1/2+z
51 1/2-x,y,1/2-z
52 1/2+x,-y,1/2-z
53 1/2+z,x,1/2+y
54 1/2+z,-x,1/2-y
55 1/2-z,-x,1/2+y
56 1/2-z,x,1/2-y
57 1/2+y,z,1/2+x
58 1/2-y,z,1/2-x
59 1/2+y,-z,1/2-x
60 1/2-y,-z,1/2+x
61 1/2+y,x,1/2-z
62 1/2-y,-x,1/2-z
63 1/2+y,-x,1/2+z
64 1/2-y,x,1/2+z
65 1/2+x,z,1/2-y
66 1/2-x,z,1/2+y
67 1/2-x,-z,1/2-y
68 1/2+x,-z,1/2+y
69 1/2+z,y,1/2-x
70 1/2+z,-y,1/2+x
71 1/2-z,y,1/2+x
72 1/2-z,-y,1/2-x
73 1/2+x,1/2+y,z
74 1/2-x,1/2-y,z
75 1/2-x,1/2+y,-z
76 1/2+x,1/2-y,-z
77 1/2+z,1/2+x,y
78 1/2+z,1/2-x,-y
79 1/2-z,1/2-x,y
80 1/2-z,1/2+x,-y
81 1/2+y,1/2+z,x
82 1/2-y,1/2+z,-x
83 1/2+y,1/2-z,-x
84 1/2-y,1/2-z,x
85 1/2+y,1/2+x,-z
86 1/2-y,1/2-x,-z
87 1/2+y,1/2-x,z
88 1/2-y,1/2+x,z
89 1/2+x,1/2+z,-y
90 1/2-x,1/2+z,y
91 1/2-x,1/2-z,-y
92 1/2+x,1/2-z,y
93 1/2+z,1/2+y,-x
94 1/2+z,1/2-y,x
95 1/2-z,1/2+y,x
96 1/2-z,1/2-y,-x
97 -x,-y,-z
98 x,y,-z
99 x,-y,z
100 -x,y,z
101 -z,-x,-y
102 -z,x,y
103 z,x,-y
104 z,-x,y
105 -y,-z,-x
106 y,-z,x
107 -y,z,x
108 y,z,-x
109 -y,-x,z
110 y,x,z
111 -y,x,-z
112 y,-x,-z
113 -x,-z,y
114 x,-z,-y
115 x,z,y
116 -x,z,-y
117 -z,-y,x
118 -z,y,-x
119 z,-y,-x
120 z,y,x
121 -x,1/2-y,1/2-z
122 x,1/2+y,1/2-z
123 x,1/2-y,1/2+z
124 -x,1/2+y,1/2+z
125 -z,1/2-x,1/2-y
126 -z,1/2+x,1/2+y
127 z,1/2+x,1/2-y
128 z,1/2-x,1/2+y
129 -y,1/2-z,1/2-x
130 y,1/2-z,1/2+x
131 -y,1/2+z,1/2+x
132 y,1/2+z,1/2-x
133 -y,1/2-x,1/2+z
134 y,1/2+x,1/2+z
135 -y,1/2+x,1/2-z
136 y,1/2-x,1/2-z
137 -x,1/2-z,1/2+y
138 x,1/2-z,1/2-y
139 x,1/2+z,1/2+y
140 -x,1/2+z,1/2-y
141 -z,1/2-y,1/2+x
142 -z,1/2+y,1/2-x
143 z,1/2-y,1/2-x
144 z,1/2+y,1/2+x
145 1/2-x,-y,1/2-z
146 1/2+x,y,1/2-z
147 1/2+x,-y,1/2+z
148 1/2-x,y,1/2+z
149 1/2-z,-x,1/2-y
150 1/2-z,x,1/2+y
151 1/2+z,x,1/2-y
152 1/2+z,-x,1/2+y
153 1/2-y,-z,1/2-x
154 1/2+y,-z,1/2+x
155 1/2-y,z,1/2+x
156 1/2+y,z,1/2-x
157 1/2-y,-x,1/2+z
158 1/2+y,x,1/2+z
159 1/2-y,x,1/2-z
160 1/2+y,-x,1/2-z
161 1/2-x,-z,1/2+y
162 1/2+x,-z,1/2-y
163 1/2+x,z,1/2+y
164 1/2-x,z,1/2-y
165 1/2-z,-y,1/2+x
166 1/2-z,y,1/2-x
167 1/2+z,-y,1/2-x
168 1/2+z,y,1/2+x
169 1/2-x,1/2-y,-z
170 1/2+x,1/2+y,-z
171 1/2+x,1/2-y,z
172 1/2-x,1/2+y,z
173 1/2-z,1/2-x,-y
174 1/2-z,1/2+x,y
175 1/2+z,1/2+x,-y
176 1/2+z,1/2-x,y
177 1/2-y,1/2-z,-x
178 1/2+y,1/2-z,x
179 1/2-y,1/2+z,x
180 1/2+y,1/2+z,-x
181 1/2-y,1/2-x,z
182 1/2+y,1/2+x,z
183 1/2-y,1/2+x,-z
184 1/2+y,1/2-x,-z
185 1/2-x,1/2-z,y
186 1/2+x,1/2-z,-y
187 1/2+x,1/2+z,y
188 1/2-x,1/2+z,-y
189 1/2-z,1/2-y,x
190 1/2-z,1/2+y,-x
191 1/2+z,1/2-y,-x
192 1/2+z,1/2+y,x
_cell_length_a                   33.6167(7)
_cell_length_b                   33.6167(7)
_cell_length_c                   33.6167(7)
_cell_angle_alpha                90
_cell_angle_beta                 90
_cell_angle_gamma                90
_cell_volume                     37989.6
loop_
_atom_site_label
_atom_site_type_symbol
_atom_site_fract_x
_atom_site_fract_y
_atom_site_fract_z
Cu1 Cu 0.0000 0.27616(4) 0.22384(4)
O1 O -0.0394(2) 0.24466(19) 0.1999(2)
O2 O 0.0000 0.32243(11) 0.17757(11)
C1 C -0.0576(4) 0.2135(3) 0.2135(3)
C2 C -0.0920(3) 0.19354(17) 0.19354(17)
C3 C -0.1073(3) 0.15737(17) 0.2098(3)
C4 C -0.1412(2) 0.1412(2) 0.1922(3)
C5 C -0.1566(2) 0.1566(2) 0.1566(2)
O1F O -0.1999(2) 0.0394(2) 0.24466(19)
C1F C -0.2135(3) 0.0576(4) 0.2135(3)
C2F C -0.19354(17) 0.0920(3) 0.19354(17)
C3F C -0.2098(3) 0.1073(3) 0.15737(17)
C4F C -0.1922(3) 0.1412(2) 0.1412(2)
O1I O -0.24466(19) 0.1999(2) 0.0394(2)
C1I C -0.2135(3) 0.2135(3) 0.0576(4)
C2I C -0.19354(17) 0.19354(17) 0.0920(3)
C3I C -0.15737(17) 0.2098(3) 0.1073(3)
C4I C -0.1412(2) 0.1922(3) 0.1412(2)
O1DD O -0.24466(19) 0.0394(2) 0.1999(2)
C3DD C -0.15737(17) 0.1073(3) 0.2098(3)
O1JD O -0.0394(2) 0.1999(2) 0.24466(19)
C3JD C -0.1073(3) 0.2098(3) 0.15737(17)
O1MD O -0.1999(2) 0.24466(19) 0.0394(2)
C3MD C -0.2098(3) 0.15737(17) 0.1073(3)
Cu1O Cu -0.27616(4) 0.0000 0.22384(4)
O2O O -0.32243(11) 0.0000 0.17757(11)
O1PA O 0.0394(2) 0.3001(2) 0.25534(19)
C1PA C 0.0576(4) 0.2865(3) 0.2865(3)
C2PA C 0.0920(3) 0.30646(17) 0.30646(17)
C3PA C 0.1073(3) 0.2902(3) 0.34263(17)
C4PA C 0.1412(2) 0.3078(3) 0.3588(2)
C5JA C 0.1566(2) 0.3434(2) 0.3434(2)
O1SA O 0.1999(2) 0.25534(19) 0.4606(2)
C1SA C 0.2135(3) 0.2865(3) 0.4424(4)
C2SA C 0.19354(17) 0.30646(17) 0.4080(3)
C3SA C 0.2098(3) 0.34263(17) 0.3927(3)
C4SA C 0.1922(3) 0.3588(2) 0.3588(2)
O1JA O 0.24466(19) 0.4606(2) 0.3001(2)
C1JA C 0.2135(3) 0.4424(4) 0.2865(3)
C2JA C 0.19354(17) 0.4080(3) 0.30646(17)
C3JA C 0.15737(17) 0.3927(3) 0.2902(3)
C4JA C 0.1412(2) 0.3588(2) 0.3078(3)
O1YD O 0.24466(19) 0.3001(2) 0.4606(2)
C3YD C 0.15737(17) 0.2902(3) 0.3927(3)
O1PD O 0.0394(2) 0.25534(19) 0.3001(2)
C3PD C 0.1073(3) 0.34263(17) 0.2902(3)
O1VD O 0.1999(2) 0.4606(2) 0.25534(19)
C3VD C 0.2098(3) 0.3927(3) 0.34263(17)
Cu1Q Cu 0.0000 0.22384(4) 0.27616(4)
O2Q O 0.0000 0.17757(11) 0.32243(11)
Cu1F Cu -0.22384(4) 0.0000 0.27616(4)
Cu1I Cu -0.27616(4) 0.22384(4) 0.0000
Cu1V Cu -0.22384(4) 0.27616(4) 0.0000
Cu1CA Cu 0.22384(4) 0.5000 0.22384(4)
Cu1HA Cu 0.27616(4) 0.27616(4) 0.5000
Cu1JA Cu 0.27616(4) 0.5000 0.27616(4)
Cu1SA Cu 0.22384(4) 0.22384(4) 0.5000
O1O O -0.24466(19) -0.0394(2) 0.1999(2)
O1Q O 0.0394(2) 0.1999(2) 0.24466(19)
O1AA O -0.0394(2) 0.25534(19) 0.3001(2)
O1AB O -0.3001(2) 0.0394(2) 0.25534(19)
O1UC O 0.0394(2) 0.24466(19) 0.1999(2)
O1GE O -0.0394(2) 0.3001(2) 0.25534(19)
O1TE O -0.3001(2) -0.0394(2) 0.25534(19)
loop_
_geom_bond_atom_site_label_1
_geom_bond_atom_site_label_2
_geom_bond_site_symmetry_1
_geom_bond_site_symmetry_2
Cu1 O1 1_555 1_555
O1 C1 1_555 1_555
O2 Cu1 1_555 1_555
C1 C2 1_555 1_555
C2 C3 1_555 1_555
C3 C4 1_555 1_555
C4 C5 1_555 1_555
C5 C4F 1_555 1_555
O1F C1F 1_555 1_555
C1F C2F 1_555 1_555
C2F C3F 1_555 1_555
C3F C4F 1_555 1_555
C4F C3MD 1_555 1_555
O1I C1I 1_555 1_555
C1I C2I 1_555 1_555
C2I C3I 1_555 1_555
C3I C4I 1_555 1_555
C4I C5 1_555 1_555
O1DD C1F 1_555 1_555
C3DD C4 1_555 1_555
O1JD C1 1_555 1_555
C3JD C2 1_555 1_555
O1MD C1I 1_555 1_555
C3MD C2I 1_555 1_555
Cu1O O1DD 1_555 1_555
O2O Cu1O 1_555 1_555
O1PA Cu1 1_555 1_555
C1PA O1PA 1_555 1_555
C2PA C1PA 1_555 1_555
C3PA C2PA 1_555 1_555
C4PA C3PA 1_555 1_555
C5JA C4PA 1_555 1_555
O1SA C1SA 1_555 1_555
C1SA C2SA 1_555 1_555
C2SA C3SA 1_555 1_555
C3SA C4SA 1_555 1_555
C4SA C5JA 1_555 1_555
O1JA C1JA 1_555 1_555
C1JA C2JA 1_555 1_555
C2JA C3JA 1_555 1_555
C3JA C4JA 1_555 1_555
C4JA C5JA 1_555 1_555
O1YD C1SA 1_555 1_555
C3YD C4PA 1_555 1_555
O1PD C1PA 1_555 1_555
C3PD C2PA 1_555 1_555
O1VD C1JA 1_555 1_555
C3VD C4SA 1_555 1_555
Cu1Q Cu1 1_555 1_555
O2Q Cu1Q 1_555 1_555
Cu1F O1F 1_555 1_555
Cu1I O1I 1_555 1_555
Cu1V O1MD 1_555 1_555
Cu1CA O1VD 1_555 1_555
Cu1HA O1YD 1_555 1_555
Cu1JA O1JA 1_555 1_555
Cu1SA O1SA 1_555 1_555
O1O Cu1O 1_555 1_555
O1Q Cu1Q 1_555 1_555
O1AA Cu1Q 1_555 1_555
O1AB Cu1O 1_555 1_555
O1UC Cu1 1_555 1_555
O1GE Cu1 1_555 1_555
O1TE Cu1O 1_555 1_555
C2F C3DD 1_555 1_555
C4I C3JD 1_555 1_555
O1JD Cu1Q 1_555 1_555
Cu1O Cu1F 1_555 1_555
C2SA C3YD 1_555 1_555
C2JA C3VD 1_555 1_555
C4JA C3PD 1_555 1_555
O1PD Cu1Q 1_555 1_555
Cu1I Cu1V 1_555 1_555
Cu1CA Cu1JA 1_555 1_555
Cu1HA Cu1SA 1_555 1_555

#END
