
#######################################################################
#
#                 Cambridge Crystallographic Data Centre
#                                CCDC 
#
#######################################################################
#
# If this CIF has been generated from an entry in the Cambridge 
# Structural Database, then it will include bibliographic, chemical, 
# crystal, experimental, refinement or atomic coordinate data resulting 
# from the CCDC's data processing and validation procedures.
#
#######################################################################

data_LIQLIH11
_symmetry_cell_setting           monoclinic
_symmetry_space_group_name_H-M   'P 21/c'
_symmetry_Int_Tables_number      14
_space_group_name_Hall           '-P 2ybc'
loop_
_symmetry_equiv_pos_site_id
_symmetry_equiv_pos_as_xyz
1 x,y,z
2 -x,1/2+y,1/2-z
3 -x,-y,-z
4 x,1/2-y,1/2+z
_cell_length_a                   6.8372(3)
_cell_length_b                   7.5981(9)
_cell_length_c                   7.0280(8)
_cell_angle_alpha                90
_cell_angle_beta                 115.095(6)
_cell_angle_gamma                90
_cell_volume                     330.639
loop_
_atom_site_label
_atom_site_type_symbol
_atom_site_fract_x
_atom_site_fract_y
_atom_site_fract_z
Cu1 Cu 1.0000 0.5000 0.5000
F1 F 1.0307(2) 0.7479(3) 0.5318(3)
O1 O 1.1768(5) 0.4924(3) 0.8632(5)
N1 N 0.7017(5) 0.5067(3) 0.4997(6)
C1 C 0.6568(4) 0.6000(4) 0.6342(5)
C2 C 0.5440(4) 0.4055(4) 0.3633(5)
H1 H 0.569(3) 0.3410(17) 0.265(2)
H2 H 0.763(3) 0.6720(17) 0.729(2)
H3 H 1.143(5) 0.579(3) 0.909(2)
H4 H 1.114(4) 0.422(4) 0.907(2)
Cu1_2 Cu 0.0000 0.5000 0.5000
F1B F 0.9693(2) 0.2521(3) 0.4682(3)
O1B O 0.8232(5) 0.5076(3) 0.1368(5)
N1B N 0.2983(5) 0.4933(3) 0.5003(6)
N1B_2 N 1.2983(5) 0.4933(3) 0.5003(6)
C1B C 0.3432(4) 0.4000(4) 0.3658(5)
C2B C 0.4560(4) 0.5945(4) 0.6367(5)
H1B H 0.431(3) 0.6590(17) 0.735(2)
H2B H 0.237(3) 0.3280(17) 0.271(2)
H3B H 0.857(5) 0.421(3) 0.091(2)
H4B H 0.886(4) 0.578(4) 0.093(2)
loop_
_geom_bond_atom_site_label_1
_geom_bond_atom_site_label_2
_geom_bond_site_symmetry_1
_geom_bond_site_symmetry_2
Cu1 F1 1_555 1_555
O1 Cu1 1_555 1_555
N1 Cu1 1_555 1_555
C1 N1 1_555 1_555
C2 N1 1_555 1_555
H1 C2 1_555 1_555
H2 C1 1_555 1_555
H3 O1 1_555 1_555
H4 O1 1_555 1_555
Cu1_2 N1B 1_555 1_555
F1B Cu1 1_555 1_555
O1B Cu1 1_555 1_555
N1B C1B 1_555 1_555
N1B_2 Cu1 1_555 1_555
C1B C2 1_555 1_555
C2B C1 1_555 1_555
H1B C2B 1_555 1_555
H2B C1B 1_555 1_555
H3B O1B 1_555 1_555
H4B O1B 1_555 1_555
N1B C2B 1_555 1_555

#END
