
#######################################################################
#
#                 Cambridge Crystallographic Data Centre
#                                CCDC 
#
#######################################################################
#
# If this CIF has been generated from an entry in the Cambridge 
# Structural Database, then it will include bibliographic, chemical, 
# crystal, experimental, refinement or atomic coordinate data resulting 
# from the CCDC's data processing and validation procedures.
#
#######################################################################

data_LIRNEH
_symmetry_cell_setting           monoclinic
_symmetry_space_group_name_H-M   'P 21/c'
_symmetry_Int_Tables_number      14
_space_group_name_Hall           '-P 2ybc'
loop_
_symmetry_equiv_pos_site_id
_symmetry_equiv_pos_as_xyz
1 x,y,z
2 -x,1/2+y,1/2-z
3 -x,-y,-z
4 x,1/2-y,1/2+z
_cell_length_a                   19.2780(14)
_cell_length_b                   17.2000(11)
_cell_length_c                   19.7100(15)
_cell_angle_alpha                90
_cell_angle_beta                 112.792(9)
_cell_angle_gamma                90
_cell_volume                     6025.17
loop_
_atom_site_label
_atom_site_type_symbol
_atom_site_fract_x
_atom_site_fract_y
_atom_site_fract_z
Zn1 Zn 0.015101(19) 0.26796(2) 0.197413(19)
Zn2 Zn 0.53986(2) 0.22498(2) -0.157797(19)
C1 C 0.6089(2) 0.0904(2) -0.0719(2)
C2 C 0.66950(18) 0.15188(19) -0.04318(19)
H1 H 0.6978 0.1440 0.0091
H2 H 0.7040 0.1471 -0.0680
C3 C 0.6432(2) 0.3536(2) -0.1147(2)
C4 C 0.68639(17) 0.29088(19) -0.06334(18)
H3 H 0.7217 0.2678 -0.0816
H4 H 0.7150 0.3133 -0.0154
C5 C 0.60430(17) 0.25259(19) 0.00029(16)
H5 H 0.5826 0.3041 -0.0121
H6 H 0.5636 0.2170 -0.0046
C6 C 0.65769(17) 0.25331(18) 0.07968(16)
C7 C 0.69720(17) 0.32042(18) 0.11336(16)
H7 H 0.6925 0.3652 0.0855
C8 C 0.74311(17) 0.32106(17) 0.18735(16)
H8 H 0.7688 0.3664 0.2083
C9 C 0.75163(17) 0.25618(16) 0.23068(16)
C10 C 0.71240(18) 0.18899(19) 0.19723(18)
H9 H 0.7174 0.1443 0.2253
C11 C 0.66669(18) 0.18778(18) 0.12378(18)
H10 H 0.6412 0.1423 0.1030
C12 C 0.80086(17) 0.25719(16) 0.31038(16)
C13 C 0.81106(17) 0.32455(17) 0.35206(16)
H11 H 0.7860 0.3697 0.3299
C14 C 0.85764(17) 0.32570(16) 0.42575(16)
H12 H 0.8636 0.3717 0.4522
C15 C 0.89538(16) 0.26017(17) 0.46083(16)
C16 C 0.88573(18) 0.19200(18) 0.41960(17)
H13 H 0.9112 0.1471 0.4419
C17 C 0.83881(17) 0.19071(18) 0.34614(16)
H14 H 0.8324 0.1445 0.3199
C18 C 0.94981(16) 0.26104(18) 0.54058(16)
H15 H 0.9709 0.3129 0.5523
H16 H 0.9909 0.2258 0.5459
C19 C 0.88338(17) 0.16171(17) 0.58362(17)
H17 H 0.8546 0.1559 0.5312
H18 H 0.8491 0.1557 0.6086
C20 C 0.9432(2) 0.09886(19) 0.60958(19)
C21 C 0.86779(16) 0.30117(18) 0.60452(17)
H19 H 0.8291 0.2796 0.6190
H20 H 0.8431 0.3258 0.5569
C22 C 0.91172(19) 0.36185(19) 0.66029(18)
C23 C 0.4186(2) 0.3260(2) -0.1412(2)
H21 H 0.4432 0.3720 -0.1429
C24 C 0.3508(2) 0.3205(2) -0.1349(2)
H22 H 0.3211 0.3615 -0.1312
C25 C 0.39325(18) 0.20508(19) -0.14052(16)
H23 H 0.3970 0.1512 -0.1411
C26 C 0.26874(19) 0.2101(2) -0.12657(18)
H24 H 0.2677 0.1542 -0.1337
H25 H 0.2234 0.2318 -0.1635
C27 C 0.27078(18) 0.2281(2) -0.05033(18)
C28 C 0.2348(2) 0.2919(2) -0.0380(2)
H26 H 0.2066 0.3233 -0.0774
C29 C 0.2399(2) 0.3104(2) 0.0322(2)
H27 H 0.2147 0.3538 0.0394
C30 C 0.28139(18) 0.2654(2) 0.09067(19)
C31 C 0.31728(19) 0.2011(2) 0.07909(19)
H28 H 0.3458 0.1702 0.1188
C32 C 0.3117(2) 0.1814(2) 0.0083(2)
H29 H 0.3354 0.1371 0.0009
C33 C 0.2869(2) 0.2833(2) 0.16681(19)
H30 H 0.3330 0.2612 0.2023
H31 H 0.2889 0.3392 0.1739
C34 C 0.2125(2) 0.1759(2) 0.1910(2)
H32 H 0.2456 0.1354 0.1942
C35 C 0.1452(2) 0.1708(2) 0.19693(19)
H33 H 0.1243 0.1251 0.2058
C36 C 0.16047(18) 0.2888(2) 0.17728(16)
H34 H 0.1526 0.3419 0.1690
C37 C 0.06575(19) 0.3642(2) 0.33353(19)
H35 H 0.0755 0.4065 0.3092
C38 C 0.0302(2) 0.2527(2) 0.3563(2)
H36 H 0.0109 0.2025 0.3508
C39 C 0.0584(2) 0.2925(2) 0.4195(2)
H37 H 0.0616 0.2751 0.4653
C40 C 0.1129(2) 0.4260(2) 0.4576(2)
H38 H 0.1346 0.4648 0.4360
H39 H 0.1527 0.4057 0.5013
C41 C 0.0534(2) 0.4637(2) 0.47903(19)
C42 C -0.0122(2) 0.4910(2) 0.4278(2)
H40 H -0.0211 0.4854 0.3782
C43 C 0.0662(2) 0.4728(2) 0.55242(19)
H41 H 0.1108 0.4549 0.5885
C44 C 0.48275(19) 0.1330(2) -0.2944(2)
H42 H 0.4738 0.0914 -0.2688
C45 C 0.5173(2) 0.24334(19) -0.3200(2)
H43 H 0.5373 0.2932 -0.3150
C46 C 0.4845(2) 0.2054(2) -0.3836(2)
H44 H 0.4778 0.2236 -0.4302
C47 C 0.4206(2) 0.0750(2) -0.4194(2)
H45 H 0.3750 0.0979 -0.4550
H46 H 0.4057 0.0352 -0.3928
C48 C 0.46343(17) 0.03708(18) -0.46006(17)
C49 C 0.53979(19) 0.0369(2) -0.43523(18)
H47 H 0.5677 0.0618 -0.3912
C50 C 0.42318(18) -0.00041(19) -0.52579(18)
H48 H 0.3709 -0.0011 -0.5439
N1 N 0.63621(13) 0.23006(15) -0.05562(13)
N2 N 0.91607(12) 0.23792(13) 0.59800(12)
N3 N 0.44428(14) 0.25300(16) -0.14469(14)
N4 N 0.33507(15) 0.24306(16) -0.13526(14)
N5 N 0.22199(15) 0.25148(17) 0.17944(14)
N6 N 0.11271(14) 0.24169(15) 0.18812(13)
N7 N 0.03456(14) 0.29851(15) 0.30073(14)
N8 N 0.08124(15) 0.36233(16) 0.40468(14)
N9 N 0.51709(14) 0.19817(15) -0.26359(14)
N10 N 0.46273(14) 0.13524(15) -0.36727(15)
O1 O 0.54744(14) 0.10953(13) -0.12188(14)
O2 O 0.62552(16) 0.02303(17) -0.04648(18)
O3 O 0.57804(14) 0.33758(13) -0.16167(13)
O4 O 0.67470(15) 0.41791(15) -0.11098(15)
O5 O 0.92555(15) 0.03259(14) 0.58413(15)
O6 O 1.00693(13) 0.11709(13) 0.65811(13)
O7 O 0.87938(14) 0.42386(14) 0.66117(14)
O8 O 0.97736(12) 0.34459(12) 0.70426(12)
C37B C -0.06575(19) 0.6358(2) 0.66647(19)
H35B H -0.0755 0.5935 0.6908
C38B C -0.0302(2) 0.7473(2) 0.6437(2)
H36B H -0.0109 0.7975 0.6492
C39B C -0.0584(2) 0.7075(2) 0.5805(2)
H37B H -0.0616 0.7249 0.5347
C40B C -0.1129(2) 0.5740(2) 0.5424(2)
H38B H -0.1346 0.5352 0.5640
H39B H -0.1527 0.5943 0.4987
C41B C -0.0534(2) 0.5363(2) 0.52097(19)
C42B C 0.0122(2) 0.5090(2) 0.5722(2)
H40B H 0.0211 0.5146 0.6218
C43B C -0.0662(2) 0.5272(2) 0.44758(19)
H41B H -0.1108 0.5451 0.4115
N7B N -0.03456(14) 0.70149(15) 0.69927(14)
N8B N -0.08124(15) 0.63767(16) 0.59532(14)
C44B C 0.51725(19) -0.1330(2) -0.7056(2)
H42B H 0.5262 -0.0914 -0.7312
C45B C 0.4827(2) -0.24334(19) -0.6800(2)
H43B H 0.4627 -0.2932 -0.6850
C46B C 0.5155(2) -0.2054(2) -0.6164(2)
H44B H 0.5222 -0.2236 -0.5698
C47B C 0.5794(2) -0.0750(2) -0.5806(2)
H45B H 0.6250 -0.0979 -0.5450
H46B H 0.5943 -0.0352 -0.6072
C48B C 0.53657(17) -0.03708(18) -0.53994(17)
C49B C 0.46021(19) -0.0369(2) -0.56477(18)
H47B H 0.4323 -0.0618 -0.6088
C50B C 0.57682(18) 0.00041(19) -0.47421(18)
H48B H 0.6291 0.0011 -0.4561
N9B N 0.48291(14) -0.19817(15) -0.73641(14)
N10B N 0.53727(14) -0.13524(15) -0.63273(15)
Zn1B Zn -0.015101(19) 0.73204(2) 0.802587(19)
Zn2B Zn -0.53986(2) 0.77502(2) 1.157797(19)
C1B C -0.6089(2) 0.9096(2) 1.0719(2)
C2B C -0.66950(18) 0.84812(19) 1.04318(19)
H1B H -0.6978 0.8560 0.9909
H2B H -0.7040 0.8529 1.0680
C3B C -0.6432(2) 0.6464(2) 1.1147(2)
C4B C -0.68639(17) 0.70912(19) 1.06334(18)
H3B H -0.7217 0.7322 1.0816
H4B H -0.7150 0.6867 1.0154
C5B C -0.60430(17) 0.74741(19) 0.99971(16)
H5B H -0.5826 0.6959 1.0121
H6B H -0.5636 0.7830 1.0046
C6B C -0.65769(17) 0.74669(18) 0.92032(16)
C7B C -0.69720(17) 0.67958(18) 0.88664(16)
H7B H -0.6925 0.6348 0.9145
C8B C -0.74311(17) 0.67894(17) 0.81265(16)
H8B H -0.7688 0.6336 0.7917
C9B C -0.75163(17) 0.74382(16) 0.76932(16)
C10B C -0.71240(18) 0.81101(19) 0.80277(18)
H9B H -0.7174 0.8557 0.7747
C11B C -0.66669(18) 0.81222(18) 0.87622(18)
H10B H -0.6412 0.8577 0.8970
C12B C -0.80086(17) 0.74281(16) 0.68962(16)
C13B C -0.81106(17) 0.67545(17) 0.64794(16)
H11B H -0.7860 0.6303 0.6701
C14B C -0.85764(17) 0.67430(16) 0.57425(16)
H12B H -0.8636 0.6283 0.5478
C15B C -0.89538(16) 0.73983(17) 0.53917(16)
C16B C -0.88573(18) 0.80800(18) 0.58040(17)
H13B H -0.9112 0.8529 0.5581
C17B C -0.83881(17) 0.80929(18) 0.65386(16)
H14B H -0.8324 0.8555 0.6801
C18B C -0.94981(16) 0.73896(18) 0.45942(16)
H15B H -0.9709 0.6871 0.4477
H16B H -0.9909 0.7742 0.4541
C19B C -0.88338(17) 0.83829(17) 0.41638(17)
H17B H -0.8546 0.8441 0.4688
H18B H -0.8491 0.8443 0.3914
C20B C -0.9432(2) 0.90114(19) 0.39042(19)
C21B C -0.86779(16) 0.69883(18) 0.39548(17)
H19B H -0.8291 0.7204 0.3810
H20B H -0.8431 0.6742 0.4431
C22B C -0.91172(19) 0.63815(19) 0.33971(18)
C23B C -0.4186(2) 0.6740(2) 1.1412(2)
H21B H -0.4432 0.6280 1.1429
C24B C -0.3508(2) 0.6795(2) 1.1349(2)
H22B H -0.3211 0.6385 1.1312
C25B C -0.39325(18) 0.79492(19) 1.14052(16)
H23B H -0.3970 0.8488 1.1411
C26B C -0.26874(19) 0.7899(2) 1.12657(18)
H24B H -0.2677 0.8458 1.1337
H25B H -0.2234 0.7682 1.1635
C27B C -0.27078(18) 0.7719(2) 1.05033(18)
C28B C -0.2348(2) 0.7081(2) 1.0380(2)
H26B H -0.2066 0.6767 1.0774
C29B C -0.2399(2) 0.6896(2) 0.9678(2)
H27B H -0.2147 0.6462 0.9606
C30B C -0.28139(18) 0.7346(2) 0.90933(19)
C31B C -0.31728(19) 0.7989(2) 0.92091(19)
H28B H -0.3458 0.8298 0.8812
C32B C -0.3117(2) 0.8186(2) 0.9917(2)
H29B H -0.3354 0.8629 0.9991
C33B C -0.2869(2) 0.7167(2) 0.83319(19)
H30B H -0.3330 0.7388 0.7977
H31B H -0.2889 0.6608 0.8261
C34B C -0.2125(2) 0.8241(2) 0.8090(2)
H32B H -0.2456 0.8646 0.8058
C35B C -0.1452(2) 0.8292(2) 0.80307(19)
H33B H -0.1243 0.8749 0.7942
C36B C -0.16047(18) 0.7112(2) 0.82272(16)
H34B H -0.1526 0.6581 0.8310
N1B N -0.63621(13) 0.76994(15) 1.05562(13)
N2B N -0.91607(12) 0.76208(13) 0.40200(12)
N3B N -0.44428(14) 0.74700(16) 1.14469(14)
N4B N -0.33507(15) 0.75694(16) 1.13526(14)
N5B N -0.22199(15) 0.74852(17) 0.82056(14)
N6B N -0.11271(14) 0.75831(15) 0.81188(13)
O1B O -0.54744(14) 0.89047(13) 1.12188(14)
O2B O -0.62552(16) 0.97697(17) 1.04648(18)
O3B O -0.57804(14) 0.66242(13) 1.16167(13)
O4B O -0.67470(15) 0.58209(15) 1.11098(15)
O5B O -0.92555(15) 0.96741(14) 0.41587(15)
O6B O -1.00693(13) 0.88291(13) 0.34189(13)
O7B O -0.87938(14) 0.57614(14) 0.33883(14)
O8B O -0.97736(12) 0.65541(12) 0.29574(12)
Zn1A Zn -1.015101(19) 0.76796(2) 0.302587(19)
Zn1C Zn 1.015101(19) 0.23204(2) 0.697413(19)
Zn2B_2 Zn 0.46014(2) -0.22498(2) -0.842203(19)
N2A N 0.08393(12) 0.73792(13) 0.90200(12)
N2C N -0.08393(12) 0.26208(13) 0.09800(12)
N9B_2 N -0.51709(14) 0.80183(15) 1.26359(14)
O6A O -0.00693(13) 0.61709(13) 0.84189(13)
O6C O 0.00693(13) 0.38291(13) 0.15811(13)
O8A O 0.02264(12) 0.84459(12) 0.79574(12)
O8C O -0.02264(12) 0.15541(12) 0.20426(12)
loop_
_geom_bond_atom_site_label_1
_geom_bond_atom_site_label_2
_geom_bond_site_symmetry_1
_geom_bond_site_symmetry_2
Zn1 N6 1_555 1_555
Zn2 N1 1_555 1_555
C1 C2 1_555 1_555
C2 H1 1_555 1_555
H2 C2 1_555 1_555
C3 C4 1_555 1_555
C4 H3 1_555 1_555
H4 C4 1_555 1_555
C5 H5 1_555 1_555
H6 C5 1_555 1_555
C6 C5 1_555 1_555
C7 C6 1_555 1_555
H7 C7 1_555 1_555
C8 C7 1_555 1_555
H8 C8 1_555 1_555
C9 C8 1_555 1_555
C10 C9 1_555 1_555
H9 C10 1_555 1_555
C11 C6 1_555 1_555
H10 C11 1_555 1_555
C12 C9 1_555 1_555
C13 C12 1_555 1_555
H11 C13 1_555 1_555
C14 C13 1_555 1_555
H12 C14 1_555 1_555
C15 C14 1_555 1_555
C16 C15 1_555 1_555
H13 C16 1_555 1_555
C17 C12 1_555 1_555
H14 C17 1_555 1_555
C18 C15 1_555 1_555
H15 C18 1_555 1_555
H16 C18 1_555 1_555
C19 H17 1_555 1_555
H18 C19 1_555 1_555
C20 C19 1_555 1_555
C21 H19 1_555 1_555
H20 C21 1_555 1_555
C22 C21 1_555 1_555
C23 H21 1_555 1_555
C24 C23 1_555 1_555
H22 C24 1_555 1_555
C25 H23 1_555 1_555
C26 H24 1_555 1_555
H25 C26 1_555 1_555
C27 C26 1_555 1_555
C28 C27 1_555 1_555
H26 C28 1_555 1_555
C29 C28 1_555 1_555
H27 C29 1_555 1_555
C30 C29 1_555 1_555
C31 C30 1_555 1_555
H28 C31 1_555 1_555
C32 C27 1_555 1_555
H29 C32 1_555 1_555
C33 C30 1_555 1_555
H30 C33 1_555 1_555
H31 C33 1_555 1_555
C34 H32 1_555 1_555
C35 C34 1_555 1_555
H33 C35 1_555 1_555
C36 H34 1_555 1_555
C37 H35 1_555 1_555
C38 H36 1_555 1_555
C39 C38 1_555 1_555
H37 C39 1_555 1_555
C40 H38 1_555 1_555
H39 C40 1_555 1_555
C41 C40 1_555 1_555
C42 C41 1_555 1_555
H40 C42 1_555 1_555
C43 C41 1_555 1_555
H41 C43 1_555 1_555
C44 H42 1_555 1_555
C45 H43 1_555 1_555
C46 C45 1_555 1_555
H44 C46 1_555 1_555
C47 H45 1_555 1_555
H46 C47 1_555 1_555
C48 C47 1_555 1_555
C49 C48 1_555 1_555
H47 C49 1_555 1_555
C50 C48 1_555 1_555
H48 C50 1_555 1_555
N1 C2 1_555 1_555
N2 C18 1_555 1_555
N3 Zn2 1_555 1_555
N4 C24 1_555 1_555
N5 C33 1_555 1_555
N6 C35 1_555 1_555
N7 Zn1 1_555 1_555
N8 C37 1_555 1_555
N9 Zn2 1_555 1_555
N10 C44 1_555 1_555
O1 Zn2 1_555 1_555
O2 C1 1_555 1_555
O3 Zn2 1_555 1_555
O4 C3 1_555 1_555
O5 C20 1_555 1_555
O6 C20 1_555 1_555
O7 C22 1_555 1_555
O8 C22 1_555 1_555
C37B H35B 1_555 1_555
C38B H36B 1_555 1_555
C39B C38B 1_555 1_555
H37B C39B 1_555 1_555
C40B H38B 1_555 1_555
H39B C40B 1_555 1_555
C41B C40B 1_555 1_555
C42B C43 1_555 1_555
H40B C42B 1_555 1_555
C43B C42 1_555 1_555
H41B C43B 1_555 1_555
N7B C37B 1_555 1_555
N8B C37B 1_555 1_555
C44B H42B 1_555 1_555
C45B H43B 1_555 1_555
C46B C45B 1_555 1_555
H44B C46B 1_555 1_555
C47B H45B 1_555 1_555
H46B C47B 1_555 1_555
C48B C47B 1_555 1_555
C49B C50 1_555 1_555
H47B C49B 1_555 1_555
C50B C49 1_555 1_555
H48B C50B 1_555 1_555
N9B C44B 1_555 1_555
N10B C44B 1_555 1_555
Zn1B N7B 1_555 1_555
Zn2B N1B 1_555 1_555
C1B C2B 1_555 1_555
C2B H1B 1_555 1_555
H2B C2B 1_555 1_555
C3B C4B 1_555 1_555
C4B H3B 1_555 1_555
H4B C4B 1_555 1_555
C5B H5B 1_555 1_555
H6B C5B 1_555 1_555
C6B C5B 1_555 1_555
C7B C6B 1_555 1_555
H7B C7B 1_555 1_555
C8B C7B 1_555 1_555
H8B C8B 1_555 1_555
C9B C8B 1_555 1_555
C10B C9B 1_555 1_555
H9B C10B 1_555 1_555
C11B C6B 1_555 1_555
H10B C11B 1_555 1_555
C12B C9B 1_555 1_555
C13B C12B 1_555 1_555
H11B C13B 1_555 1_555
C14B C13B 1_555 1_555
H12B C14B 1_555 1_555
C15B C14B 1_555 1_555
C16B C15B 1_555 1_555
H13B C16B 1_555 1_555
C17B C12B 1_555 1_555
H14B C17B 1_555 1_555
C18B C15B 1_555 1_555
H15B C18B 1_555 1_555
H16B C18B 1_555 1_555
C19B H17B 1_555 1_555
H18B C19B 1_555 1_555
C20B C19B 1_555 1_555
C21B H19B 1_555 1_555
H20B C21B 1_555 1_555
C22B C21B 1_555 1_555
C23B H21B 1_555 1_555
C24B C23B 1_555 1_555
H22B C24B 1_555 1_555
C25B H23B 1_555 1_555
C26B H24B 1_555 1_555
H25B C26B 1_555 1_555
C27B C26B 1_555 1_555
C28B C27B 1_555 1_555
H26B C28B 1_555 1_555
C29B C28B 1_555 1_555
H27B C29B 1_555 1_555
C30B C29B 1_555 1_555
C31B C30B 1_555 1_555
H28B C31B 1_555 1_555
C32B C27B 1_555 1_555
H29B C32B 1_555 1_555
C33B C30B 1_555 1_555
H30B C33B 1_555 1_555
H31B C33B 1_555 1_555
C34B H32B 1_555 1_555
C35B C34B 1_555 1_555
H33B C35B 1_555 1_555
C36B H34B 1_555 1_555
N1B C2B 1_555 1_555
N2B C18B 1_555 1_555
N3B Zn2B 1_555 1_555
N4B C24B 1_555 1_555
N5B C33B 1_555 1_555
N6B Zn1B 1_555 1_555
O1B Zn2B 1_555 1_555
O2B C1B 1_555 1_555
O3B Zn2B 1_555 1_555
O4B C3B 1_555 1_555
O5B C20B 1_555 1_555
O6B C20B 1_555 1_555
O7B C22B 1_555 1_555
O8B C22B 1_555 1_555
Zn1A N2B 1_555 1_555
Zn1C N2 1_555 1_555
Zn2B_2 N9B 1_555 1_555
N2A Zn1B 1_555 1_555
N2C Zn1 1_555 1_555
N9B_2 Zn2B 1_555 1_555
O6A Zn1B 1_555 1_555
O6C Zn1 1_555 1_555
O8A Zn1B 1_555 1_555
O8C Zn1 1_555 1_555
C1 O1 1_555 1_555
C3 O3 1_555 1_555
C4 N1 1_555 1_555
C5 N1 1_555 1_555
C10 C11 1_555 1_555
C16 C17 1_555 1_555
C19 N2 1_555 1_555
C21 N2 1_555 1_555
C23 N3 1_555 1_555
C25 N3 1_555 1_555
C25 N4 1_555 1_555
C26 N4 1_555 1_555
C31 C32 1_555 1_555
C34 N5 1_555 1_555
C36 N5 1_555 1_555
C36 N6 1_555 1_555
C37 N7 1_555 1_555
C38 N7 1_555 1_555
C39 N8 1_555 1_555
C40 N8 1_555 1_555
C44 N9 1_555 1_555
C45 N9 1_555 1_555
C46 N10 1_555 1_555
C47 N10 1_555 1_555
O6 Zn1C 1_555 1_555
O8 Zn1C 1_555 1_555
C38B N7B 1_555 1_555
C39B N8B 1_555 1_555
C40B N8B 1_555 1_555
C41B C42B 1_555 1_555
C41B C43B 1_555 1_555
C45B N9B 1_555 1_555
C46B N10B 1_555 1_555
C47B N10B 1_555 1_555
C48B C49B 1_555 1_555
C48B C50B 1_555 1_555
C1B O1B 1_555 1_555
C3B O3B 1_555 1_555
C4B N1B 1_555 1_555
C5B N1B 1_555 1_555
C10B C11B 1_555 1_555
C16B C17B 1_555 1_555
C19B N2B 1_555 1_555
C21B N2B 1_555 1_555
C23B N3B 1_555 1_555
C25B N3B 1_555 1_555
C25B N4B 1_555 1_555
C26B N4B 1_555 1_555
C31B C32B 1_555 1_555
C34B N5B 1_555 1_555
C35B N6B 1_555 1_555
C36B N5B 1_555 1_555
C36B N6B 1_555 1_555
O6B Zn1A 1_555 1_555
O8B Zn1A 1_555 1_555

#END
