
#######################################################################
#
#                 Cambridge Crystallographic Data Centre
#                                CCDC 
#
#######################################################################
#
# If this CIF has been generated from an entry in the Cambridge 
# Structural Database, then it will include bibliographic, chemical, 
# crystal, experimental, refinement or atomic coordinate data resulting 
# from the CCDC's data processing and validation procedures.
#
#######################################################################

data_LITCOI
_symmetry_cell_setting           monoclinic
_symmetry_space_group_name_H-M   'P 21/c'
_symmetry_Int_Tables_number      14
_space_group_name_Hall           '-P 2ybc'
loop_
_symmetry_equiv_pos_site_id
_symmetry_equiv_pos_as_xyz
1 x,y,z
2 -x,1/2+y,1/2-z
3 -x,-y,-z
4 x,1/2-y,1/2+z
_cell_length_a                   15.4676(17)
_cell_length_b                   13.1962(15)
_cell_length_c                   26.497(3)
_cell_angle_alpha                90
_cell_angle_beta                 98.729(2)
_cell_angle_gamma                90
_cell_volume                     5345.75
loop_
_atom_site_label
_atom_site_type_symbol
_atom_site_fract_x
_atom_site_fract_y
_atom_site_fract_z
Cd1 Cd 0.254073(17) 0.81505(2) 0.239368(10)
Cd2 Cd 0.21126(2) 0.67755(2) 0.345514(11)
C1 C 0.6089(3) 1.1902(3) 0.21695(15)
O1 O 0.35152(18) 0.9614(2) 0.25114(10)
O2 O 0.29562(18) 0.9035(2) 0.17431(10)
C2 C 0.3484(3) 0.9583(3) 0.20325(16)
C3 C 0.0039(3) 0.4993(3) 0.10985(14)
O3 O -0.1811(2) 0.3430(2) 0.17884(13)
C4 C 0.4192(2) 1.0038(3) 0.12805(14)
H1 H 0.3776 0.9633 0.1086
C5 C 0.0646(3) 0.5592(3) 0.14011(15)
H2 H 0.1051 0.5965 0.1252
O4 O 0.6013(2) 1.2140(2) 0.26130(11)
C6 C 0.5409(2) 1.1260(3) 0.18551(13)
O5 O 0.67404(17) 1.2187(2) 0.19645(11)
C7 C -0.1253(3) 0.3927(3) 0.20768(17)
C8 C 0.4139(2) 1.0192(3) 0.17911(14)
O6 O 0.5330(3) 0.6615(2) 0.09116(12)
C9 C 0.5455(2) 1.1083(3) 0.13467(14)
H3 H 0.5900 1.1379 0.1198
C10 C 0.4846(2) 1.0471(3) 0.10536(13)
C11 C -0.0570(2) 0.4498(3) 0.18500(15)
C12 C 0.4740(2) 1.0815(3) 0.20775(14)
H4 H 0.4700 1.0938 0.2419
C13 C 0.0025(3) 0.4978(3) 0.05298(15)
C14 C 0.4929(2) 1.0230(3) 0.05123(14)
O7 O 0.5344(3) 0.6200(2) -0.00319(12)
C15 C 0.0640(3) 0.4426(3) 0.03140(14)
C16 C 0.0041(3) 0.5099(3) 0.21510(15)
H5 H 0.0038 0.5136 0.2501
C17 C -0.0622(3) 0.5544(3) 0.02240(15)
C18 C 0.1280(3) 0.3815(4) 0.06146(16)
H6 H 0.1294 0.3792 0.0967
O8 O -0.1270(2) 0.4012(3) 0.25430(12)
C19 C -0.0562(3) 0.4438(3) 0.13252(15)
H7 H -0.0963 0.4023 0.1125
C20 C 0.5243(3) 0.7444(3) 0.05914(16)
C21 C 0.5270(3) 0.7195(3) 0.00714(17)
C22 C 0.0653(2) 0.5641(3) 0.19337(14)
C23 C 0.1868(3) 0.3268(4) 0.03995(19)
C24 C 0.5064(3) 0.9225(3) 0.03724(14)
C25 C -0.1266(3) 0.6129(4) 0.04367(17)
H8 H -0.1270 0.6115 0.0787
C26 C 0.5242(3) 0.7959(3) -0.02799(16)
H9 H 0.5303 0.7800 -0.0615
C27 C 0.5148(3) 0.8419(3) 0.07378(15)
H10 H 0.5138 0.8564 0.1080
C28 C 0.4878(2) 1.1012(3) 0.01479(14)
C29 C 0.5383(5) 0.6828(4) 0.14501(19)
H11 H 0.4857 0.7160 0.1512
H12 H 0.5876 0.7259 0.1558
H13 H 0.5452 0.6204 0.1639
O9 O 0.2496(2) 0.2641(3) 0.06512(14)
C30 C 0.1860(3) 0.3307(4) -0.01388(19)
O10 O 0.2498(2) 0.2725(3) -0.03068(15)
O11 O 0.1779(2) 0.6855(2) 0.20243(11)
O12 O 0.1299(2) 0.6292(3) 0.27264(11)
O13 O 0.0955(2) 0.6682(3) 0.38840(14)
H14 H 0.0846 0.6133 0.4030
H15 H 0.0630 0.7197 0.3899
C31 C 0.1293(3) 0.6313(3) 0.22548(16)
O14 O 0.2901(2) 0.7301(3) 0.41889(13)
O15 O 0.2492(3) 0.5158(3) 0.36339(14)
H16 H 0.2194 0.4798 0.3810
H17 H 0.2936 0.4906 0.3526
C32 C 0.5382(5) 0.5929(4) -0.0547(2)
H18 H 0.4868 0.6173 -0.0762
H19 H 0.5411 0.5205 -0.0575
H20 H 0.5892 0.6226 -0.0653
C33 C 0.2523(4) 0.2756(6) -0.0849(2)
H21 H 0.1942 0.2673 -0.1031
H22 H 0.2889 0.2219 -0.0939
H23 H 0.2755 0.3396 -0.0937
C34 C 0.2508(4) 0.2475(5) 0.1174(2)
H24 H 0.1949 0.2224 0.1231
H25 H 0.2632 0.3100 0.1355
H26 H 0.2953 0.1986 0.1293
C35 C 0.2834(7) 0.8691(7) 0.5282(3)
H27 H 0.3343 0.9027 0.5467
H28 H 0.2319 0.9081 0.5326
N1 N 0.2909(5) 0.8622(5) 0.4755(3)
C36 C 0.2887(4) 0.7580(5) 0.4620(2)
C37 C 0.2799(6) 0.7006(5) 0.5062(3)
H29 H 0.3293 0.6550 0.5144
H30 H 0.2268 0.6604 0.5003
C38 C 0.2766(7) 0.7693(9) 0.5471(2)
H31 H 0.2219 0.7614 0.5605
H32 H 0.3244 0.7559 0.5745
C39 C 0.3118(12) 0.9369(15) 0.4372(7)
H33 H 0.3046 0.9057 0.4041
H34 H 0.3711 0.9593 0.4462
H35 H 0.2731 0.9939 0.4365
C1B C 0.3911(3) 0.8098(3) -0.21695(15)
O1B O 0.64848(18) 1.0386(2) -0.25114(10)
O2B O 0.70438(18) 1.0965(2) -0.17431(10)
C2B C 0.6516(3) 1.0417(3) -0.20325(16)
C4B C 0.5808(2) 0.9962(3) -0.12805(14)
H1B H 0.6224 1.0367 -0.1086
O4B O 0.3987(2) 0.7860(2) -0.26130(11)
C6B C 0.4591(2) 0.8740(3) -0.18551(13)
O5B O 0.32596(17) 0.7813(2) -0.19645(11)
C8B C 0.5861(2) 0.9808(3) -0.17911(14)
O6B O 0.4670(3) 1.3385(2) -0.09116(12)
C9B C 0.4545(2) 0.8917(3) -0.13467(14)
H3B H 0.4100 0.8621 -0.1198
C10B C 0.5154(2) 0.9529(3) -0.10536(13)
C12B C 0.5260(2) 0.9185(3) -0.20775(14)
H4B H 0.5300 0.9062 -0.2419
C14B C 0.5071(2) 0.9770(3) -0.05123(14)
O7B O 0.4656(3) 1.3800(2) 0.00319(12)
C20B C 0.4757(3) 1.2556(3) -0.05914(16)
C21B C 0.4730(3) 1.2805(3) -0.00714(17)
C24B C 0.4936(3) 1.0775(3) -0.03724(14)
C26B C 0.4758(3) 1.2041(3) 0.02799(16)
H9B H 0.4697 1.2200 0.0615
C27B C 0.4852(3) 1.1581(3) -0.07378(15)
H10B H 0.4862 1.1436 -0.1080
C28B C 0.5122(2) 0.8988(3) -0.01479(14)
C29B C 0.4617(5) 1.3172(4) -0.14501(19)
H11B H 0.5143 1.2840 -0.1512
H12B H 0.4124 1.2741 -0.1558
H13B H 0.4548 1.3796 -0.1639
C32B C 0.4618(5) 1.4071(4) 0.0547(2)
H18B H 0.5132 1.3827 0.0762
H19B H 0.4589 1.4795 0.0575
H20B H 0.4108 1.3774 0.0653
C3B C -0.0039(3) 0.5007(3) -0.10985(14)
O3B O 0.1811(2) 0.6570(2) -0.17884(13)
C5B C -0.0646(3) 0.4408(3) -0.14011(15)
H2B H -0.1051 0.4035 -0.1252
C7B C 0.1253(3) 0.6073(3) -0.20768(17)
C11B C 0.0570(2) 0.5502(3) -0.18500(15)
C13B C -0.0025(3) 0.5022(3) -0.05298(15)
C15B C -0.0640(3) 0.5574(3) -0.03140(14)
C16B C -0.0041(3) 0.4901(3) -0.21510(15)
H5B H -0.0038 0.4864 -0.2501
C17B C 0.0622(3) 0.4456(3) -0.02240(15)
C18B C -0.1280(3) 0.6185(4) -0.06146(16)
H6B H -0.1294 0.6208 -0.0967
O8B O 0.1270(2) 0.5988(3) -0.25430(12)
C19B C 0.0562(3) 0.5562(3) -0.13252(15)
H7B H 0.0963 0.5977 -0.1125
C22B C -0.0653(2) 0.4359(3) -0.19337(14)
C23B C -0.1868(3) 0.6732(4) -0.03995(19)
C25B C 0.1266(3) 0.3871(4) -0.04367(17)
H8B H 0.1270 0.3885 -0.0787
O9B O -0.2496(2) 0.7359(3) -0.06512(14)
C30B C -0.1860(3) 0.6693(4) 0.01388(19)
O10B O -0.2498(2) 0.7275(3) 0.03068(15)
O11B O -0.1779(2) 0.3145(2) -0.20243(11)
O12B O -0.1299(2) 0.3708(3) -0.27264(11)
C31B C -0.1293(3) 0.3687(3) -0.22548(16)
C33B C -0.2523(4) 0.7244(6) 0.0849(2)
H21B H -0.1942 0.7327 0.1031
H22B H -0.2889 0.7781 0.0939
H23B H -0.2755 0.6604 0.0937
C34B C -0.2508(4) 0.7525(5) -0.1174(2)
H24B H -0.1949 0.7776 -0.1231
H25B H -0.2632 0.6900 -0.1355
H26B H -0.2953 0.8014 -0.1293
Cd1B Cd -0.254073(17) 0.18495(2) -0.239368(10)
Cd2B Cd -0.21126(2) 0.32245(2) -0.345514(11)
O13B O -0.0955(2) 0.3318(3) -0.38840(14)
H14B H -0.0846 0.3867 -0.4030
H15B H -0.0630 0.2803 -0.3899
O14B O -0.2901(2) 0.2699(3) -0.41889(13)
O15B O -0.2492(3) 0.4842(3) -0.36339(14)
H16B H -0.2194 0.5202 -0.3810
H17B H -0.2936 0.5094 -0.3526
C35B C -0.2834(7) 0.1309(7) -0.5282(3)
H27B H -0.3343 0.0973 -0.5467
H28B H -0.2319 0.0919 -0.5326
N1B N -0.2909(5) 0.1378(5) -0.4755(3)
C36B C -0.2887(4) 0.2420(5) -0.4620(2)
C37B C -0.2799(6) 0.2994(5) -0.5062(3)
H29B H -0.3293 0.3450 -0.5144
H30B H -0.2268 0.3396 -0.5003
C38B C -0.2766(7) 0.2307(9) -0.5471(2)
H31B H -0.2219 0.2386 -0.5605
H32B H -0.3244 0.2441 -0.5745
C39B C -0.3118(12) 0.0631(15) -0.4372(7)
H33B H -0.3046 0.0943 -0.4041
H34B H -0.3711 0.0407 -0.4462
H35B H -0.2731 0.0061 -0.4365
Cd1A Cd -0.254073(17) 0.31505(2) 0.260632(10)
Cd1A_2 Cd 0.745927(17) 1.31505(2) 0.260632(10)
Cd1B_2 Cd 0.745927(17) 1.18495(2) -0.239368(10)
Cd1C Cd 0.254073(17) 0.68495(2) -0.260632(10)
Cd2A Cd -0.21126(2) 0.17755(2) 0.154486(11)
Cd2A_2 Cd 0.78874(2) 1.17755(2) 0.154486(11)
Cd2C Cd 0.21126(2) 0.82245(2) -0.154486(11)
O1B_2 O -0.35152(18) 0.0386(2) -0.25114(10)
O2B_2 O -0.29562(18) 0.0965(2) -0.17431(10)
O3A O 0.1811(2) 0.8430(2) 0.32116(13)
O3C O -0.1811(2) 0.1570(2) -0.32116(13)
O4A O 0.3987(2) 0.7140(2) 0.23870(11)
O4C O -0.3987(2) 0.2860(2) -0.23870(11)
O5A O 0.32596(17) 0.7187(2) 0.30355(11)
O5C O -0.32596(17) 0.2813(2) -0.30355(11)
O8A O 0.1270(2) 0.9012(3) 0.24570(12)
O8C O -0.1270(2) 0.0988(3) -0.24570(12)
loop_
_geom_bond_atom_site_label_1
_geom_bond_atom_site_label_2
_geom_bond_site_symmetry_1
_geom_bond_site_symmetry_2
Cd1 O1 1_555 1_555
Cd2 O12 1_555 1_555
C1 O4 1_555 1_555
O1 C2 1_555 1_555
O2 Cd1 1_555 1_555
C2 O2 1_555 1_555
C3 C5 1_555 1_555
O3 C7 1_555 1_555
C4 H1 1_555 1_555
C5 H2 1_555 1_555
O4 Cd1A_2 1_555 1_555
C6 C1 1_555 1_555
O5 C1 1_555 1_555
C7 C11 1_555 1_555
C8 C2 1_555 1_555
O6 C20 1_555 1_555
C9 C6 1_555 1_555
H3 C9 1_555 1_555
C10 C4 1_555 1_555
C11 C16 1_555 1_555
C12 C6 1_555 1_555
H4 C12 1_555 1_555
C13 C3 1_555 1_555
C14 C10 1_555 1_555
O7 C21 1_555 1_555
C15 C13 1_555 1_555
C16 H5 1_555 1_555
C17 C13 1_555 1_555
C18 C15 1_555 1_555
H6 C18 1_555 1_555
O8 C7 1_555 1_555
C19 C3 1_555 1_555
H7 C19 1_555 1_555
C20 C21 1_555 1_555
C21 C26 1_555 1_555
C22 C5 1_555 1_555
C23 C18 1_555 1_555
C24 C14 1_555 1_555
C25 C17 1_555 1_555
H8 C25 1_555 1_555
C26 H9 1_555 1_555
C27 C20 1_555 1_555
H10 C27 1_555 1_555
C28 C14 1_555 1_555
C29 O6 1_555 1_555
H11 C29 1_555 1_555
H12 C29 1_555 1_555
H13 C29 1_555 1_555
O9 C23 1_555 1_555
C30 C23 1_555 1_555
O10 C30 1_555 1_555
O11 Cd1 1_555 1_555
O12 C31 1_555 1_555
O13 Cd2 1_555 1_555
H14 O13 1_555 1_555
H15 O13 1_555 1_555
C31 C22 1_555 1_555
O14 Cd2 1_555 1_555
O15 Cd2 1_555 1_555
H16 O15 1_555 1_555
H17 O15 1_555 1_555
C32 O7 1_555 1_555
H18 C32 1_555 1_555
H19 C32 1_555 1_555
H20 C32 1_555 1_555
C33 O10 1_555 1_555
H21 C33 1_555 1_555
H22 C33 1_555 1_555
H23 C33 1_555 1_555
C34 O9 1_555 1_555
H24 C34 1_555 1_555
H25 C34 1_555 1_555
H26 C34 1_555 1_555
C35 H27 1_555 1_555
H28 C35 1_555 1_555
N1 C35 1_555 1_555
C36 O14 1_555 1_555
C37 C36 1_555 1_555
H29 C37 1_555 1_555
H30 C37 1_555 1_555
C38 C35 1_555 1_555
H31 C38 1_555 1_555
H32 C38 1_555 1_555
C39 N1 1_555 1_555
H33 C39 1_555 1_555
H34 C39 1_555 1_555
H35 C39 1_555 1_555
C1B O4B 1_555 1_555
O1B C2B 1_555 1_555
O2B C2B 1_555 1_555
C2B C8B 1_555 1_555
C4B H1B 1_555 1_555
O4B Cd1C 1_555 1_555
C6B C1B 1_555 1_555
O5B C1B 1_555 1_555
C8B C4B 1_555 1_555
O6B C20B 1_555 1_555
C9B C6B 1_555 1_555
H3B C9B 1_555 1_555
C10B C4B 1_555 1_555
C12B C6B 1_555 1_555
H4B C12B 1_555 1_555
C14B C10B 1_555 1_555
O7B C21B 1_555 1_555
C20B C21B 1_555 1_555
C21B C26B 1_555 1_555
C24B C28 1_555 1_555
C26B C28 1_555 1_555
H9B C26B 1_555 1_555
C27B C20B 1_555 1_555
H10B C27B 1_555 1_555
C28B C24 1_555 1_555
C29B O6B 1_555 1_555
H11B C29B 1_555 1_555
H12B C29B 1_555 1_555
H13B C29B 1_555 1_555
C32B O7B 1_555 1_555
H18B C32B 1_555 1_555
H19B C32B 1_555 1_555
H20B C32B 1_555 1_555
C3B C5B 1_555 1_555
O3B C7B 1_555 1_555
C5B H2B 1_555 1_555
C7B C11B 1_555 1_555
C11B C16B 1_555 1_555
C13B C3B 1_555 1_555
C15B C17 1_555 1_555
C16B H5B 1_555 1_555
C17B C15 1_555 1_555
C18B C15B 1_555 1_555
H6B C18B 1_555 1_555
O8B C7B 1_555 1_555
C19B C3B 1_555 1_555
H7B C19B 1_555 1_555
C22B C5B 1_555 1_555
C23B C18B 1_555 1_555
C25B C30 1_555 1_555
H8B C25B 1_555 1_555
O9B C23B 1_555 1_555
C30B C25 1_555 1_555
O10B C30B 1_555 1_555
O11B C31B 1_555 1_555
O12B C31B 1_555 1_555
C31B C22B 1_555 1_555
C33B O10B 1_555 1_555
H21B C33B 1_555 1_555
H22B C33B 1_555 1_555
H23B C33B 1_555 1_555
C34B O9B 1_555 1_555
H24B C34B 1_555 1_555
H25B C34B 1_555 1_555
H26B C34B 1_555 1_555
Cd1B O11B 1_555 1_555
Cd2B O12B 1_555 1_555
O13B Cd2B 1_555 1_555
H14B O13B 1_555 1_555
H15B O13B 1_555 1_555
O14B Cd2B 1_555 1_555
O15B Cd2B 1_555 1_555
H16B O15B 1_555 1_555
H17B O15B 1_555 1_555
C35B H27B 1_555 1_555
H28B C35B 1_555 1_555
N1B C35B 1_555 1_555
C36B O14B 1_555 1_555
C37B C36B 1_555 1_555
H29B C37B 1_555 1_555
H30B C37B 1_555 1_555
C38B C35B 1_555 1_555
H31B C38B 1_555 1_555
H32B C38B 1_555 1_555
C39B N1B 1_555 1_555
H33B C39B 1_555 1_555
H34B C39B 1_555 1_555
H35B C39B 1_555 1_555
Cd1A O3 1_555 1_555
Cd1A_2 O5 1_555 1_555
Cd1B_2 O1B 1_555 1_555
Cd1C O5B 1_555 1_555
Cd2A O3 1_555 1_555
Cd2A_2 O5 1_555 1_555
Cd2C O5B 1_555 1_555
O1B_2 Cd1B 1_555 1_555
O2B_2 Cd1B 1_555 1_555
O3A Cd1 1_555 1_555
O3C Cd1B 1_555 1_555
O4A Cd1 1_555 1_555
O4C Cd1B 1_555 1_555
O5A Cd1 1_555 1_555
O5C Cd1B 1_555 1_555
O8A Cd1 1_555 1_555
O8C Cd1B 1_555 1_555
Cd2 O3A 1_555 1_555
Cd2 O5A 1_555 1_555
C4 C8 1_555 1_555
C8 C12 1_555 1_555
C9 C10 1_555 1_555
C11 C19 1_555 1_555
C16 C22 1_555 1_555
O8 Cd1A 1_555 1_555
C24 C27 1_555 1_555
C26 C28B 1_555 1_555
O11 C31 1_555 1_555
N1 C36 1_555 1_555
C37 C38 1_555 1_555
O2B Cd1B_2 1_555 1_555
C8B C12B 1_555 1_555
C9B C10B 1_555 1_555
C14B C24B 1_555 1_555
C14B C28B 1_555 1_555
C24B C27B 1_555 1_555
O3B Cd1C 1_555 1_555
O3B Cd2C 1_555 1_555
C11B C19B 1_555 1_555
C13B C15B 1_555 1_555
C13B C17B 1_555 1_555
C16B C22B 1_555 1_555
C17B C25B 1_555 1_555
O8B Cd1C 1_555 1_555
C23B C30B 1_555 1_555
Cd2B O3C 1_555 1_555
Cd2B O5C 1_555 1_555
N1B C36B 1_555 1_555
C37B C38B 1_555 1_555

#END
