
#######################################################################
#
#                 Cambridge Crystallographic Data Centre
#                                CCDC 
#
#######################################################################
#
# If this CIF has been generated from an entry in the Cambridge 
# Structural Database, then it will include bibliographic, chemical, 
# crystal, experimental, refinement or atomic coordinate data resulting 
# from the CCDC's data processing and validation procedures.
#
#######################################################################

data_LITKIJ
_symmetry_cell_setting           orthorhombic
_symmetry_space_group_name_H-M   'P n a 21'
_symmetry_Int_Tables_number      33
_space_group_name_Hall           'P 2c -2n'
loop_
_symmetry_equiv_pos_site_id
_symmetry_equiv_pos_as_xyz
1 x,y,z
2 -x,-y,1/2+z
3 1/2-x,1/2+y,1/2+z
4 1/2+x,1/2-y,z
_cell_length_a                   16.743(9)
_cell_length_b                   14.723(8)
_cell_length_c                   14.352(8)
_cell_angle_alpha                90
_cell_angle_beta                 90
_cell_angle_gamma                90
_cell_volume                     3537.87
loop_
_atom_site_label
_atom_site_type_symbol
_atom_site_fract_x
_atom_site_fract_y
_atom_site_fract_z
O1 O -0.8836(4) -0.0728(4) 0.5885(6)
H1 H -0.8357 -0.0721 0.6005
C1 C -0.9152(6) -0.1609(6) 0.6079(6)
H2 H -0.9083 -0.1762 0.6732
H3 H -0.8887 -0.2067 0.5703
C2 C -1.0031(8) -0.1548(8) 0.5831(9)
H4 H -1.0270 -0.1053 0.6166
H5 H -1.0292 -0.2105 0.5998
H6 H -1.0086 -0.1446 0.5174
C3 C -1.0967(8) -0.0522(10) 0.3342(9)
H7 H -1.0418 -0.0684 0.3243
H8 H -1.1276 -0.0684 0.2803
H9 H -1.1168 -0.0842 0.3876
C4 C -1.1027(8) 0.0458(9) 0.3502(7)
H10 H -1.0599 0.0763 0.3171
H11 H -1.1530 0.0677 0.3253
O2 O -1.0981(4) 0.0681(4) 0.4461(4)
H12 H -1.1350 0.0436 0.4741
O3 O -0.9769(3) 0.0899(3) 0.5803(3)
H13 H -0.9434 0.0468 0.5738
H14 H -1.0130 0.0831 0.5390
C5 C -0.46180(18) 0.2119(2) 0.3186(3)
C6 C -0.3265(2) 0.4073(3) 0.3812(3)
H15 H -0.3258 0.4549 0.4238
C7 C -0.7730(2) -0.1630(2) 0.3691(3)
H16 H -0.7313 -0.1701 0.4114
C8 C -1.0430(2) -0.3997(2) 0.3829(3)
H17 H -1.0485 -0.4406 0.4319
C9 C -0.89946(19) -0.2161(2) 0.3085(3)
C10 C -0.8963(2) -0.1443(3) 0.2460(3)
H18 H -0.9376 -0.1352 0.2037
C11 C -0.96894(18) -0.2793(2) 0.3112(3)
C12 C -0.39192(18) 0.2747(2) 0.3205(3)
C13 C -1.0899(2) -0.3403(2) 0.2452(3)
H19 H -1.1286 -0.3385 0.1988
C14 C -0.8305(2) -0.0854(2) 0.2468(3)
H20 H -0.8284 -0.0388 0.2031
C15 C -0.5874(2) 0.1580(2) 0.3771(3)
H21 H -0.6282 0.1629 0.4208
C16 C -0.9794(2) -0.3407(3) 0.3840(3)
H22 H -0.9434 -0.3418 0.4334
C17 C -0.5334(2) 0.0866(3) 0.2494(3)
H23 H -0.5359 0.0421 0.2035
C18 C -0.2668(2) 0.3300(2) 0.2592(3)
H24 H -0.2245 0.3235 0.2177
C19 C -0.5236(2) 0.2184(3) 0.3823(3)
H25 H -0.5224 0.2628 0.4284
C20 C -0.3890(2) 0.3463(3) 0.3844(3)
H26 H -0.4289 0.3528 0.4289
C21 C -0.8360(2) -0.2249(2) 0.3714(3)
H27 H -0.8359 -0.2720 0.4146
C22 C -0.3282(2) 0.2661(3) 0.2575(3)
H28 H -0.3270 0.2184 0.2151
C23 C -1.0264(2) -0.2800(3) 0.2402(3)
H29 H -1.0220 -0.2403 0.1900
C24 C -0.4676(2) 0.1451(3) 0.2515(3)
H30 H -0.4273 0.1389 0.2073
C25 C -0.6559(4) -0.0468(4) -0.0223(4)
C26 C -0.7020(5) 0.0997(5) 0.6346(4)
N1 N -0.77001(15) -0.09358(17) 0.3086(2)
N2 N -1.09769(16) -0.40112(17) 0.3141(2)
N3 N -0.59285(15) 0.09288(17) 0.3116(2)
N4 N -0.26622(15) 0.40083(17) 0.3188(2)
O4 O -0.68034(18) -0.00381(18) 0.1479(3)
O5 O -0.6903(2) 0.0047(2) 0.4824(3)
O6 O -0.6626(3) 0.1184(3) 0.0409(3)
O7 O -0.7862(2) 0.0311(4) 0.0399(3)
O8 O -0.5833(3) -0.0036(3) 0.5968(3)
O9 O -0.7096(3) -0.0767(3) 0.6287(3)
F1 F -0.5778(2) -0.0505(3) -0.0100(3)
F2 F -0.6674(3) 0.1713(3) 0.5990(3)
F3 F -0.7810(3) 0.1108(4) 0.6222(4)
F4 F -0.6897(3) 0.0994(4) 0.7257(3)
F5 F -0.6850(3) -0.1300(4) -0.0090(4)
F6 F -0.6711(4) -0.0217(5) -0.1101(3)
S1 S -0.70199(6) 0.03388(7) 0.05971(8)
S2 S -0.66836(8) -0.00512(8) 0.58055(9)
Cu1 Cu -0.682161(19) 0.00010(2) 0.31243(4)
N2C N -0.59769(16) -0.09888(17) 0.3141(2)
N4C N -0.76622(15) 0.09917(17) 0.3188(2)
Cu1C Cu -1.182161(19) -0.50010(2) 0.31243(4)
Cu1C_2 Cu -0.182161(19) 0.49990(2) 0.31243(4)
loop_
_geom_bond_atom_site_label_1
_geom_bond_atom_site_label_2
_geom_bond_site_symmetry_1
_geom_bond_site_symmetry_2
O1 H1 1_555 1_555
C1 O1 1_555 1_555
H2 C1 1_555 1_555
H3 C1 1_555 1_555
C2 C1 1_555 1_555
H4 C2 1_555 1_555
H5 C2 1_555 1_555
H6 C2 1_555 1_555
C3 H7 1_555 1_555
H8 C3 1_555 1_555
H9 C3 1_555 1_555
C4 C3 1_555 1_555
H10 C4 1_555 1_555
H11 C4 1_555 1_555
O2 C4 1_555 1_555
H12 O2 1_555 1_555
O3 H13 1_555 1_555
H14 O3 1_555 1_555
C5 C12 1_555 1_555
C6 H15 1_555 1_555
C7 H16 1_555 1_555
C8 H17 1_555 1_555
C9 C10 1_555 1_555
C10 H18 1_555 1_555
C11 C9 1_555 1_555
C12 C20 1_555 1_555
C13 H19 1_555 1_555
C14 C10 1_555 1_555
H20 C14 1_555 1_555
C15 H21 1_555 1_555
C16 C8 1_555 1_555
H22 C16 1_555 1_555
C17 H23 1_555 1_555
C18 H24 1_555 1_555
C19 C5 1_555 1_555
H25 C19 1_555 1_555
C20 C6 1_555 1_555
H26 C20 1_555 1_555
C21 C7 1_555 1_555
H27 C21 1_555 1_555
C22 C12 1_555 1_555
H28 C22 1_555 1_555
C23 C11 1_555 1_555
H29 C23 1_555 1_555
C24 C5 1_555 1_555
H30 C24 1_555 1_555
C25 F1 1_555 1_555
C26 F2 1_555 1_555
N1 C7 1_555 1_555
N2 C8 1_555 1_555
N3 C15 1_555 1_555
N4 C6 1_555 1_555
O4 S1 1_555 1_555
O5 S2 1_555 1_555
O6 S1 1_555 1_555
O7 S1 1_555 1_555
O8 S2 1_555 1_555
O9 S2 1_555 1_555
F3 C26 1_555 1_555
F4 C26 1_555 1_555
F5 C25 1_555 1_555
F6 C25 1_555 1_555
S1 C25 1_555 1_555
S2 C26 1_555 1_555
Cu1 N1 1_555 1_555
N2C Cu1 1_555 1_555
N4C Cu1 1_555 1_555
Cu1C N2 1_555 1_555
Cu1C_2 N4 1_555 1_555
C9 C21 1_555 1_555
C11 C16 1_555 1_555
C13 C23 1_555 1_555
C13 N2 1_555 1_555
C14 N1 1_555 1_555
C15 C19 1_555 1_555
C17 C24 1_555 1_555
C17 N3 1_555 1_555
C18 C22 1_555 1_555
C18 N4 1_555 1_555
N3 Cu1 1_555 1_555
O4 Cu1 1_555 1_555
O5 Cu1 1_555 1_555

#END
