
#######################################################################
#
#                 Cambridge Crystallographic Data Centre
#                                CCDC 
#
#######################################################################
#
# If this CIF has been generated from an entry in the Cambridge 
# Structural Database, then it will include bibliographic, chemical, 
# crystal, experimental, refinement or atomic coordinate data resulting 
# from the CCDC's data processing and validation procedures.
#
#######################################################################

data_LIWVIY
_symmetry_cell_setting           triclinic
_symmetry_space_group_name_H-M   'P -1'
_symmetry_Int_Tables_number      2
_space_group_name_Hall           '-P 1'
loop_
_symmetry_equiv_pos_site_id
_symmetry_equiv_pos_as_xyz
1 x,y,z
2 -x,-y,-z
_cell_length_a                   11.135(5)
_cell_length_b                   12.380(6)
_cell_length_c                   14.607(7)
_cell_angle_alpha                84.662(12)
_cell_angle_beta                 89.537(11)
_cell_angle_gamma                67.261(10)
_cell_volume                     1848.18
loop_
_atom_site_label
_atom_site_type_symbol
_atom_site_fract_x
_atom_site_fract_y
_atom_site_fract_z
Ag1 Ag 1.27092(6) 0.51881(5) 0.73996(4)
Ag2 Ag 0.82223(5) 0.90341(5) 0.91585(4)
Ag3 Ag 0.24109(6) 1.09228(5) 0.59621(4)
N1 N 1.0960(5) 0.6276(4) 0.6337(4)
N2 N 0.8955(5) 0.7760(5) 0.5133(4)
N3 N 1.1044(5) 1.0334(4) 0.7003(4)
N4 N 0.9600(5) 0.9615(4) 0.8291(4)
S1 S 1.01157(17) 0.75436(13) 0.77545(11)
C1 C 1.0834(7) 0.6032(6) 0.5486(5)
H1 H 1.1439 0.5342 0.5289
C2 C 0.9850(7) 0.6755(6) 0.4884(5)
H2 H 0.9805 0.6543 0.4295
C3 C 0.9043(6) 0.7990(5) 0.5984(4)
H3 H 0.8414 0.8664 0.6186
C4 C 1.0027(6) 0.7274(4) 0.6582(4)
C5 C 1.0237(6) 0.8937(5) 0.7646(4)
C6 C 1.0964(6) 0.9280(5) 0.7016(4)
H4 H 1.1414 0.8772 0.6587
C7 C 1.0416(7) 1.1009(5) 0.7655(5)
H5 H 1.0461 1.1741 0.7673
C8 C 0.9706(7) 1.0657(5) 0.8300(5)
H6 H 0.9293 1.1147 0.8750
N5 N 0.6342(5) 0.9510(5) 0.8165(4)
N6 N 0.4227(5) 1.0227(5) 0.6930(4)
N7 N 0.2472(5) 1.3900(4) 0.8511(4)
N8 N 0.1976(5) 1.2311(5) 0.9780(4)
S2 S 0.33227(18) 1.24516(14) 0.72383(12)
C9 C 0.6127(7) 0.8760(6) 0.7656(5)
H7 H 0.6702 0.7975 0.7721
C10 C 0.5087(7) 0.9098(6) 0.7034(5)
H8 H 0.4980 0.8546 0.6688
C11 C 0.4425(6) 1.0963(5) 0.7450(4)
C12 C 0.5470(7) 1.0626(6) 0.8056(5)
H9 H 0.5576 1.1182 0.8398
C13 C 0.2498(6) 1.2002(5) 0.8965(4)
H10 H 0.2695 1.1238 0.8819
C14 C 0.2747(6) 1.2787(5) 0.8343(4)
C15 C 0.1935(7) 1.4212(6) 0.9319(5)
H11 H 0.1709 1.4983 0.9456
C16 C 0.1713(7) 1.3431(6) 0.9940(5)
H12 H 0.1365 1.3680 1.0501
S3 S 0.6560(7) 1.1431(5) 1.0478(4)
O1 O 0.6838(8) 1.1460(6) 1.1428(4)
O2 O 0.7694(16) 1.0981(18) 0.9928(16)
O3 O 0.5373(14) 1.1308(19) 1.0226(11)
C17 C 0.5908(9) 1.2863(6) 1.0016(5)
F1 F 0.4774(8) 1.3213(13) 1.0383(9)
F2 F 0.6318(16) 1.3636(8) 1.0276(7)
F3 F 0.5786(9) 1.3051(7) 0.9125(5)
O4 O 1.3555(7) 0.6657(6) 0.7427(5)
H13 H 1.4421 0.6491 0.7190
H14 H 1.3862 0.6690 0.8046
H15 H 1.4656 0.5226 0.5989
H16 H 1.5219 0.3968 0.6400
O5 O 1.4126(7) 0.4675(5) 0.6106(5)
Ag1_2 Ag 0.27092(6) 1.51881(5) 0.73996(4)
Ag2A Ag 0.17777(5) 1.09659(5) 1.08415(4)
Ag3_2 Ag 1.24109(6) 1.09228(5) 0.59621(4)
Ag3A Ag 0.75891(6) 0.90772(5) 0.40379(4)
N2A N 0.1045(5) 1.2240(5) 0.4867(4)
N3_2 N 0.1044(5) 1.0334(4) 0.7003(4)
N7_2 N 1.2472(5) 0.3900(4) 0.8511(4)
N8A N 0.8024(5) 0.7689(5) 1.0220(4)
S5 S 0.10055(19) 0.51319(15) 0.25467(14)
O8 O -0.0104(5) 0.6157(5) 0.2709(4)
O9 O 0.0748(7) 0.4368(5) 0.1979(5)
O10 O 0.1755(7) 0.4580(7) 0.3374(5)
F4 F 0.3064(7) 0.4818(6) 0.1612(6)
F5 F 0.1386(8) 0.6247(7) 0.1095(5)
F6 F 0.2392(7) 0.6392(7) 0.2263(5)
C18 C 0.2045(10) 0.5664(8) 0.1858(6)
S6 S 0.36512(19) 0.85953(16) 0.46357(16)
O11 O 0.3412(8) 0.9703(6) 0.4196(9)
O12 O 0.3310(7) 0.8597(9) 0.5570(5)
O13 O 0.4906(5) 0.7746(4) 0.4468(4)
C19 C 0.2499(14) 0.8104(14) 0.4193(11)
F7 F 0.1305(7) 0.8743(8) 0.4378(7)
F8 F 0.2711(9) 0.7066(7) 0.4351(9)
F9 F 0.2703(14) 0.8266(14) 0.3231(7)
O14 O 1.5619(7) 0.6146(7) 0.6156(6)
S4? S 0.7116(5) 1.1561(5) 1.0489(4)
O6? O 0.8198(17) 1.182(2) 1.0262(14)
O7? O 0.703(3) 1.0683(16) 0.9992(15)
loop_
_geom_bond_atom_site_label_1
_geom_bond_atom_site_label_2
_geom_bond_site_symmetry_1
_geom_bond_site_symmetry_2
Ag1 N1 1_555 1_555
Ag2 N4 1_555 1_555
Ag3 N6 1_555 1_555
N1 C1 1_555 1_555
N2 C2 1_555 1_555
N3 C6 1_555 1_555
N4 C5 1_555 1_555
S1 C4 1_555 1_555
C1 H1 1_555 1_555
C2 C1 1_555 1_555
H2 C2 1_555 1_555
C3 N2 1_555 1_555
H3 C3 1_555 1_555
C4 N1 1_555 1_555
C5 S1 1_555 1_555
C6 C5 1_555 1_555
H4 C6 1_555 1_555
C7 N3 1_555 1_555
H5 C7 1_555 1_555
C8 N4 1_555 1_555
H6 C8 1_555 1_555
N5 Ag2 1_555 1_555
N6 C10 1_555 1_555
N7 C14 1_555 1_555
N8 C13 1_555 1_555
S2 C11 1_555 1_555
C9 N5 1_555 1_555
H7 C9 1_555 1_555
C10 C9 1_555 1_555
H8 C10 1_555 1_555
C11 N6 1_555 1_555
C12 N5 1_555 1_555
H9 C12 1_555 1_555
C13 H10 1_555 1_555
C14 S2 1_555 1_555
C15 N7 1_555 1_555
H11 C15 1_555 1_555
C16 N8 1_555 1_555
H12 C16 1_555 1_555
S3 O1 1_555 1_555
O2 Ag2 1_555 1_555
O3 S3 1_555 1_555
C17 S3 1_555 1_555
F1 C17 1_555 1_555
F2 C17 1_555 1_555
F3 C17 1_555 1_555
O4 Ag1 1_555 1_555
H13 O4 1_555 1_555
H14 O4 1_555 1_555
H15 O5 1_555 1_555
H16 O5 1_555 1_555
O5 Ag1 1_555 1_555
S5 O8 1_555 1_555
O9 S5 1_555 1_555
O10 S5 1_555 1_555
F4 C18 1_555 1_555
F5 C18 1_555 1_555
F6 C18 1_555 1_555
C18 S5 1_555 1_555
S6 O11 1_555 1_555
O12 S6 1_555 1_555
O13 S6 1_555 1_555
C19 S6 1_555 1_555
F7 C19 1_555 1_555
F8 C19 1_555 1_555
F9 C19 1_555 1_555
Ag1_2 N7 1_555 1_555
Ag2A N8 1_555 1_555
Ag3_2 N3 1_555 1_555
Ag3A N2 1_555 1_555
N2A Ag3 1_555 1_555
N3_2 Ag3 1_555 1_555
N7_2 Ag1 1_555 1_555
N8A Ag2 1_555 1_555
C3 C4 1_555 1_555
C7 C8 1_555 1_555
C11 C12 1_555 1_555
C13 C14 1_555 1_555
C15 C16 1_555 1_555
S3 O2 1_555 1_555

#END
