
#######################################################################
#
#                 Cambridge Crystallographic Data Centre
#                                CCDC 
#
#######################################################################
#
# If this CIF has been generated from an entry in the Cambridge 
# Structural Database, then it will include bibliographic, chemical, 
# crystal, experimental, refinement or atomic coordinate data resulting 
# from the CCDC's data processing and validation procedures.
#
#######################################################################

data_LIXWAR
_symmetry_cell_setting           monoclinic
_symmetry_space_group_name_H-M   'C 2/c'
_symmetry_Int_Tables_number      15
_space_group_name_Hall           '-C 2yn'
loop_
_symmetry_equiv_pos_site_id
_symmetry_equiv_pos_as_xyz
1 x,y,z
2 1/2+x,1/2+y,z
3 -x,y,1/2-z
4 1/2-x,1/2+y,1/2-z
5 -x,-y,-z
6 1/2-x,1/2-y,-z
7 x,-y,1/2+z
8 1/2+x,1/2-y,1/2+z
_cell_length_a                   13.354(3)
_cell_length_b                   18.042(4)
_cell_length_c                   21.255(4)
_cell_angle_alpha                90
_cell_angle_beta                 99.79(3)
_cell_angle_gamma                90
_cell_volume                     5046.45
loop_
_atom_site_label
_atom_site_type_symbol
_atom_site_fract_x
_atom_site_fract_y
_atom_site_fract_z
Mn1 Mn 0.5000 0.24737(5) 0.7500
Mn2 Mn 0.25840(6) 0.25876(4) 0.80790(3)
O1 O 0.3352(2) 0.24332(17) 0.72031(13)
O2 O 0.3413(3) 0.3518(2) 0.84059(16)
O3 O 0.4985(3) 0.33086(19) 0.82224(14)
O4 O 0.1914(3) 0.3034(2) 0.71326(14)
O5 O 0.3533(3) 0.1888(2) 0.87047(16)
O6 O 0.1367(4) 0.2881(3) 0.8537(2)
O7 O 0.1739(4) 0.1548(3) 0.7761(2)
O8 O 0.4787(3) 0.1608(2) 0.81649(14)
C1 C 0.2862(4) 0.2257(3) 0.51748(19)
C2 C 0.5525(3) 0.5030(3) 1.01035(19)
C3 C 0.2595(4) 0.2757(3) 0.68737(19)
C4 C 0.3403(4) 0.1761(3) 0.4839(2)
H1 H 0.3869 0.1434 0.5066
C5 C 0.3015(4) 0.2287(3) 0.58541(19)
H2 H 0.3498 0.1980 0.6090
C6 C 0.5815(4) 0.4191(3) 0.9269(2)
H3 H 0.6261 0.3935 0.9055
C7 C 0.2472(3) 0.2755(3) 0.61626(19)
C8 C 0.6198(4) 0.4628(3) 0.9776(2)
H4 H 0.6896 0.4664 0.9908
C9 C 0.4276(4) 0.1505(3) 0.8605(2)
C10 C 0.4358(4) 0.3601(3) 0.85190(19)
C11 C 0.4104(4) 0.4503(3) 0.9370(2)
H5 H 0.3407 0.4458 0.9231
C12 C 0.4768(4) 0.4116(3) 0.90623(19)
C13 C 0.4298(4) 0.0196(3) 1.0668(2)
H6 H 0.3829 0.0535 1.0775
C14 C 0.4260(4) 0.0814(3) 0.9622(2)
H7 H 0.3768 0.1143 0.9713
C15 C 0.1749(4) 0.3244(3) 0.5811(2)
H8 H 0.1380 0.3567 0.6024
C16 C 0.4635(3) 0.0252(3) 1.0076(2)
C17 C 0.4612(4) 0.0875(3) 0.9059(2)
C18 C 0.5336(4) 0.0358(3) 0.8914(2)
H9 H 0.5569 0.0395 0.8527
C19 C 0.0594(6) 0.2500(4) 0.8552(4)
H10 H 0.0061 0.2540 0.8209
C20 C 0.2318(12) 0.1069(11) 0.7626(7)
H11 H 0.2894 0.1250 0.7485
N1 N 0.0479(5) 0.2056(3) 0.9006(3)
N2 N 0.2260(7) 0.0336(6) 0.7647(5)
C21 C -0.0387(7) 0.1567(6) 0.8973(5)
H12 H -0.0740 0.1542 0.8540
H13 H -0.0837 0.1754 0.9243
H14 H -0.0158 0.1081 0.9113
C22 C 0.1257(11) 0.2026(8) 0.9570(6)
H15 H 0.1521 0.1530 0.9625
H16 H 0.0970 0.2165 0.9937
H17 H 0.1797 0.2361 0.9521
C23 C 0.3059(13) -0.0147(11) 0.7447(9)
H18 H 0.2746 -0.0578 0.7231
H19 H 0.3532 -0.0298 0.7816
H20 H 0.3413 0.0123 0.7163
C24 C 0.1554(17) 0.0039(13) 0.7853(10)
H21 H 0.1309 0.0367 0.8149
H22 H 0.1786 -0.0414 0.8066
H23 H 0.1014 -0.0066 0.7505
Mn1E Mn 0.0000 0.25263(5) 0.2500
Mn1D Mn 0.5000 0.75263(5) 1.2500
Mn1D_2 Mn 0.5000 -0.24737(5) 1.2500
Mn2E Mn 0.24160(6) 0.24124(4) 0.19210(3)
Mn2D Mn 0.74160(6) 0.74124(4) 1.19210(3)
Mn2D_2 Mn 0.74160(6) -0.25876(4) 1.19210(3)
O1E O 0.1648(2) 0.25668(17) 0.27969(13)
O1B O 0.6648(2) 0.24332(17) 0.77969(13)
O2D O 0.6587(3) 0.6482(2) 1.15941(16)
O2E O 0.1587(3) 0.1482(2) 0.15941(16)
O3D O 0.5015(3) 0.66914(19) 1.17776(14)
O3B O 0.5015(3) 0.33086(19) 0.67776(14)
O4E O 0.3086(3) 0.1966(2) 0.28674(14)
O5D O 0.6467(3) -0.1888(2) 1.12953(16)
O5E O 0.1467(3) 0.3112(2) 0.12953(16)
O6E O 0.3633(4) 0.2119(3) 0.1463(2)
O7E O 0.3261(4) 0.3452(3) 0.2239(2)
O8D O 0.5213(3) -0.1608(2) 1.18351(14)
O8B O 0.5213(3) 0.1608(2) 0.68351(14)
C1E C 0.2138(4) 0.2743(3) 0.48252(19)
C2D C 0.4475(3) 0.4970(3) 0.98965(19)
C3E C 0.2405(4) 0.2243(3) 0.31263(19)
C4E C 0.1597(4) 0.3239(3) 0.5161(2)
H1E H 0.1131 0.3566 0.4934
C5E C 0.1985(4) 0.2713(3) 0.41459(19)
H2E H 0.1502 0.3020 0.3910
C6D C 0.4185(4) 0.5809(3) 1.0731(2)
H3D H 0.3739 0.6065 1.0945
C7E C 0.2528(3) 0.2245(3) 0.38374(19)
C8D C 0.3802(4) 0.5372(3) 1.0224(2)
H4D H 0.3104 0.5336 1.0092
C9D C 0.5724(4) -0.1505(3) 1.1395(2)
C10D C 0.5642(4) 0.6399(3) 1.14810(19)
C11D C 0.5896(4) 0.5497(3) 1.0630(2)
H5D H 0.6593 0.5542 1.0769
C12D C 0.5232(4) 0.5884(3) 1.09377(19)
C13D C 0.5702(4) -0.0196(3) 0.9332(2)
H6D H 0.6171 -0.0535 0.9225
C14D C 0.5740(4) -0.0814(3) 1.0378(2)
H7D H 0.6232 -0.1143 1.0287
C15E C 0.3251(4) 0.1756(3) 0.4189(2)
H8E H 0.3620 0.1433 0.3976
C16D C 0.5365(3) -0.0252(3) 0.9924(2)
C17D C 0.5388(4) -0.0875(3) 1.0941(2)
C18D C 0.4664(4) -0.0358(3) 1.1086(2)
H9D H 0.4431 -0.0395 1.1473
C19E C 0.4406(6) 0.2500(4) 0.1448(4)
H10E H 0.4939 0.2460 0.1791
C20E C 0.2682(12) 0.3931(11) 0.2374(7)
H11E H 0.2106 0.3750 0.2515
N1E N 0.4521(5) 0.2944(3) 0.0994(3)
N2E N 0.2740(7) 0.4664(6) 0.2353(5)
C21E C 0.5387(7) 0.3433(6) 0.1027(5)
H12E H 0.5740 0.3458 0.1460
H13E H 0.5837 0.3246 0.0757
H14E H 0.5158 0.3919 0.0887
C22E C 0.3743(11) 0.2974(8) 0.0430(6)
H15E H 0.3479 0.3470 0.0375
H16E H 0.4030 0.2835 0.0063
H17E H 0.3203 0.2639 0.0479
C23E C 0.1941(13) 0.5147(11) 0.2553(9)
H18E H 0.2254 0.5578 0.2769
H19E H 0.1468 0.5298 0.2184
H20E H 0.1587 0.4877 0.2837
C24E C 0.3446(17) 0.4961(13) 0.2147(10)
H21E H 0.3691 0.4633 0.1851
H22E H 0.3214 0.5414 0.1934
H23E H 0.3986 0.5066 0.2495
loop_
_geom_bond_atom_site_label_1
_geom_bond_atom_site_label_2
_geom_bond_site_symmetry_1
_geom_bond_site_symmetry_2
Mn1 O1 1_555 1_555
Mn2 O1 1_555 1_555
O1 C3 1_555 1_555
O2 Mn2 1_555 1_555
O3 Mn1 1_555 1_555
O4 Mn2 1_555 1_555
O5 Mn2 1_555 1_555
O6 Mn2 1_555 1_555
O7 Mn2 1_555 1_555
O8 Mn1 1_555 1_555
C1 C4 1_555 1_555
C2 C8 1_555 1_555
C3 O4 1_555 1_555
C4 H1 1_555 1_555
C5 C1 1_555 1_555
H2 C5 1_555 1_555
C6 H3 1_555 1_555
C7 C3 1_555 1_555
C8 C6 1_555 1_555
H4 C8 1_555 1_555
C9 O5 1_555 1_555
C10 O2 1_555 1_555
C11 H5 1_555 1_555
C12 C6 1_555 1_555
C13 H6 1_555 1_555
C14 H7 1_555 1_555
C15 C7 1_555 1_555
H8 C15 1_555 1_555
C16 C13 1_555 1_555
C17 C9 1_555 1_555
C18 C17 1_555 1_555
H9 C18 1_555 1_555
C19 O6 1_555 1_555
H10 C19 1_555 1_555
C20 O7 1_555 1_555
H11 C20 1_555 1_555
N1 C19 1_555 1_555
N2 C20 1_555 1_555
C21 N1 1_555 1_555
H12 C21 1_555 1_555
H13 C21 1_555 1_555
H14 C21 1_555 1_555
C22 N1 1_555 1_555
H15 C22 1_555 1_555
H16 C22 1_555 1_555
H17 C22 1_555 1_555
C23 N2 1_555 1_555
H18 C23 1_555 1_555
H19 C23 1_555 1_555
H20 C23 1_555 1_555
C24 N2 1_555 1_555
H21 C24 1_555 1_555
H22 C24 1_555 1_555
H23 C24 1_555 1_555
Mn1E O1E 1_555 1_555
Mn1D O3D 1_555 1_555
Mn1D_2 O8D 1_555 1_555
Mn2E O1E 1_555 1_555
Mn2D O2D 1_555 1_555
Mn2D_2 O5D 1_555 1_555
O1E C3E 1_555 1_555
O1B Mn1 1_555 1_555
O2D C10D 1_555 1_555
O2E Mn2E 1_555 1_555
O3D C10D 1_555 1_555
O3B Mn1 1_555 1_555
O4E Mn2E 1_555 1_555
O5D C9D 1_555 1_555
O5E Mn2E 1_555 1_555
O6E Mn2E 1_555 1_555
O7E Mn2E 1_555 1_555
O8D C9D 1_555 1_555
O8B Mn1 1_555 1_555
C1E C1 1_555 1_555
C2D C2 1_555 1_555
C3E O4E 1_555 1_555
C4E C15 1_555 1_555
H1E C4E 1_555 1_555
C5E C1E 1_555 1_555
H2E C5E 1_555 1_555
C6D H3D 1_555 1_555
C7E C3E 1_555 1_555
C8D C2D 1_555 1_555
H4D C8D 1_555 1_555
C9D C17D 1_555 1_555
C10D C12D 1_555 1_555
C11D C2 1_555 1_555
H5D C11D 1_555 1_555
C12D C6D 1_555 1_555
C13D C18 1_555 1_555
H6D C13D 1_555 1_555
C14D H7D 1_555 1_555
C15E C4 1_555 1_555
H8E C15E 1_555 1_555
C16D C16 1_555 1_555
C17D C14D 1_555 1_555
C18D C13 1_555 1_555
H9D C18D 1_555 1_555
C19E O6E 1_555 1_555
H10E C19E 1_555 1_555
C20E O7E 1_555 1_555
H11E C20E 1_555 1_555
N1E C19E 1_555 1_555
N2E C20E 1_555 1_555
C21E N1E 1_555 1_555
H12E C21E 1_555 1_555
H13E C21E 1_555 1_555
H14E C21E 1_555 1_555
C22E N1E 1_555 1_555
H15E C22E 1_555 1_555
H16E C22E 1_555 1_555
H17E C22E 1_555 1_555
C23E N2E 1_555 1_555
H18E C23E 1_555 1_555
H19E C23E 1_555 1_555
H20E C23E 1_555 1_555
C24E N2E 1_555 1_555
H21E C24E 1_555 1_555
H22E C24E 1_555 1_555
H23E C24E 1_555 1_555
O3 C10 1_555 1_555
O8 C9 1_555 1_555
C5 C7 1_555 1_555
C10 C12 1_555 1_555
C11 C12 1_555 1_555
C11 C2D 1_555 1_555
C14 C16 1_555 1_555
C14 C17 1_555 1_555
C1E C4E 1_555 1_555
C5E C7E 1_555 1_555
C6D C8D 1_555 1_555
C7E C15E 1_555 1_555
C11D C12D 1_555 1_555
C13D C16D 1_555 1_555
C14D C16D 1_555 1_555
C17D C18D 1_555 1_555

#END
