
#######################################################################
#
#                 Cambridge Crystallographic Data Centre
#                                CCDC 
#
#######################################################################
#
# If this CIF has been generated from an entry in the Cambridge 
# Structural Database, then it will include bibliographic, chemical, 
# crystal, experimental, refinement or atomic coordinate data resulting 
# from the CCDC's data processing and validation procedures.
#
#######################################################################

data_LOCZOU
_symmetry_cell_setting           monoclinic
_symmetry_space_group_name_H-M   'P 21/n'
_symmetry_Int_Tables_number      14
_space_group_name_Hall           '-P 2yn'
loop_
_symmetry_equiv_pos_site_id
_symmetry_equiv_pos_as_xyz
1 x,y,z
2 1/2-x,1/2+y,1/2-z
3 -x,-y,-z
4 1/2+x,1/2-y,1/2+z
_cell_length_a                   13.1181(8)
_cell_length_b                   18.3396(11)
_cell_length_c                   21.5614(13)
_cell_angle_alpha                90
_cell_angle_beta                 101.5580(10)
_cell_angle_gamma                90
_cell_volume                     5082.07
loop_
_atom_site_label
_atom_site_type_symbol
_atom_site_fract_x
_atom_site_fract_y
_atom_site_fract_z
C1 C 0.9432(6) 0.8251(4) 0.0163(3)
C2 C 0.9664(10) 0.8105(5) -0.0426(4)
H1 H 1.0046 0.7692 -0.0483
C3 C 0.9324(12) 0.8576(7) -0.0930(3)
H2 H 0.9479 0.8478 -0.1324
C4 C 0.8752(12) 0.9193(7) -0.0844(5)
H3 H 0.8525 0.9508 -0.1182
C5 C 0.8520(12) 0.9339(6) -0.0255(6)
H4 H 0.8138 0.9752 -0.0198
C6 C 0.8860(9) 0.8868(5) 0.0249(4)
H5 H 0.8705 0.8966 0.0643
C7 C 0.7857(5) 0.8622(3) 0.1946(3)
C8 C 0.7240(5) 0.9268(3) 0.2086(3)
C9 C 0.7654(6) 0.9775(4) 0.2549(3)
H6 H 0.8343 0.9736 0.2762
C10 C 0.7039(5) 1.0331(4) 0.2689(3)
H7 H 0.7325 1.066 0.3003
C11 C 0.5673(6) 0.9949(4) 0.1941(3)
H8 H 0.4992 1.0013 0.1721
C12 C 0.6235(6) 0.9371(4) 0.1779(4)
H9 H 0.5931 0.9052 0.146
C13 C 0.3226(6) 0.6960(4) 0.1766(4)
C14 C 0.4353(6) 0.6893(5) 0.1686(4)
C15 C 0.4596(6) 0.6620(5) 0.1150(4)
H10 H 0.4075 0.6451 0.0824
C16 C 0.5623(7) 0.6594(5) 0.1092(4)
H11 H 0.5771 0.6379 0.073
C17 C 0.6167(6) 0.7124(5) 0.2040(4)
H12 H 0.6698 0.7313 0.235
C18 C 0.5147(6) 0.7143(5) 0.2153(4)
H13 H 0.5013 0.7319 0.2533
C19 C 1.0515(5) 0.7180(3) 0.3427(3)
C20 C 1.1064(5) 0.7304(4) 0.4102(3)
C21 C 1.1836(7) 0.7823(5) 0.4234(3)
H14 H 1.2008 0.8104 0.3911
C22 C 1.2346(7) 0.7919(5) 0.4850(4)
H15 H 1.2896 0.8249 0.4931
C23 C 1.1397(8) 0.7047(5) 0.5197(3)
H16 H 1.1228 0.677 0.5523
C24 C 1.0902(9) 0.6891(5) 0.4585(4)
H17 H 1.0451 0.6496 0.4507
C25 C 1.1793(6) 0.5343(4) 0.2267(3)
C26 C 1.2608(5) 0.4765(4) 0.2501(3)
C27 C 1.2470(6) 0.4218(4) 0.2910(4)
H18 H 1.1878 0.421 0.3086
C28 C 1.3222(6) 0.3677(4) 0.3062(4)
H19 H 1.3112 0.3309 0.3339
C29 C 1.4204(6) 0.4193(5) 0.2438(5)
H20 H 1.4809 0.4195 0.2275
C30 C 1.3492(6) 0.4742(5) 0.2257(5)
H21 H 1.3612 0.5096 0.1971
C31 C 0.8841(5) 0.5775(3) 0.1004(3)
C32 C 0.8774(5) 0.5145(4) 0.0535(3)
C33 C 0.7970(5) 0.5104(4) 0.0016(3)
H22 H 0.7409 0.5421 -0.0017
C34 C 0.7987(6) 0.4600(4) -0.0454(3)
H23 H 0.7448 0.4598 -0.0807
C35 C 0.9491(6) 0.4103(4) 0.0123(3)
H24 H 0.9992 0.3737 0.0178
C36 C 0.9529(6) 0.4615(4) 0.0597(3)
H25 H 1.0061 0.4601 0.0954
C37 C 0.9724(5) 0.7718(3) 0.0688(3)
N1 N 0.6060(4) 1.0422(3) 0.2399(2)
N2 N 0.6420(4) 0.6853(3) 0.1518(3)
N3 N 1.2091(4) 0.7562(3) 0.5342(2)
N4 N 1.4077(4) 0.3657(3) 0.2835(3)
N5 N 0.8761(5) 0.4108(3) -0.0417(3)
O1 O 0.8778(3) 0.6972(2) 0.21182(17)
H26 H 0.8408 0.7036 0.2467
O2 O 1.0849(3) 0.6962(2) 0.20292(18)
H27 H 1.1504 0.7017 0.2337
O3 O 0.7384(3) 0.8195(2) 0.1532(2)
O4 O 0.8769(3) 0.8556(2) 0.2248(2)
O5 O 0.3066(4) 0.7052(4) 0.2308(3)
O6 O 0.2553(4) 0.6904(3) 0.1260(2)
O7 O 1.0355(4) 0.7747(2) 0.30884(19)
O8 O 1.0282(4) 0.6546(2) 0.32660(19)
O9 O 1.1115(4) 0.5453(2) 0.2576(2)
O10 O 1.1880(4) 0.5640(3) 0.1755(2)
O11 O 0.8064(3) 0.6176(2) 0.09426(19)
O12 O 0.9685(3) 0.5845(2) 0.13886(19)
O13 O 0.9244(3) 0.7764(2) 0.11468(19)
O14 O 1.0387(4) 0.7255(3) 0.0635(2)
Ni1 Ni 0.78378(6) 0.72009(4) 0.12771(3)
Ni2 Ni 0.98684(6) 0.77927(4) 0.21233(3)
Ni3 Ni 0.99299(6) 0.62006(4) 0.23435(3)
Ni4 Ni 1.11117(6) 0.64789(5) 0.12434(4)
N1A N 0.8940(4) 0.5422(3) 0.2601(2)
N3C N 0.7091(4) 0.7438(3) 0.0342(2)
N4A N 1.0923(4) 0.8657(3) 0.2165(3)
N5B N 1.1239(5) 0.5892(3) 0.0417(3)
O6_2 O 1.2553(4) 0.6904(3) 0.1260(2)
Ni1C Ni 1.28378(6) 0.77991(4) 0.62771(3)
Ni2A Ni 1.51316(6) 0.27927(4) 0.28767(3)
Ni3A Ni 0.50701(6) 1.12006(4) 0.26565(3)
Ni4_2 Ni 0.11117(6) 0.64789(5) 0.12434(4)
Ni4B Ni 0.88883(6) 0.35211(5) -0.12434(4)
loop_
_geom_bond_atom_site_label_1
_geom_bond_atom_site_label_2
_geom_bond_site_symmetry_1
_geom_bond_site_symmetry_2
C1 C2 1_555 1_555
C2 H1 1_555 1_555
C3 C2 1_555 1_555
H2 C3 1_555 1_555
C4 C3 1_555 1_555
H3 C4 1_555 1_555
C5 C4 1_555 1_555
H4 C5 1_555 1_555
C6 C1 1_555 1_555
H5 C6 1_555 1_555
C7 C8 1_555 1_555
C8 C9 1_555 1_555
C9 H6 1_555 1_555
C10 C9 1_555 1_555
H7 C10 1_555 1_555
C11 H8 1_555 1_555
C12 C8 1_555 1_555
H9 C12 1_555 1_555
C13 C14 1_555 1_555
C14 C15 1_555 1_555
C15 H10 1_555 1_555
C16 C15 1_555 1_555
H11 C16 1_555 1_555
C17 H12 1_555 1_555
C18 C14 1_555 1_555
H13 C18 1_555 1_555
C19 C20 1_555 1_555
C20 C21 1_555 1_555
C21 H14 1_555 1_555
C22 C21 1_555 1_555
H15 C22 1_555 1_555
C23 H16 1_555 1_555
C24 C20 1_555 1_555
H17 C24 1_555 1_555
C25 C26 1_555 1_555
C26 C27 1_555 1_555
C27 H18 1_555 1_555
C28 C27 1_555 1_555
H19 C28 1_555 1_555
C29 H20 1_555 1_555
C30 C26 1_555 1_555
H21 C30 1_555 1_555
C31 C32 1_555 1_555
C32 C33 1_555 1_555
C33 H22 1_555 1_555
C34 C33 1_555 1_555
H23 C34 1_555 1_555
C35 H24 1_555 1_555
C36 C32 1_555 1_555
H25 C36 1_555 1_555
C37 C1 1_555 1_555
N1 C10 1_555 1_555
N2 C16 1_555 1_555
N3 C22 1_555 1_555
N4 C28 1_555 1_555
N5 C34 1_555 1_555
O1 H26 1_555 1_555
O2 H27 1_555 1_555
O3 C7 1_555 1_555
O4 C7 1_555 1_555
O5 C13 1_555 1_555
O6 C13 1_555 1_555
O7 C19 1_555 1_555
O8 C19 1_555 1_555
O9 C25 1_555 1_555
O10 C25 1_555 1_555
O11 C31 1_555 1_555
O12 C31 1_555 1_555
O13 C37 1_555 1_555
O14 C37 1_555 1_555
Ni1 N2 1_555 1_555
Ni2 O1 1_555 1_555
Ni3 O1 1_555 1_555
Ni4 O2 1_555 1_555
N1A Ni3 1_555 1_555
N3C Ni1 1_555 1_555
N4A Ni2 1_555 1_555
N5B Ni4 1_555 1_555
O6_2 Ni4 1_555 1_555
Ni1C N3 1_555 1_555
Ni2A N4 1_555 1_555
Ni3A N1 1_555 1_555
Ni4_2 O6 1_555 1_555
Ni4B N5 1_555 1_555
C5 C6 1_555 1_555
C11 C12 1_555 1_555
C11 N1 1_555 1_555
C17 C18 1_555 1_555
C17 N2 1_555 1_555
C23 C24 1_555 1_555
C23 N3 1_555 1_555
C29 C30 1_555 1_555
C29 N4 1_555 1_555
C35 C36 1_555 1_555
C35 N5 1_555 1_555
O1 Ni1 1_555 1_555
O2 Ni2 1_555 1_555
O2 Ni3 1_555 1_555
O3 Ni1 1_555 1_555
O4 Ni2 1_555 1_555
O7 Ni2 1_555 1_555
O8 Ni3 1_555 1_555
O9 Ni3 1_555 1_555
O10 Ni4 1_555 1_555
O11 Ni1 1_555 1_555
O12 Ni3 1_555 1_555
O12 Ni4 1_555 1_555
O13 Ni1 1_555 1_555
O13 Ni2 1_555 1_555
O14 Ni4 1_555 1_555

#END
