
#######################################################################
#
#                 Cambridge Crystallographic Data Centre
#                                CCDC 
#
#######################################################################
#
# If this CIF has been generated from an entry in the Cambridge 
# Structural Database, then it will include bibliographic, chemical, 
# crystal, experimental, refinement or atomic coordinate data resulting 
# from the CCDC's data processing and validation procedures.
#
#######################################################################

data_LODBIR
_symmetry_cell_setting           monoclinic
_symmetry_space_group_name_H-M   'P 21/n'
_symmetry_Int_Tables_number      14
_space_group_name_Hall           '-P 2yn'
loop_
_symmetry_equiv_pos_site_id
_symmetry_equiv_pos_as_xyz
1 x,y,z
2 1/2-x,1/2+y,1/2-z
3 -x,-y,-z
4 1/2+x,1/2-y,1/2+z
_cell_length_a                   13.0531(10)
_cell_length_b                   18.5575(13)
_cell_length_c                   22.1139(16)
_cell_angle_alpha                90
_cell_angle_beta                 103.2630(10)
_cell_angle_gamma                90
_cell_volume                     5213.84
loop_
_atom_site_label
_atom_site_type_symbol
_atom_site_fract_x
_atom_site_fract_y
_atom_site_fract_z
C1 C 1.0303(8) 0.8394(5) 0.0713(6)
C2 C 0.9821(8) 0.9020(6) 0.0854(6)
H1 H 0.9189 0.8992 0.0979
C3 C 1.0282(13) 0.9686(5) 0.0807(7)
C4 C 1.1227(13) 0.9727(8) 0.0619(8)
C5 C 1.1709(9) 0.9101(11) 0.0478(7)
C6 C 1.1248(9) 0.8435(8) 0.0525(6)
H2 H 1.1571 0.8016 0.0431
C7 C 0.7868(7) 0.8560(6) 0.1968(5)
C8 C 0.7264(7) 0.9197(6) 0.2111(5)
C9 C 0.7695(9) 0.9683(7) 0.2578(6)
H3 H 0.8391 0.9632 0.2794
C10 C 0.7095(8) 1.0239(6) 0.2721(6)
H4 H 0.7397 1.0555 0.3038
C11 C 0.5691(9) 0.9899(7) 0.1945(6)
H5 H 0.5012 0.9981 0.1711
C12 C 0.6254(9) 0.9322(7) 0.1792(6)
H6 H 0.5942 0.9017 0.1468
C13 C 0.3166(13) 0.6831(8) 0.1754(9)
C14 C 0.4328(13) 0.6815(9) 0.1661(8)
C15 C 0.4444(12) 0.6747(12) 0.1095(8)
H7 H 0.3874 0.6758 0.0754
C16 C 0.5544(12) 0.6651(11) 0.1027(9)
H8 H 0.5638 0.6441 0.0661
C17 C 0.6214(13) 0.6949(10) 0.2013(10)
H9 H 0.6768 0.7023 0.2356
C18 C 0.5126(13) 0.6948(12) 0.2069(12)
H10 H 0.5016 0.7061 0.2459
C19 C 1.0544(7) 0.7074(5) 0.3445(4)
C20 C 1.1076(8) 0.7197(6) 0.4112(5)
C21 C 1.1860(17) 0.7728(9) 0.4251(7)
H11 H 1.2053 0.7989 0.3935
C22 C 1.2337(19) 0.7855(9) 0.4861(7)
H12 H 1.2862 0.8204 0.4944
C23 C 1.1411(17) 0.7013(9) 0.5203(7)
H13 H 1.1227 0.6759 0.5525
C24 C 1.0928(18) 0.6832(10) 0.4603(7)
H14 H 1.0478 0.6436 0.4537
C25 C 1.1735(8) 0.5219(5) 0.2245(5)
C26 C 1.2533(8) 0.4626(6) 0.2446(5)
C27 C 1.2391(8) 0.4065(6) 0.2822(6)
H15 H 1.1801 0.4052 0.2992
C28 C 1.3132(9) 0.3517(6) 0.2948(6)
H16 H 1.3008 0.313 0.3189
C29 C 1.4158(9) 0.4084(7) 0.2382(7)
H17 H 1.4768 0.41 0.2232
C30 C 1.3438(9) 0.4636(7) 0.2228(6)
H18 H 1.3564 0.5013 0.1978
C31 C 0.8801(7) 0.5756(5) 0.0973(5)
C32 C 0.8750(8) 0.5171(6) 0.0488(6)
C33 C 0.8011(10) 0.5192(7) -0.0052(6)
H19 H 0.7487 0.5541 -0.0112
C34 C 0.8028(10) 0.4698(7) -0.0516(6)
H20 H 0.7502 0.472 -0.0879
C35 C 0.9451(9) 0.4145(7) 0.0085(6)
H21 H 0.9933 0.3768 0.0147
C36 C 0.9483(9) 0.4617(6) 0.0560(6)
H22 H 0.9991 0.4569 0.0929
C37 C 0.9855(8) 0.7671(6) 0.0837(5)
N1 N 0.6089(6) 1.0341(5) 0.2418(4)
N2 N 0.6381(7) 0.6836(5) 0.1435(5)
N3 N 1.2103(7) 0.7515(5) 0.5343(4)
N4 N 1.4015(6) 0.3518(5) 0.2740(4)
N5 N 0.8766(7) 0.4192(5) -0.0466(5)
O1 O 0.8749(4) 0.6895(3) 0.2114(3)
H23 H 0.8359 0.6947 0.244
O2 O 1.0827(5) 0.6871(3) 0.2052(3)
H24 H 1.1496 0.691 0.2361
O3 O 0.7392(5) 0.8163(4) 0.1536(3)
O4 O 0.8789(5) 0.8470(4) 0.2286(4)
O5 O 0.3078(8) 0.6888(7) 0.2273(6)
O6 O 0.2512(7) 0.6812(5) 0.1297(5)
O7 O 1.0353(6) 0.7626(4) 0.3114(3)
O8 O 1.0331(5) 0.6439(4) 0.3273(3)
O9 O 1.1066(5) 0.5343(4) 0.2557(4)
O10 O 1.1832(5) 0.5549(4) 0.1765(4)
O11 O 0.8026(5) 0.6165(4) 0.0907(3)
O12 O 0.9643(5) 0.5792(4) 0.1394(3)
O13 O 0.9239(5) 0.7700(4) 0.1194(3)
O14 O 1.0276(8) 0.7128(5) 0.0678(4)
Ni1 Ni 0.78339(9) 0.71701(7) 0.12667(6)
Ni2 Ni 0.98633(8) 0.76974(6) 0.21751(6)
Ni3 Ni 0.98937(8) 0.61202(6) 0.23452(6)
Ni4 Ni 1.10813(9) 0.63778(7) 0.12775(6)
O15 O 0.989(2) 1.0315(9) 0.0921(11)
C38 C 0.902(4) 1.0284(16) 0.118(2)
H25 H 0.8412 1.0152 0.0865
H26 H 0.8911 1.0746 0.1347
H27 H 0.9141 0.993 0.1505
O16 O 1.169(2) 1.0391(15) 0.0531(12)
O17 O 1.2676(18) 0.9128(19) 0.0262(13)
C39 C 1.350(3) 0.877(4) 0.063(3)
H28 H 1.3384 0.8261 0.0586
H29 H 1.3543 0.8903 0.106
H30 H 1.4139 0.8899 0.052
C40 C 1.233(4) 1.069(3) 0.099(2)
H31 H 1.2092 1.1172 0.1042
H32 H 1.302 1.0712 0.0905
H33 H 1.2355 1.0419 0.136
N1A N 0.8911(6) 0.5341(5) 0.2582(4)
N3C N 0.7103(7) 0.7485(5) 0.0343(4)
N4A N 1.0985(6) 0.8518(5) 0.2260(4)
N5B N 1.1234(7) 0.5808(5) 0.0466(5)
O6_2 O 1.2512(7) 0.6812(5) 0.1297(5)
Ni1C Ni 1.28339(9) 0.78299(7) 0.62667(6)
Ni2A Ni 1.51367(8) 0.26974(6) 0.28249(6)
Ni3A Ni 0.51063(8) 1.11202(6) 0.26548(6)
Ni4_2 Ni 0.10813(9) 0.63778(7) 0.12775(6)
Ni4B Ni 0.89187(9) 0.36222(7) -0.12775(6)
loop_
_geom_bond_atom_site_label_1
_geom_bond_atom_site_label_2
_geom_bond_site_symmetry_1
_geom_bond_site_symmetry_2
C1 C2 1_555 1_555
C2 H1 1_555 1_555
C3 C2 1_555 1_555
C4 C3 1_555 1_555
C5 C4 1_555 1_555
C6 C1 1_555 1_555
H2 C6 1_555 1_555
C7 C8 1_555 1_555
C8 C9 1_555 1_555
C9 H3 1_555 1_555
C10 C9 1_555 1_555
H4 C10 1_555 1_555
C11 H5 1_555 1_555
C12 C8 1_555 1_555
H6 C12 1_555 1_555
C13 C14 1_555 1_555
C14 C15 1_555 1_555
C15 H7 1_555 1_555
C16 C15 1_555 1_555
H8 C16 1_555 1_555
C17 H9 1_555 1_555
C18 C14 1_555 1_555
H10 C18 1_555 1_555
C19 C20 1_555 1_555
C20 C21 1_555 1_555
C21 H11 1_555 1_555
C22 C21 1_555 1_555
H12 C22 1_555 1_555
C23 H13 1_555 1_555
C24 C20 1_555 1_555
H14 C24 1_555 1_555
C25 C26 1_555 1_555
C26 C27 1_555 1_555
C27 H15 1_555 1_555
C28 C27 1_555 1_555
H16 C28 1_555 1_555
C29 H17 1_555 1_555
C30 C26 1_555 1_555
H18 C30 1_555 1_555
C31 C32 1_555 1_555
C32 C33 1_555 1_555
C33 H19 1_555 1_555
C34 C33 1_555 1_555
H20 C34 1_555 1_555
C35 H21 1_555 1_555
C36 C32 1_555 1_555
H22 C36 1_555 1_555
C37 C1 1_555 1_555
N1 C10 1_555 1_555
N2 C16 1_555 1_555
N3 C22 1_555 1_555
N4 C28 1_555 1_555
N5 C34 1_555 1_555
O1 H23 1_555 1_555
O2 H24 1_555 1_555
O3 C7 1_555 1_555
O4 C7 1_555 1_555
O5 C13 1_555 1_555
O6 C13 1_555 1_555
O7 C19 1_555 1_555
O8 C19 1_555 1_555
O9 C25 1_555 1_555
O10 C25 1_555 1_555
O11 C31 1_555 1_555
O12 C31 1_555 1_555
O13 C37 1_555 1_555
O14 C37 1_555 1_555
Ni1 N2 1_555 1_555
Ni2 O1 1_555 1_555
Ni3 O1 1_555 1_555
Ni4 O2 1_555 1_555
O15 C3 1_555 1_555
C38 O15 1_555 1_555
H25 C38 1_555 1_555
H26 C38 1_555 1_555
H27 C38 1_555 1_555
O16 C4 1_555 1_555
O17 C5 1_555 1_555
C39 O17 1_555 1_555
H28 C39 1_555 1_555
H29 C39 1_555 1_555
H30 C39 1_555 1_555
C40 O16 1_555 1_555
H31 C40 1_555 1_555
H32 C40 1_555 1_555
H33 C40 1_555 1_555
N1A Ni3 1_555 1_555
N3C Ni1 1_555 1_555
N4A Ni2 1_555 1_555
N5B Ni4 1_555 1_555
O6_2 Ni4 1_555 1_555
Ni1C N3 1_555 1_555
Ni2A N4 1_555 1_555
Ni3A N1 1_555 1_555
Ni4_2 O6 1_555 1_555
Ni4B N5 1_555 1_555
C5 C6 1_555 1_555
C11 C12 1_555 1_555
C11 N1 1_555 1_555
C17 C18 1_555 1_555
C17 N2 1_555 1_555
C23 C24 1_555 1_555
C23 N3 1_555 1_555
C29 C30 1_555 1_555
C29 N4 1_555 1_555
C35 C36 1_555 1_555
C35 N5 1_555 1_555
O1 Ni1 1_555 1_555
O2 Ni2 1_555 1_555
O2 Ni3 1_555 1_555
O3 Ni1 1_555 1_555
O4 Ni2 1_555 1_555
O7 Ni2 1_555 1_555
O8 Ni3 1_555 1_555
O9 Ni3 1_555 1_555
O10 Ni4 1_555 1_555
O11 Ni1 1_555 1_555
O12 Ni3 1_555 1_555
O12 Ni4 1_555 1_555
O13 Ni1 1_555 1_555
O13 Ni2 1_555 1_555
O14 Ni4 1_555 1_555

#END
