
#######################################################################
#
#                 Cambridge Crystallographic Data Centre
#                                CCDC 
#
#######################################################################
#
# If this CIF has been generated from an entry in the Cambridge 
# Structural Database, then it will include bibliographic, chemical, 
# crystal, experimental, refinement or atomic coordinate data resulting 
# from the CCDC's data processing and validation procedures.
#
#######################################################################

data_LODPOK
_symmetry_cell_setting           tetragonal
_symmetry_space_group_name_H-M   'I 41/a c d'
_symmetry_Int_Tables_number      142
_space_group_name_Hall           '-I 4bd 2c'
loop_
_symmetry_equiv_pos_site_id
_symmetry_equiv_pos_as_xyz
1 x,y,z
2 1/4-y,3/4+x,1/4+z
3 1/4+y,1/4-x,3/4+z
4 1/4+y,3/4+x,3/4-z
5 1/4-y,1/4-x,1/4-z
6 1/2+x,1/2+y,1/2+z
7 3/4-y,1/4+x,3/4+z
8 3/4+y,3/4-x,1/4+z
9 3/4+y,1/4+x,1/4-z
10 1/2-x,-y,1/2+z
11 1/2-x,y,-z
12 x,-y,1/2-z
13 -x,1/2-y,z
14 -x,1/2+y,1/2-z
15 1/2+x,1/2-y,-z
16 3/4-y,3/4-x,3/4-z
17 -x,-y,-z
18 3/4+y,1/4-x,3/4-z
19 3/4-y,3/4+x,1/4-z
20 3/4-y,1/4-x,1/4+z
21 3/4+y,3/4+x,3/4+z
22 1/2-x,1/2-y,1/2-z
23 1/4+y,3/4-x,1/4-z
24 1/4-y,1/4+x,3/4-z
25 1/4-y,3/4-x,3/4+z
26 1/2+x,y,1/2-z
27 1/2+x,-y,z
28 -x,y,1/2+z
29 x,1/2+y,-z
30 x,1/2-y,1/2+z
31 1/2-x,1/2+y,z
32 1/4+y,1/4+x,1/4+z
_cell_length_a                   23.1690(2)
_cell_length_b                   23.1690(2)
_cell_length_c                   42.7980(10)
_cell_angle_alpha                90
_cell_angle_beta                 90
_cell_angle_gamma                90
_cell_volume                     22974.1
loop_
_atom_site_label
_atom_site_type_symbol
_atom_site_fract_x
_atom_site_fract_y
_atom_site_fract_z
Co1 Co 0.13222(3) 0.73215(3) 0.074934(13)
Co2 Co 0.0000 0.7500 0.1250
N1 N 0.12073(15) 0.79782(15) 0.10789(9)
N2 N 0.07404(15) 0.80599(16) 0.12524(8)
N3 N 0.07923(15) 0.85268(16) 0.14321(8)
N4 N 0.04754(16) 0.74378(16) 0.05639(8)
N5 N 0.0000 0.7500 0.07371(11)
N6 N 0.1715(3) 0.8100(2) -0.05823(13)
N7 N 0.16762(18) 0.79154(17) 0.04191(10)
N8 N 0.15235(18) 1.16825(16) -0.04048(9)
N9 N 0.2023(2) 1.1548(2) 0.05689(12)
O1 O 0.21631(14) 0.72027(15) 0.09246(8)
C1 C 0.15871(19) 0.84164(19) 0.11480(10)
C2 C 0.2146(2) 0.8534(2) 0.10394(11)
H1 H 0.2324 0.8301 0.0891
C3 C 0.2414(2) 0.9002(2) 0.11601(12)
H2 H 0.2787 0.9088 0.1095
C4 C 0.2146(2) 0.9363(2) 0.13816(13)
H3 H 0.2345 0.9683 0.1457
C5 C 0.1591(2) 0.9254(2) 0.14890(12)
H4 H 0.1409 0.9495 0.1632
C6 C 0.13207(19) 0.8763(2) 0.13703(11)
C7 C 0.0298(2) 0.7461(2) 0.02595(11)
C8 C 0.0612(2) 0.7423(2) -0.00223(12)
H5 H 0.1010 0.7375 -0.0023
C9 C 0.0304(3) 0.7460(3) -0.02955(12)
H6 H 0.0497 0.7431 -0.0485
C10 C 0.1750(2) 0.8315(2) -0.03429(13)
C11 C 0.1744(2) 0.82273(19) 0.02136(12)
C12 C 0.1785(2) 0.8590(2) -0.00496(11)
C13 C 0.1789(2) 0.9199(2) -0.00214(12)
C14 C 0.1876(3) 0.9475(2) 0.02684(12)
H7 H 0.1931 0.9250 0.0446
C15 C 0.1881(2) 1.0058(2) 0.02961(12)
H8 H 0.1947 1.0226 0.0490
C16 C 0.1785(2) 1.0416(2) 0.00293(12)
C17 C 0.1677(3) 1.0142(2) -0.02570(12)
H9 H 0.1602 1.0366 -0.0433
C18 C 0.1680(3) 0.9556(2) -0.02843(13)
H10 H 0.1610 0.9387 -0.0478
C19 C 0.1790(2) 1.1029(2) 0.00558(11)
C20 C 0.1646(2) 1.13878(19) -0.01988(11)
C21 C 0.1918(2) 1.1324(2) 0.03356(13)
Co1R Co 0.01785(3) 0.88222(3) 0.175066(13)
Co1V Co -0.01785(3) 0.61778(3) 0.175066(13)
Co1L Co -0.13222(3) 0.76785(3) 0.074934(13)
Co1BA Co 0.13222(3) 1.23215(3) -0.074934(13)
Co1BA_2 Co 0.13222(3) 0.23215(3) -0.074934(13)
Co1A Co -0.48215(3) 0.88222(3) 0.324934(13)
Co1A_2 Co 0.51785(3) 0.88222(3) 0.324934(13)
N1R N -0.04782(15) 0.87073(15) 0.14211(9)
N1V N 0.04782(15) 0.62927(15) 0.14211(9)
N1L N -0.12073(15) 0.70218(15) 0.10789(9)
N2R N -0.05599(16) 0.82404(15) 0.12476(8)
N2V N 0.05599(16) 0.67596(15) 0.12476(8)
N2L N -0.07404(15) 0.69401(16) 0.12524(8)
N3R N -0.10268(16) 0.82923(15) 0.10679(8)
N3V N 0.10268(16) 0.67077(15) 0.10679(8)
N3L N -0.07923(15) 0.64732(16) 0.14321(8)
N4L N -0.04754(16) 0.75622(16) 0.05639(8)
N4R N 0.00622(16) 0.79754(16) 0.19361(8)
N4V N -0.00622(16) 0.70246(16) 0.19361(8)
N5R N 0.0000 0.7500 0.17629(11)
N6BA N 0.1715(3) 0.3100(2) 0.05823(13)
N6R N -0.0600(2) 0.9215(3) 0.30823(13)
N6A N 0.4400(2) 0.9215(3) 0.19177(13)
N7BA N 0.16762(18) 0.29154(17) -0.04191(10)
N7R N -0.04154(17) 0.91762(18) 0.20809(10)
N7A N 0.45846(17) 0.91762(18) 0.29191(10)
N7V N 0.04154(17) 0.58238(18) 0.20809(10)
N7L N -0.16762(18) 0.70846(17) 0.04191(10)
N8BA N 0.15235(18) 0.66825(16) 0.04048(9)
N8R N -0.41825(16) 0.90235(18) 0.29048(9)
N8A N 0.08175(16) 0.90235(18) 0.20952(9)
N8G N -0.08175(16) 0.59765(18) 0.20952(9)
N8P N -0.15235(18) 0.83175(16) 0.04048(9)
N9BA N 0.2023(2) 0.6548(2) -0.05689(12)
N9R N -0.4048(2) 0.9523(2) 0.19311(12)
N9A N 0.0952(2) 0.9523(2) 0.30689(12)
O1R O 0.02973(15) 0.96631(14) 0.15754(8)
O1V O -0.02973(15) 0.53369(14) 0.15754(8)
O1L O -0.21631(14) 0.77973(15) 0.09246(8)
C1R C -0.09164(19) 0.90871(19) 0.13520(10)
C1V C 0.09164(19) 0.59129(19) 0.13520(10)
C1L C -0.15871(19) 0.65836(19) 0.11480(10)
C2R C -0.1034(2) 0.9646(2) 0.14606(11)
C2V C 0.1034(2) 0.5354(2) 0.14606(11)
C2L C -0.2146(2) 0.6466(2) 0.10394(11)
H1R H -0.0801 0.9824 0.1609
H1V H 0.0801 0.5176 0.1609
H1L H -0.2324 0.6699 0.0891
C3R C -0.1502(2) 0.9914(2) 0.13399(12)
C3V C 0.1502(2) 0.5086(2) 0.13399(12)
C3L C -0.2414(2) 0.5998(2) 0.11601(12)
H2R H -0.1588 1.0287 0.1405
H2V H 0.1588 0.4713 0.1405
H2L H -0.2787 0.5912 0.1095
C4R C -0.1863(2) 0.9646(2) 0.11184(13)
C4V C 0.1863(2) 0.5354(2) 0.11184(13)
C4L C -0.2146(2) 0.5637(2) 0.13816(13)
H3R H -0.2183 0.9845 0.1043
H3V H 0.2183 0.5155 0.1043
H3L H -0.2345 0.5317 0.1457
C5R C -0.1754(2) 0.9091(2) 0.10110(12)
C5V C 0.1754(2) 0.5909(2) 0.10110(12)
C5L C -0.1591(2) 0.5746(2) 0.14890(12)
H4R H -0.1995 0.8909 0.0868
H4V H 0.1995 0.6091 0.0868
H4L H -0.1409 0.5505 0.1632
C6R C -0.1263(2) 0.88207(19) 0.11297(11)
C6V C 0.1263(2) 0.61793(19) 0.11297(11)
C6L C -0.13207(19) 0.6237(2) 0.13703(11)
C7L C -0.0298(2) 0.7539(2) 0.02595(11)
C7R C 0.0039(2) 0.7798(2) 0.22405(11)
C7V C -0.0039(2) 0.7202(2) 0.22405(11)
C8L C -0.0612(2) 0.7577(2) -0.00223(12)
C8R C 0.0077(2) 0.8112(2) 0.25223(12)
C8V C -0.0077(2) 0.6888(2) 0.25223(12)
H5L H -0.1010 0.7625 -0.0023
H5R H 0.0125 0.8510 0.2523
H5V H -0.0125 0.6490 0.2523
C9L C -0.0304(3) 0.7540(3) -0.02955(12)
C9R C 0.0040(3) 0.7804(3) 0.27955(12)
C9V C -0.0040(3) 0.7196(3) 0.27955(12)
H6L H -0.0497 0.7569 -0.0485
H6R H 0.0069 0.7997 0.2985
H6V H -0.0069 0.7003 0.2985
C10BA C 0.1750(2) 0.3315(2) 0.03429(13)
C10R C -0.0815(2) 0.9250(2) 0.28429(13)
C10A C 0.4185(2) 0.9250(2) 0.21571(13)
C11BA C 0.1744(2) 0.32273(19) -0.02136(12)
C11R C -0.07273(19) 0.9244(2) 0.22864(12)
C11A C 0.42727(19) 0.9244(2) 0.27136(12)
C12BA C 0.1785(2) 0.3590(2) 0.00496(11)
C12R C -0.1090(2) 0.9285(2) 0.25496(11)
C12A C 0.3910(2) 0.9285(2) 0.24504(11)
C13BA C 0.1789(2) 0.4199(2) 0.00214(12)
C13R C -0.1699(2) 0.9289(2) 0.25214(12)
C13A C 0.3301(2) 0.9289(2) 0.24786(12)
C14BA C 0.1876(3) 0.4475(2) -0.02684(12)
C14R C -0.1975(2) 0.9376(3) 0.22316(12)
C14A C 0.3025(2) 0.9376(3) 0.27684(12)
H7BA H 0.1931 0.4250 -0.0446
H7R H -0.1750 0.9431 0.2054
H7A H 0.3250 0.9431 0.2946
C15BA C 0.1881(2) 0.5058(2) -0.02961(12)
C15R C -0.2558(2) 0.9381(2) 0.22039(12)
C15A C 0.2442(2) 0.9381(2) 0.27961(12)
H8BA H 0.1947 0.5226 -0.0490
H8R H -0.2726 0.9447 0.2010
H8A H 0.2274 0.9447 0.2990
C16BA C 0.1785(2) 0.5416(2) -0.00293(12)
C16R C -0.2916(2) 0.9285(2) 0.24707(12)
C16A C 0.2084(2) 0.9285(2) 0.25293(12)
C17BA C 0.1677(3) 0.5142(2) 0.02570(12)
C17R C -0.2642(2) 0.9177(3) 0.27570(12)
C17A C 0.2358(2) 0.9177(3) 0.22430(12)
H9BA H 0.1602 0.5366 0.0433
H9R H -0.2866 0.9102 0.2933
H9A H 0.2134 0.9102 0.2067
C18BA C 0.1680(3) 0.4556(2) 0.02843(13)
C18R C -0.2056(2) 0.9180(3) 0.27843(13)
C18A C 0.2944(2) 0.9180(3) 0.22157(13)
H10BA H 0.1610 0.4387 0.0478
H10R H -0.1887 0.9110 0.2978
H10A H 0.3113 0.9110 0.2022
C19BA C 0.1790(2) 0.6029(2) -0.00558(11)
C19R C -0.3529(2) 0.9290(2) 0.24442(11)
C19A C 0.1471(2) 0.9290(2) 0.25558(11)
C20BA C 0.1646(2) 0.63878(19) 0.01988(11)
C20R C -0.38878(19) 0.9146(2) 0.26988(11)
C20A C 0.11122(19) 0.9146(2) 0.23012(11)
C21BA C 0.1918(2) 0.6324(2) -0.03356(13)
C21R C -0.3824(2) 0.9418(2) 0.21644(13)
C21A C 0.1176(2) 0.9418(2) 0.28356(13)
O2 O 0.0232(9) 0.9133(9) 0.0553(5)
O3 O 0.2561(13) 0.7274(10) 0.1506(5)
loop_
_geom_bond_atom_site_label_1
_geom_bond_atom_site_label_2
_geom_bond_site_symmetry_1
_geom_bond_site_symmetry_2
Co1 N1 1_555 1_555
Co2 N2 1_555 1_555
N1 N2 1_555 1_555
N2 N3 1_555 1_555
N3 C6 1_555 1_555
N4 Co1 1_555 1_555
N5 Co2 1_555 1_555
N6 C10 1_555 1_555
N7 Co1 1_555 1_555
N8 C20 1_555 1_555
N9 C21 1_555 1_555
O1 Co1 1_555 1_555
C1 N1 1_555 1_555
C2 C1 1_555 1_555
H1 C2 1_555 1_555
C3 C2 1_555 1_555
H2 C3 1_555 1_555
C4 C3 1_555 1_555
H3 C4 1_555 1_555
C5 C4 1_555 1_555
H4 C5 1_555 1_555
C6 C1 1_555 1_555
C7 N4 1_555 1_555
C8 C7 1_555 1_555
H5 C8 1_555 1_555
C9 C8 1_555 1_555
H6 C9 1_555 1_555
C10 C12 1_555 1_555
C11 N7 1_555 1_555
C12 C11 1_555 1_555
C13 C12 1_555 1_555
C14 C13 1_555 1_555
H7 C14 1_555 1_555
C15 C14 1_555 1_555
H8 C15 1_555 1_555
C16 C15 1_555 1_555
C17 C16 1_555 1_555
H9 C17 1_555 1_555
C18 C13 1_555 1_555
H10 C18 1_555 1_555
C19 C16 1_555 1_555
C20 C19 1_555 1_555
C21 C19 1_555 1_555
Co1R N3 1_555 1_555
Co1V N1V 1_555 1_555
Co1L N1L 1_555 1_555
Co1BA N8 1_555 1_555
Co1BA_2 N7BA 1_555 1_555
Co1A N8R 1_555 1_555
Co1A_2 N7A 1_555 1_555
N1R Co1R 1_555 1_555
N1V N2V 1_555 1_555
N1L N2L 1_555 1_555
N2R Co2 1_555 1_555
N2V Co2 1_555 1_555
N2L Co2 1_555 1_555
N3R Co1L 1_555 1_555
N3V Co1 1_555 1_555
N3L Co1V 1_555 1_555
N4L N5 1_555 1_555
N4R Co1R 1_555 1_555
N4V Co1V 1_555 1_555
N5R Co2 1_555 1_555
N6BA C10BA 1_555 1_555
N6R C10R 1_555 1_555
N6A C10A 1_555 1_555
N7BA C11BA 1_555 1_555
N7R Co1R 1_555 1_555
N7A C11A 1_555 1_555
N7V Co1V 1_555 1_555
N7L Co1L 1_555 1_555
N8BA Co1 1_555 1_555
N8R C20R 1_555 1_555
N8A Co1R 1_555 1_555
N8G Co1V 1_555 1_555
N8P Co1L 1_555 1_555
N9BA C21BA 1_555 1_555
N9R C21R 1_555 1_555
N9A C21A 1_555 1_555
O1R Co1R 1_555 1_555
O1V Co1V 1_555 1_555
O1L Co1L 1_555 1_555
C1R N1R 1_555 1_555
C1V N1V 1_555 1_555
C1L N1L 1_555 1_555
C2R C1R 1_555 1_555
C2V C1V 1_555 1_555
C2L C1L 1_555 1_555
H1R C2R 1_555 1_555
H1V C2V 1_555 1_555
H1L C2L 1_555 1_555
C3R C2R 1_555 1_555
C3V C2V 1_555 1_555
C3L C2L 1_555 1_555
H2R C3R 1_555 1_555
H2V C3V 1_555 1_555
H2L C3L 1_555 1_555
C4R C3R 1_555 1_555
C4V C3V 1_555 1_555
C4L C3L 1_555 1_555
H3R C4R 1_555 1_555
H3V C4V 1_555 1_555
H3L C4L 1_555 1_555
C5R C4R 1_555 1_555
C5V C4V 1_555 1_555
C5L C4L 1_555 1_555
H4R C5R 1_555 1_555
H4V C5V 1_555 1_555
H4L C5L 1_555 1_555
C6R N3R 1_555 1_555
C6V N3V 1_555 1_555
C6L N3L 1_555 1_555
C7L C7 1_555 1_555
C7R N4R 1_555 1_555
C7V N4V 1_555 1_555
C8L C7L 1_555 1_555
C8R C7R 1_555 1_555
C8V C7V 1_555 1_555
H5L C8L 1_555 1_555
H5R C8R 1_555 1_555
H5V C8V 1_555 1_555
C9L C9 1_555 1_555
C9R C8R 1_555 1_555
C9V C8V 1_555 1_555
H6L C9L 1_555 1_555
H6R C9R 1_555 1_555
H6V C9V 1_555 1_555
C10BA C12BA 1_555 1_555
C10R C12R 1_555 1_555
C10A C12A 1_555 1_555
C11BA C12BA 1_555 1_555
C11R N7R 1_555 1_555
C11A C12A 1_555 1_555
C12BA C13BA 1_555 1_555
C12R C11R 1_555 1_555
C12A C13A 1_555 1_555
C13BA C14BA 1_555 1_555
C13R C12R 1_555 1_555
C13A C14A 1_555 1_555
C14BA H7BA 1_555 1_555
C14R C13R 1_555 1_555
C14A H7A 1_555 1_555
H7R C14R 1_555 1_555
C15BA C14BA 1_555 1_555
C15R C14R 1_555 1_555
C15A C14A 1_555 1_555
H8BA C15BA 1_555 1_555
H8R C15R 1_555 1_555
H8A C15A 1_555 1_555
C16BA C15BA 1_555 1_555
C16R C15R 1_555 1_555
C16A C15A 1_555 1_555
C17BA C16BA 1_555 1_555
C17R C16R 1_555 1_555
C17A C16A 1_555 1_555
H9BA C17BA 1_555 1_555
H9R C17R 1_555 1_555
H9A C17A 1_555 1_555
C18BA C13BA 1_555 1_555
C18R C13R 1_555 1_555
C18A C13A 1_555 1_555
H10BA C18BA 1_555 1_555
H10R C18R 1_555 1_555
H10A C18A 1_555 1_555
C19BA C16BA 1_555 1_555
C19R C16R 1_555 1_555
C19A C16A 1_555 1_555
C20BA N8BA 1_555 1_555
C20R C19R 1_555 1_555
C20A N8A 1_555 1_555
C21BA C19BA 1_555 1_555
C21R C19R 1_555 1_555
C21A C19A 1_555 1_555
N4 N5 1_555 1_555
C5 C6 1_555 1_555
C17 C18 1_555 1_555
Co1L N4L 1_555 1_555
N1R N2R 1_555 1_555
N2R N3R 1_555 1_555
N2V N3V 1_555 1_555
N2L N3L 1_555 1_555
N4L C7L 1_555 1_555
N4R N5R 1_555 1_555
N4V N5R 1_555 1_555
C1R C6R 1_555 1_555
C1V C6V 1_555 1_555
C1L C6L 1_555 1_555
C5R C6R 1_555 1_555
C5V C6V 1_555 1_555
C5L C6L 1_555 1_555
C7R C7V 1_555 1_555
C8L C9L 1_555 1_555
C9R C9V 1_555 1_555
C17BA C18BA 1_555 1_555
C17R C18R 1_555 1_555
C17A C18A 1_555 1_555
C19BA C20BA 1_555 1_555
C19A C20A 1_555 1_555

#END
