
#######################################################################
#
#                 Cambridge Crystallographic Data Centre
#                                CCDC 
#
#######################################################################
#
# If this CIF has been generated from an entry in the Cambridge 
# Structural Database, then it will include bibliographic, chemical, 
# crystal, experimental, refinement or atomic coordinate data resulting 
# from the CCDC's data processing and validation procedures.
#
#######################################################################

data_LODTOO
_symmetry_cell_setting           triclinic
_symmetry_space_group_name_H-M   'P -1'
_symmetry_Int_Tables_number      2
_space_group_name_Hall           '-P 1'
loop_
_symmetry_equiv_pos_site_id
_symmetry_equiv_pos_as_xyz
1 x,y,z
2 -x,-y,-z
_cell_length_a                   13.118(3)
_cell_length_b                   14.624(3)
_cell_length_c                   15.193(3)
_cell_angle_alpha                95.00(3)
_cell_angle_beta                 114.61(3)
_cell_angle_gamma                111.88(3)
_cell_volume                     2355.33
loop_
_atom_site_label
_atom_site_type_symbol
_atom_site_fract_x
_atom_site_fract_y
_atom_site_fract_z
O22 O 0.540(2) 0.6914(17) 0.2713(18)
Cu2 Cu 1.0000 1.0000 0.5000
Cu3 Cu 0.6856(2) 0.54804(18) 0.34078(18)
C13 C 0.702(2) 0.4089(16) 0.1958(16)
H13 H 0.6288 0.3535 0.1848
C14 C 0.8521(17) 0.5519(13) 0.2554(14)
H14 H 0.9077 0.6209 0.2899
C15 C 0.965(2) 0.5257(19) 0.169(2)
H15 H 1.0382 0.5876 0.2194
H16 H 0.9906 0.4714 0.1684
C16 C 0.9226(16) 0.5444(14) 0.0675(17)
C17 C 0.9622(17) 0.6439(13) 0.0587(17)
H17 H 1.0165 0.6993 0.1169
C18 C 0.9221(17) 0.6623(13) -0.0352(17)
H18 H 0.9476 0.7290 -0.0406
C19 C 0.8067(18) 0.4773(16) -0.1044(16)
H19 H 0.7502 0.4206 -0.1611
C20 C 0.8479(19) 0.4604(18) -0.0157(18)
H20 H 0.8272 0.3940 -0.0097
C21 C 0.8432(16) 0.5782(15) -0.1202(17)
C22 C 0.804(2) 0.5996(19) -0.2223(18)
H21 H 0.8235 0.5600 -0.2620
H22 H 0.8556 0.6718 -0.2113
C23 C 0.8359(15) 0.7817(12) 0.4127(13)
H23 H 0.7846 0.7890 0.3522
C24 C 0.9835(13) 0.8145(11) 0.5604(12)
H24 H 1.0558 0.8483 0.6230
C25 C 0.9194(17) 0.6346(11) 0.5752(12)
H25 H 0.8379 0.5930 0.5687
H26 H 0.9786 0.6672 0.6466
C26 C 0.8796(15) 0.4651(12) 0.4833(14)
H27 H 0.7970 0.4399 0.4709
C27 C 0.9597(14) 0.5645(11) 0.5339(10)
C28 C 1.0819(17) 0.6022(13) 0.5515(14)
H28 H 1.1384 0.6710 0.5858
N7 N 0.7485(13) 0.5026(9) 0.2607(11)
N8 N 0.7629(18) 0.4005(14) 0.1505(15)
N9 N 0.8685(14) 0.4969(13) 0.1994(14)
N10 N 0.8172(12) 0.6916(10) 0.4304(10)
N11 N 0.9115(11) 0.7143(9) 0.5253(10)
N12 N 0.9354(10) 0.8615(9) 0.4901(10)
C29 C 0.481(2) 0.501(2) -0.4289(14)
H29 H 0.4208 0.4720 -0.4967
N13 N 0.4584(17) 0.5148(18) -0.3464(19)
C30 C 0.576(2) 0.5616(18) -0.2561(15)
H30 H 0.5881 0.5793 -0.1909
N14 N 0.6715(16) 0.5768(17) -0.2827(18)
N15 N 0.613(2) 0.5394(19) -0.3895(18)
C28A C 0.9181(17) 0.3978(13) 0.4485(14)
C27A C 1.0403(14) 0.4355(11) 0.4661(10)
C25A C 1.0806(17) 0.3654(11) 0.4248(12)
H25A H 1.1621 0.4070 0.4313
H26A H 1.0214 0.3328 0.3534
N11A N 1.0885(11) 0.2857(9) 0.4747(10)
C24A C 1.0165(13) 0.1855(11) 0.4396(12)
H24A H 0.9442 0.1517 0.3770
N12A N 1.0646(10) 0.1385(9) 0.5099(10)
C23A C 1.1641(15) 0.2183(12) 0.5873(13)
H23A H 1.2154 0.2110 0.6478
N10A N 1.1828(12) 0.3084(10) 0.5696(10)
C26A C 1.1204(15) 0.5349(12) 0.5167(14)
H27A H 1.2030 0.5601 0.5291
H28A H 0.8616 0.3290 0.4142
Cu3A Cu 1.3144(2) 0.45196(18) 0.65922(18)
C13A C 0.298(2) 0.5911(16) -0.1958(16)
H13A H 0.3712 0.6465 -0.1848
C14A C 0.1479(17) 0.4481(13) -0.2554(14)
H14A H 0.0923 0.3791 -0.2899
C15A C 0.035(2) 0.4743(19) -0.169(2)
H15A H -0.0382 0.4124 -0.2194
H16A H 0.0094 0.5286 -0.1684
C16A C 0.0774(16) 0.4556(14) -0.0675(17)
C17A C 0.0378(17) 0.3561(13) -0.0587(17)
H17A H -0.0165 0.3007 -0.1169
C18A C 0.0779(17) 0.3377(13) 0.0352(17)
H18A H 0.0524 0.2710 0.0406
C19A C 0.1933(18) 0.5227(16) 0.1044(16)
H19A H 0.2498 0.5794 0.1611
C20A C 0.1521(19) 0.5396(18) 0.0157(18)
H20A H 0.1728 0.6060 0.0097
C21A C 0.1568(16) 0.4218(15) 0.1202(17)
C22A C 0.196(2) 0.4004(19) 0.2223(18)
H21A H 0.1765 0.4400 0.2620
H22A H 0.1444 0.3282 0.2113
N7A N 0.2515(13) 0.4974(9) -0.2607(11)
N8A N 0.2371(18) 0.5995(14) -0.1505(15)
N9A N 0.1315(14) 0.5031(13) -0.1994(14)
C29A C 0.519(2) 0.499(2) 0.4289(14)
H29A H 0.5792 0.5280 0.4967
N13A N 0.5416(17) 0.4852(18) 0.3464(19)
C30A C 0.424(2) 0.4384(18) 0.2561(15)
H30A H 0.4119 0.4207 0.1909
N14A N 0.3285(16) 0.4232(17) 0.2827(18)
N15A N 0.387(2) 0.4606(19) 0.3895(18)
N12A_2 N 1.0646(10) 1.1385(9) 0.5099(10)
Cu3A_2 Cu 0.3144(2) 0.45196(18) -0.34078(18)
Cu2A Cu 1.0000 0.0000 0.5000
N7A_2 N 1.2515(13) 0.4974(9) 0.7393(11)
N13_2 N 1.4584(17) 0.5148(18) 0.6536(19)
Cu1 Cu 0.0000 1.0000 0.0000
Mo1 Mo 0.16267(11) 0.86693(10) 0.36734(9)
Mo2 Mo 0.34914(13) 0.85103(10) 0.24064(9)
Mo3 Mo 0.31867(11) 1.01791(10) 0.62219(10)
Mo4 Mo 0.33471(11) 1.15405(9) 0.44148(9)
Mo5 Mo 0.52326(11) 1.13683(9) 0.31825(9)
Mo6 Mo 0.33387(12) 0.72183(9) 0.42564(10)
V1 V 0.2383(2) 1.00244(19) 0.23940(19)
P1 P 0.5000 1.0000 0.5000
O1 O 0.0055(8) 0.8105(8) 0.2997(7)
O2 O 0.1929(9) 0.9153(7) 0.4948(7)
O3 O 0.2018(8) 1.0099(7) 0.3488(7)
O4 O 0.2111(11) 0.8672(8) 0.2563(8)
O5 O 0.2021(12) 0.7622(9) 0.3924(9)
O6 O 0.2731(8) 0.7863(7) 0.1194(6)
O7 O 0.3767(8) 0.9939(7) 0.2334(9)
O8 O 0.5115(10) 0.8847(8) 0.2781(10)
O9 O 0.3288(14) 0.7484(10) 0.3021(9)
O10 O 0.2344(10) 1.0265(8) 0.6754(7)
O11 O 0.3126(10) 1.1166(7) 0.5477(8)
O12 O 0.4952(10) 1.2554(9) 0.5227(8)
O13 O 0.2492(10) 1.2163(8) 0.4053(8)
O14 O 0.6348(10) 1.0856(9) 0.3320(10)
O15 O 0.5252(9) 1.1963(8) 0.2312(7)
O16 O 0.6271(9) 1.2414(9) 0.4359(8)
O17 O 0.2571(10) 0.5946(7) 0.3899(9)
O18 O 0.3707(9) 1.1373(7) 0.3247(7)
O19 O 0.1291(8) 0.9987(7) 0.1327(6)
O20 O 0.6130(13) 0.9940(11) 0.5161(11)
O21 O 0.5141(14) 0.9989(12) 0.3992(12)
C1 C 0.1492(13) 0.9049(11) -0.0448(11)
H1 H 0.2109 0.9309 0.0229
C2 C -0.0056(14) 0.8681(14) -0.1791(11)
H2 H -0.0830 0.8621 -0.2259
C3 C 0.2555(14) 0.8291(14) -0.1121(15)
H3 H 0.2389 0.8047 -0.1804
H4 H 0.2526 0.7732 -0.0817
C4 C 0.4119(15) 1.0067(15) -0.0819(12)
H5 H 0.3499 1.0108 -0.1383
C5 C 0.3839(13) 0.9161(12) -0.0539(12)
C6 C 0.4716(16) 0.9095(15) 0.0286(15)
H6 H 0.4540 0.8500 0.0491
C7 C -0.1479(13) 0.8373(11) 0.0755(11)
H7 H -0.0794 0.8607 0.1401
C8 C -0.2642(14) 0.8158(12) -0.0753(14)
H8 H -0.2930 0.8227 -0.1404
C9 C -0.3139(17) 0.7115(14) 0.1060(14)
H9 H -0.3522 0.7470 0.1280
H10 H -0.2465 0.7115 0.1660
C10 C -0.5247(16) 0.5605(14) 0.0466(17)
H11 H -0.5440 0.6045 0.0774
C11 C -0.4111(14) 0.6013(12) 0.0478(14)
C12 C -0.3913(15) 0.5381(12) -0.0042(14)
H12 H -0.3193 0.5626 -0.0108
N1 N 0.0484(10) 0.9132(8) -0.0787(9)
N2 N 0.0587(14) 0.8345(13) -0.2043(11)
N3 N 0.1568(11) 0.8546(10) -0.1170(11)
N4 N -0.2603(12) 0.7684(10) 0.0504(11)
N5 N -0.3395(13) 0.7515(11) -0.0463(12)
N6 N -0.1423(9) 0.8701(9) -0.0017(8)
O20A O 0.3870(13) 1.0060(11) 0.4839(11)
O21A O 0.4859(14) 1.0011(12) 0.6008(12)
C6A C 0.5284(16) 1.0905(15) -0.0286(15)
C5A C 0.6161(13) 1.0839(12) 0.0539(12)
C3A C 0.7445(14) 1.1709(14) 0.1121(15)
H3A H 0.7611 1.1953 0.1804
H4A H 0.7474 1.2268 0.0817
N3A N 0.8432(11) 1.1454(10) 0.1170(11)
C1A C 0.8508(13) 1.0951(11) 0.0448(11)
H1A H 0.7891 1.0691 -0.0229
N1A N 0.9516(10) 1.0868(8) 0.0787(9)
C2A C 1.0056(14) 1.1319(14) 0.1791(11)
H2A H 1.0830 1.1379 0.2259
N2A N 0.9413(14) 1.1655(13) 0.2043(11)
C4A C 0.5881(15) 0.9933(15) 0.0819(12)
H5A H 0.6501 0.9892 0.1383
H6A H 0.5460 1.1500 -0.0491
C12A C -0.6087(15) 0.4619(12) 0.0042(14)
C11A C -0.5889(14) 0.3987(12) -0.0478(14)
C9A C -0.6861(17) 0.2885(14) -0.1060(14)
H9A H -0.6478 0.2530 -0.1280
H10A H -0.7535 0.2885 -0.1660
N4A N -0.7397(12) 0.2316(10) -0.0504(11)
C7A C -0.8521(13) 0.1627(11) -0.0755(11)
H7A H -0.9206 0.1393 -0.1401
N6A N -0.8577(9) 0.1299(9) 0.0017(8)
C8A C -0.7358(14) 0.1842(12) 0.0753(14)
H8A H -0.7070 0.1773 0.1404
N5A N -0.6605(13) 0.2485(11) 0.0463(12)
C10A C -0.4753(16) 0.4395(14) -0.0466(17)
H11A H -0.4560 0.3955 -0.0774
H12A H -0.6807 0.4374 0.0108
O19A O -0.1291(8) 1.0013(7) -0.1327(6)
V1A V -0.2383(2) 0.99756(19) -0.23940(19)
O3A O -0.2018(8) 0.9901(7) -0.3488(7)
O4A O -0.2111(11) 1.1328(8) -0.2563(8)
O7A O -0.3767(8) 1.0061(7) -0.2334(9)
O18A O -0.3707(9) 0.8627(7) -0.3247(7)
Mo1A Mo -0.16267(11) 1.13307(10) -0.36734(9)
Mo2A Mo -0.34914(13) 1.14897(10) -0.24064(9)
Mo4A Mo -0.33471(11) 0.84595(9) -0.44148(9)
Mo5A Mo -0.52326(11) 0.86317(9) -0.31825(9)
O1A O -0.0055(8) 1.1895(8) -0.2997(7)
O2A O -0.1929(9) 1.0847(7) -0.4948(7)
O5A O -0.2021(12) 1.2378(9) -0.3924(9)
O6A O -0.2731(8) 1.2137(7) -0.1194(6)
O9A O -0.3288(14) 1.2516(10) -0.3021(9)
O8A O -0.5115(10) 1.1153(8) -0.2781(10)
O12A O -0.4952(10) 0.7446(9) -0.5227(8)
O13A O -0.2492(10) 0.7837(8) -0.4053(8)
O11A O -0.3126(10) 0.8834(7) -0.5477(8)
O15A O -0.5252(9) 0.8037(8) -0.2312(7)
O14A O -0.6348(10) 0.9144(9) -0.3320(10)
O16A O -0.6271(9) 0.7586(9) -0.4359(8)
Mo3A Mo -0.31867(11) 0.98209(10) -0.62219(10)
Mo6A Mo -0.33387(12) 1.27817(9) -0.42564(10)
O10A O -0.2344(10) 0.9735(8) -0.6754(7)
O17A O -0.2571(10) 1.4054(7) -0.3899(9)
N1A_2 N -0.0484(10) 1.0868(8) 0.0787(9)
N6A_2 N 0.1423(9) 1.1299(9) 0.0017(8)
O8A_2 O 0.4885(10) 1.1153(8) 0.7219(10)
O14A_2 O 0.3652(10) 0.9144(9) 0.6680(10)
O16A_2 O 0.3729(9) 0.7586(9) 0.5641(8)
O12A_2 O 0.5048(10) 0.7446(9) 0.4773(8)
Mo3A_2 Mo 0.68133(11) 0.98209(10) 0.37781(10)
Mo6A_2 Mo 0.66613(12) 1.27817(9) 0.57436(10)
Mo5A_2 Mo 0.47674(11) 0.86317(9) 0.68175(9)
Cu1A Cu 1.0000 1.0000 0.0000
Cu1A_2 Cu -1.0000 0.0000 0.0000
O21A_2 O -0.5141(14) 1.0011(12) -0.3992(12)
Mo3_2 Mo -0.68133(11) 1.01791(10) -0.37781(10)
Mo6_2 Mo -0.66613(12) 0.72183(9) -0.57436(10)
O8_2 O -0.4885(10) 0.8847(8) -0.7219(10)
O14_2 O -0.3652(10) 1.0856(9) -0.6680(10)
O21_2 O -0.4859(14) 0.9989(12) -0.6008(12)
O16_2 O -0.3729(9) 1.2414(9) -0.5641(8)
O12_2 O -0.5048(10) 1.2554(9) -0.4773(8)
O23? O 0.5040(14) 0.9082(12) 0.5265(12)
O24? O 0.6223(12) 1.0987(11) 0.5794(11)
H31? H 0.1699 0.4330 0.2616
H32? H 0.1578 0.3269 0.2136
N16? N 0.311(2) 0.436(2) 0.265(2)
N17? N 0.334(2) 0.3512(18) 0.286(2)
C31? C 0.464(3) 0.382(2) 0.322(2)
H33? H 0.5050 0.3416 0.3419
N18? N 0.5211(19) 0.486(2) 0.323(2)
C32? C 0.426(3) 0.5198(17) 0.288(2)
H34? H 0.4377 0.5849 0.2809
loop_
_geom_bond_atom_site_label_1
_geom_bond_atom_site_label_2
_geom_bond_site_symmetry_1
_geom_bond_site_symmetry_2
Cu1 O19 1_555 1_555
Mo1 O1 1_555 1_555
Mo2 O4 1_555 1_555
Mo3 O2 1_555 1_555
Mo4 O3 1_555 1_555
Mo5 O7 1_555 1_555
Mo6 O5 1_555 1_555
V1 O3 1_555 1_555
P1 O20 1_555 1_555
O2 Mo1 1_555 1_555
O3 Mo1 1_555 1_555
O4 Mo1 1_555 1_555
O5 Mo1 1_555 1_555
O6 Mo2 1_555 1_555
O7 Mo2 1_555 1_555
O8 Mo2 1_555 1_555
O9 Mo2 1_555 1_555
O10 Mo3 1_555 1_555
O11 Mo3 1_555 1_555
O12 Mo4 1_555 1_555
O13 Mo4 1_555 1_555
O14 Mo5 1_555 1_555
O15 Mo5 1_555 1_555
O16 Mo5 1_555 1_555
O17 Mo6 1_555 1_555
O18 Mo4 1_555 1_555
O19 V1 1_555 1_555
O20 O21 1_555 1_555
O21 Mo5 1_555 1_555
C1 H1 1_555 1_555
C2 H2 1_555 1_555
C3 H3 1_555 1_555
H4 C3 1_555 1_555
C4 H5 1_555 1_555
C5 C3 1_555 1_555
C6 C5 1_555 1_555
H6 C6 1_555 1_555
C7 H7 1_555 1_555
C8 H8 1_555 1_555
C9 H9 1_555 1_555
H10 C9 1_555 1_555
C10 H11 1_555 1_555
C11 C9 1_555 1_555
C12 C11 1_555 1_555
H12 C12 1_555 1_555
N1 Cu1 1_555 1_555
N2 C2 1_555 1_555
N3 C1 1_555 1_555
N4 C7 1_555 1_555
N5 C8 1_555 1_555
N6 Cu1 1_555 1_555
Cu2 N12 1_555 1_555
Cu3 N7 1_555 1_555
C13 H13 1_555 1_555
C14 H14 1_555 1_555
C15 H15 1_555 1_555
H16 C15 1_555 1_555
C16 C15 1_555 1_555
C17 C16 1_555 1_555
H17 C17 1_555 1_555
C18 C17 1_555 1_555
H18 C18 1_555 1_555
C19 H19 1_555 1_555
C20 C16 1_555 1_555
H20 C20 1_555 1_555
C21 C18 1_555 1_555
C22 C21 1_555 1_555
H21 C22 1_555 1_555
H22 C22 1_555 1_555
C23 H23 1_555 1_555
C24 H24 1_555 1_555
C25 H25 1_555 1_555
H26 C25 1_555 1_555
C26 H27 1_555 1_555
C27 C25 1_555 1_555
C28 C27 1_555 1_555
H28 C28 1_555 1_555
N7 C13 1_555 1_555
N8 C13 1_555 1_555
N9 C14 1_555 1_555
N10 Cu3 1_555 1_555
N11 C24 1_555 1_555
N12 C23 1_555 1_555
C29 H29 1_555 1_555
N13 C29 1_555 1_555
C30 N13 1_555 1_555
H30 C30 1_555 1_555
N14 C22 1_555 1_555
N15 C29 1_555 1_555
O20A P1 1_555 1_555
O21A Mo3 1_555 1_555
C6A C4 1_555 1_555
C5A C6A 1_555 1_555
C3A C5A 1_555 1_555
H3A C3A 1_555 1_555
H4A C3A 1_555 1_555
N3A C3A 1_555 1_555
C1A N3A 1_555 1_555
H1A C1A 1_555 1_555
N1A C1A 1_555 1_555
C2A N1A 1_555 1_555
H2A C2A 1_555 1_555
N2A N3A 1_555 1_555
C4A C6 1_555 1_555
H5A C4A 1_555 1_555
H6A C6A 1_555 1_555
C12A C10 1_555 1_555
C11A C12A 1_555 1_555
C9A C11A 1_555 1_555
H9A C9A 1_555 1_555
H10A C9A 1_555 1_555
N4A C9A 1_555 1_555
C7A N4A 1_555 1_555
H7A C7A 1_555 1_555
N6A C7A 1_555 1_555
C8A N6A 1_555 1_555
H8A C8A 1_555 1_555
N5A N4A 1_555 1_555
C10A C12 1_555 1_555
H11A C10A 1_555 1_555
H12A C12A 1_555 1_555
O19A Cu1 1_555 1_555
V1A O19A 1_555 1_555
O3A V1A 1_555 1_555
O4A V1A 1_555 1_555
O7A V1A 1_555 1_555
O18A V1A 1_555 1_555
Mo1A O3A 1_555 1_555
Mo2A O4A 1_555 1_555
Mo4A O3A 1_555 1_555
Mo5A O7A 1_555 1_555
O1A Mo1A 1_555 1_555
O2A Mo1A 1_555 1_555
O5A Mo1A 1_555 1_555
O6A Mo2A 1_555 1_555
O9A Mo2A 1_555 1_555
O8A Mo2A 1_555 1_555
O12A Mo4A 1_555 1_555
O13A Mo4A 1_555 1_555
O11A Mo4A 1_555 1_555
O15A Mo5A 1_555 1_555
O14A Mo5A 1_555 1_555
O16A Mo5A 1_555 1_555
Mo3A O2A 1_555 1_555
Mo6A O5A 1_555 1_555
O10A Mo3A 1_555 1_555
O17A Mo6A 1_555 1_555
N1A_2 Cu1 1_555 1_555
N6A_2 Cu1 1_555 1_555
O8A_2 Mo3 1_555 1_555
O14A_2 Mo3 1_555 1_555
O16A_2 Mo6 1_555 1_555
O12A_2 Mo6 1_555 1_555
Mo3A_2 O8 1_555 1_555
Mo6A_2 O12 1_555 1_555
Mo5A_2 O21A 1_555 1_555
Cu1A N1A 1_555 1_555
Cu1A_2 N6A 1_555 1_555
O21A_2 Mo5A 1_555 1_555
Mo3_2 O8A 1_555 1_555
Mo6_2 O12A 1_555 1_555
O8_2 Mo3A 1_555 1_555
O14_2 Mo3A 1_555 1_555
O21_2 Mo3A 1_555 1_555
O16_2 Mo6A 1_555 1_555
O12_2 Mo6A 1_555 1_555
C28A C26 1_555 1_555
C27A C28A 1_555 1_555
C25A C27A 1_555 1_555
H25A C25A 1_555 1_555
H26A C25A 1_555 1_555
N11A C25A 1_555 1_555
C24A N11A 1_555 1_555
H24A C24A 1_555 1_555
N12A C24A 1_555 1_555
C23A N12A 1_555 1_555
H23A C23A 1_555 1_555
N10A N11A 1_555 1_555
C26A C28 1_555 1_555
H27A C26A 1_555 1_555
H28A C28A 1_555 1_555
Cu3A N10A 1_555 1_555
C13A H13A 1_555 1_555
C14A H14A 1_555 1_555
C15A H15A 1_555 1_555
H16A C15A 1_555 1_555
C16A C15A 1_555 1_555
C17A C16A 1_555 1_555
H17A C17A 1_555 1_555
C18A C17A 1_555 1_555
H18A C18A 1_555 1_555
C19A H19A 1_555 1_555
C20A C16A 1_555 1_555
H20A C20A 1_555 1_555
C21A C18A 1_555 1_555
C22A C21A 1_555 1_555
H21A C22A 1_555 1_555
H22A C22A 1_555 1_555
N7A C13A 1_555 1_555
N8A C13A 1_555 1_555
N9A C14A 1_555 1_555
C29A H29A 1_555 1_555
N13A Cu3 1_555 1_555
C30A N13A 1_555 1_555
H30A C30A 1_555 1_555
N14A C22A 1_555 1_555
N15A C29A 1_555 1_555
N12A_2 Cu2 1_555 1_555
Cu3A_2 N13 1_555 1_555
Cu2A N12A 1_555 1_555
N7A_2 Cu3A 1_555 1_555
N13_2 Cu3A 1_555 1_555
Mo4 O11 1_555 1_555
Mo5 O18 1_555 1_555
Mo6 O9 1_555 1_555
V1 O4 1_555 1_555
V1 O7 1_555 1_555
V1 O18 1_555 1_555
P1 O21 1_555 1_555
P1 O21A 1_555 1_555
O14 Mo3A_2 1_555 1_555
O16 Mo6A_2 1_555 1_555
O21 Mo3A_2 1_555 1_555
C1 N1 1_555 1_555
C2 N1 1_555 1_555
C3 N3 1_555 1_555
C4 C5 1_555 1_555
C7 N6 1_555 1_555
C8 N6 1_555 1_555
C9 N4 1_555 1_555
C10 C11 1_555 1_555
N2 N3 1_555 1_555
N4 N5 1_555 1_555
C14 N7 1_555 1_555
C15 N9 1_555 1_555
C19 C20 1_555 1_555
C19 C21 1_555 1_555
C23 N10 1_555 1_555
C24 N12 1_555 1_555
C25 N11 1_555 1_555
C26 C27 1_555 1_555
N8 N9 1_555 1_555
N10 N11 1_555 1_555
C30 N14 1_555 1_555
N14 N15 1_555 1_555
O20A O21A 1_555 1_555
C5A C4A 1_555 1_555
C2A N2A 1_555 1_555
C11A C10A 1_555 1_555
C8A N5A 1_555 1_555
O4A Mo1A 1_555 1_555
O7A Mo2A 1_555 1_555
O18A Mo4A 1_555 1_555
O18A Mo5A 1_555 1_555
O9A Mo6A 1_555 1_555
O11A Mo3A 1_555 1_555
O14A Mo3_2 1_555 1_555
O16A Mo6_2 1_555 1_555
O14A_2 Mo5A_2 1_555 1_555
O16A_2 Mo5A_2 1_555 1_555
O21A_2 Mo3_2 1_555 1_555
C27A C26A 1_555 1_555
C23A N10A 1_555 1_555
C14A N7A 1_555 1_555
C15A N9A 1_555 1_555
C19A C20A 1_555 1_555
C19A C21A 1_555 1_555
N7A Cu3A_2 1_555 1_555
N8A N9A 1_555 1_555
C29A N13A 1_555 1_555
C30A N14A 1_555 1_555
N14A N15A 1_555 1_555

#END
