
#######################################################################
#
#                 Cambridge Crystallographic Data Centre
#                                CCDC 
#
#######################################################################
#
# If this CIF has been generated from an entry in the Cambridge 
# Structural Database, then it will include bibliographic, chemical, 
# crystal, experimental, refinement or atomic coordinate data resulting 
# from the CCDC's data processing and validation procedures.
#
#######################################################################

data_LOGXEM
_symmetry_cell_setting           tetragonal
_symmetry_space_group_name_H-M   'I -4 2 d'
_symmetry_Int_Tables_number      122
_space_group_name_Hall           'I -4 2bw'
loop_
_symmetry_equiv_pos_site_id
_symmetry_equiv_pos_as_xyz
1 x,y,z
2 y,-x,-z
3 -x,-y,z
4 -y,x,-z
5 x,1/2-y,1/4-z
6 1/2-y,-x,3/4+z
7 -x,1/2+y,1/4-z
8 1/2+y,x,3/4+z
9 1/2+x,1/2+y,1/2+z
10 1/2+y,1/2-x,1/2-z
11 1/2-x,1/2-y,1/2+z
12 1/2-y,1/2+x,1/2-z
13 1/2+x,-y,3/4-z
14 -y,1/2-x,1/4+z
15 1/2-x,y,3/4-z
16 y,1/2+x,1/4+z
_cell_length_a                   35.5387(7)
_cell_length_b                   35.5387(7)
_cell_length_c                   53.2607(17)
_cell_angle_alpha                90
_cell_angle_beta                 90
_cell_angle_gamma                90
_cell_volume                     67268.2
loop_
_atom_site_label
_atom_site_type_symbol
_atom_site_fract_x
_atom_site_fract_y
_atom_site_fract_z
Ru1 Ru 0.0000 0.0000 0.0000
N1 N -0.0644(7) 0.0101(7) 0.0000(4)
N2 N 0.0000 0.0000 0.0454(6)
N1A N 0.0101(7) 0.0644(7) 0.0000(4)
N2A N 0.0000 0.0000 -0.0454(6)
N1B N 0.0644(7) -0.0101(7) 0.0000(4)
N1C N -0.0101(7) -0.0644(7) 0.0000(4)
N3 N 0.5000 0.0000 0.2028(11)
Ru2 Ru 0.5000 0.0000 0.2500
N3I N 0.5000 0.0000 0.2972(11)
Cd1 Cd 0.19870(7) 0.07812(7) 0.14955(5)
Cd2 Cd 0.12509(6) -0.00872(6) 0.15900(4)
Cd3 Cd 0.08943(7) 0.10622(7) 0.16931(5)
Cd4 Cd 0.16802(6) 0.05573(7) 0.22100(4)
Cd5 Cd -0.02202(6) 0.06007(6) 0.16386(3)
Cd6 Cd 0.09950(6) -0.08828(6) 0.21577(3)
Cd7 Cd 0.05355(5) 0.02219(5) 0.21910(3)
Cd8 Cd 0.13089(6) -0.01039(6) 0.27757(4)
Cd9 Cd 0.00505(6) 0.13376(6) 0.21666(4)
Cd10 Cd 0.09279(6) 0.09592(6) 0.27512(4)
Cd11 Cd -0.07137(6) 0.16112(6) 0.27146(4)
Cd12 Cd -0.02035(5) 0.05427(5) 0.27322(3)
Cd13 Cd -0.09056(7) 0.08543(7) 0.33270(4)
Cd14 Cd -0.05828(6) -0.02514(7) 0.32958(4)
Cd15 Cd 0.01861(6) 0.13484(7) 0.32646(4)
Cd16 Cd -0.07362(7) 0.19705(8) 0.34567(5)
Se1 Se 0.0000 0.0000 0.18918(6)
Se2 Se 0.11045(8) 0.04422(8) 0.19187(5)
Se3 Se 0.07827(7) -0.03367(7) 0.24628(4)
Se4 Se 0.03438(7) 0.08089(8) 0.24568(5)
Se5 Se -0.04051(8) 0.11135(8) 0.30112(5)
Se6 Se 0.0000 0.0000 0.30337(6)
Se7 Se -0.04958(9) 0.11775(8) 0.18644(5)
Se8 Se 0.11802(9) 0.04626(10) 0.30631(6)
S1 S -0.1033(3) 0.2516(3) 0.3694(2)
S2 S 0.1777(2) 0.0166(2) 0.13132(14)
S3 S 0.1471(2) 0.1270(2) 0.14607(18)
S4 S 0.2246(3) 0.0740(3) 0.19362(16)
S5 S -0.0695(2) 0.0282(2) 0.13353(12)
S6 S 0.1526(2) -0.0565(2) 0.18987(13)
S7 S 0.0389(2) 0.0779(2) 0.14053(13)
S8 S 0.1878(2) 0.0028(2) 0.24889(13)
S9 S 0.0599(3) 0.1601(3) 0.1910(2)
S10 S 0.1412(2) 0.1144(2) 0.24213(16)
S11 S -0.1264(2) 0.1368(2) 0.24725(13)
S12 S -0.1428(2) 0.0733(2) 0.30064(14)
S13 S -0.0134(2) 0.1858(2) 0.24757(15)
S14 S 0.0699(2) 0.1552(2) 0.29813(16)
S15 S -0.0885(2) 0.2154(2) 0.30081(15)
S16 S -0.0684(3) 0.0313(3) 0.35920(13)
S17 S -0.1095(3) 0.1405(3) 0.35956(15)
S18 S 0.0306(2) 0.0807(3) 0.35512(14)
S19 S -0.0031(2) 0.1923(3) 0.35189(16)
C1 C 0.1601(11) 0.0337(9) 0.1029(6)
C2 C 0.1891(11) 0.0395(10) 0.0846(7)
C3 C 0.1748(12) 0.0555(11) 0.0610(7)
C4 C 0.1314(11) 0.0651(10) 0.0560(7)
C5 C 0.1092(10) 0.0570(10) 0.0771(7)
C6 C 0.1232(12) 0.0447(11) 0.1027(7)
C7 C 0.1745(17) 0.1750(19) 0.1574(18)
C8 C -0.0902(3) 0.0649(5) 0.1138(3)
C9 C -0.0912(4) 0.0580(5) 0.0881(4)
C10 C -0.1081(5) 0.0838(6) 0.0721(3)
C11 C -0.1239(4) 0.1165(5) 0.0817(4)
C12 C -0.1230(4) 0.1234(5) 0.1074(4)
C13 C -0.1061(4) 0.0976(6) 0.1234(3)
C14 C 0.1772(5) -0.0889(6) 0.1714(3)
C15 C 0.1660(5) -0.1295(6) 0.1771(4)
C16 C 0.1920(6) -0.1609(5) 0.1614(5)
C17 C 0.2200(6) -0.1482(6) 0.1453(4)
C18 C 0.2261(5) -0.0987(6) 0.1487(4)
C19 C 0.2046(4) -0.0758(6) 0.1569(4)
C20 C 0.0269(16) 0.1128(8) 0.1205(6)
C21 C -0.0098(12) 0.1251(12) 0.1168(8)
C22 C -0.0182(10) 0.1490(13) 0.0969(10)
C23 C 0.0101(18) 0.1606(8) 0.0807(6)
C24 C 0.0469(14) 0.1483(12) 0.0844(8)
C25 C 0.0552(8) 0.1244(12) 0.1042(10)
C26 C 0.2179(10) 0.0393(12) 0.2727(7)
C27 C -0.1481(10) 0.1761(9) 0.2318(7)
C28 C -0.1305(10) 0.1967(10) 0.2156(8)
C29 C -0.1921(11) 0.0754(13) 0.3215(8)
C30 C -0.0304(10) 0.2267(9) 0.2327(7)
C31 C -0.0425(11) 0.2554(11) 0.2482(7)
C32 C -0.0574(11) 0.2892(11) 0.2355(8)
C33 C -0.0519(12) 0.2875(11) 0.2079(9)
C34 C -0.0432(12) 0.2590(11) 0.1909(8)
C35 C -0.0263(12) 0.2296(11) 0.2054(9)
C36 C -0.1404(11) 0.2192(12) 0.2988(7)
C37 C -0.1643(13) 0.1869(12) 0.3020(7)
C38 C -0.2038(12) 0.1897(11) 0.3010(7)
C39 C -0.2153(12) 0.2253(15) 0.2955(8)
C40 C -0.1917(14) 0.2530(13) 0.2859(8)
C41 C -0.1555(13) 0.2568(13) 0.2897(8)
C42 C -0.1122(13) 0.0259(12) 0.3809(10)
C43 C -0.1434(15) 0.0149(14) 0.3695(9)
C44 C -0.0934(10) 0.1288(11) 0.3930(7)
C45 C 0.0642(13) 0.0978(13) 0.3798(8)
C46 C 0.1015(12) 0.0722(12) 0.3805(8)
C47 C 0.0185(7) 0.2308(6) 0.3340(5)
C48 C 0.0109(5) 0.2346(6) 0.3086(5)
C49 C 0.0250(7) 0.2652(7) 0.2953(3)
C50 C 0.0468(7) 0.2920(6) 0.3076(5)
C51 C 0.0545(6) 0.2882(7) 0.3331(5)
C52 C 0.0403(7) 0.2576(8) 0.3463(3)
Cd1B Cd -0.19870(7) -0.07812(7) 0.14955(5)
Cd2B Cd -0.12509(6) 0.00872(6) 0.15900(4)
Cd3B Cd -0.08943(7) -0.10622(7) 0.16931(5)
Cd4B Cd -0.16802(6) -0.05573(7) 0.22100(4)
Cd5B Cd 0.02202(6) -0.06007(6) 0.16386(3)
Cd6B Cd -0.09950(6) 0.08828(6) 0.21577(3)
Cd7B Cd -0.05355(5) -0.02219(5) 0.21910(3)
Cd8B Cd -0.13089(6) 0.01039(6) 0.27757(4)
Cd9B Cd -0.00505(6) -0.13376(6) 0.21666(4)
Cd10B Cd -0.09279(6) -0.09592(6) 0.27512(4)
Cd11B Cd 0.07137(6) -0.16112(6) 0.27146(4)
Cd12B Cd 0.02035(5) -0.05427(5) 0.27322(3)
Cd13B Cd 0.09056(7) -0.08543(7) 0.33270(4)
Cd14B Cd 0.05828(6) 0.02514(7) 0.32958(4)
Cd15B Cd -0.01861(6) -0.13484(7) 0.32646(4)
Cd16B Cd 0.07362(7) -0.19705(8) 0.34567(5)
Se2B Se -0.11045(8) -0.04422(8) 0.19187(5)
Se3B Se -0.07827(7) 0.03367(7) 0.24628(4)
Se4B Se -0.03438(7) -0.08089(8) 0.24568(5)
Se5B Se 0.04051(8) -0.11135(8) 0.30112(5)
Se7B Se 0.04958(9) -0.11775(8) 0.18644(5)
Se8B Se -0.11802(9) -0.04626(10) 0.30631(6)
S1B S 0.1033(3) -0.2516(3) 0.3694(2)
S2B S -0.1777(2) -0.0166(2) 0.13132(14)
S3B S -0.1471(2) -0.1270(2) 0.14607(18)
S4B S -0.2246(3) -0.0740(3) 0.19362(16)
S5B S 0.0695(2) -0.0282(2) 0.13353(12)
S6B S -0.1526(2) 0.0565(2) 0.18987(13)
S7B S -0.0389(2) -0.0779(2) 0.14053(13)
S8B S -0.1878(2) -0.0028(2) 0.24889(13)
S9B S -0.0599(3) -0.1601(3) 0.1910(2)
S10B S -0.1412(2) -0.1144(2) 0.24213(16)
S11B S 0.1264(2) -0.1368(2) 0.24725(13)
S12B S 0.1428(2) -0.0733(2) 0.30064(14)
S13B S 0.0134(2) -0.1858(2) 0.24757(15)
S14B S -0.0699(2) -0.1552(2) 0.29813(16)
S15B S 0.0885(2) -0.2154(2) 0.30081(15)
S16B S 0.0684(3) -0.0313(3) 0.35920(13)
S17B S 0.1095(3) -0.1405(3) 0.35956(15)
S18B S -0.0306(2) -0.0807(3) 0.35512(14)
S19B S 0.0031(2) -0.1923(3) 0.35189(16)
C1B C -0.1601(11) -0.0337(9) 0.1029(6)
C2B C -0.1891(11) -0.0395(10) 0.0846(7)
C3B C -0.1748(12) -0.0555(11) 0.0610(7)
C4B C -0.1314(11) -0.0651(10) 0.0560(7)
C5B C -0.1092(10) -0.0570(10) 0.0771(7)
C6B C -0.1232(12) -0.0447(11) 0.1027(7)
C7B C -0.1745(17) -0.1750(19) 0.1574(18)
C8B C 0.0902(3) -0.0649(5) 0.1138(3)
C9B C 0.0912(4) -0.0580(5) 0.0881(4)
C10B C 0.1081(5) -0.0838(6) 0.0721(3)
C11B C 0.1239(4) -0.1165(5) 0.0817(4)
C12B C 0.1230(4) -0.1234(5) 0.1074(4)
C13B C 0.1061(4) -0.0976(6) 0.1234(3)
C14B C -0.1772(5) 0.0889(6) 0.1714(3)
C15B C -0.1660(5) 0.1295(6) 0.1771(4)
C16B C -0.1920(6) 0.1609(5) 0.1614(5)
C17B C -0.2200(6) 0.1482(6) 0.1453(4)
C18B C -0.2261(5) 0.0987(6) 0.1487(4)
C19B C -0.2046(4) 0.0758(6) 0.1569(4)
C20B C -0.0269(16) -0.1128(8) 0.1205(6)
C21B C 0.0098(12) -0.1251(12) 0.1168(8)
C22B C 0.0182(10) -0.1490(13) 0.0969(10)
C23B C -0.0101(18) -0.1606(8) 0.0807(6)
C24B C -0.0469(14) -0.1483(12) 0.0844(8)
C25B C -0.0552(8) -0.1244(12) 0.1042(10)
C26B C -0.2179(10) -0.0393(12) 0.2727(7)
C27B C 0.1481(10) -0.1761(9) 0.2318(7)
C28B C 0.1305(10) -0.1967(10) 0.2156(8)
C29B C 0.1921(11) -0.0754(13) 0.3215(8)
C30B C 0.0304(10) -0.2267(9) 0.2327(7)
C31B C 0.0425(11) -0.2554(11) 0.2482(7)
C32B C 0.0574(11) -0.2892(11) 0.2355(8)
C33B C 0.0519(12) -0.2875(11) 0.2079(9)
C34B C 0.0432(12) -0.2590(11) 0.1909(8)
C35B C 0.0263(12) -0.2296(11) 0.2054(9)
C36B C 0.1404(11) -0.2192(12) 0.2988(7)
C37B C 0.1643(13) -0.1869(12) 0.3020(7)
C38B C 0.2038(12) -0.1897(11) 0.3010(7)
C39B C 0.2153(12) -0.2253(15) 0.2955(8)
C40B C 0.1917(14) -0.2530(13) 0.2859(8)
C41B C 0.1555(13) -0.2568(13) 0.2897(8)
C42B C 0.1122(13) -0.0259(12) 0.3809(10)
C43B C 0.1434(15) -0.0149(14) 0.3695(9)
C44B C 0.0934(10) -0.1288(11) 0.3930(7)
C45B C -0.0642(13) -0.0978(13) 0.3798(8)
C46B C -0.1015(12) -0.0722(12) 0.3805(8)
C47B C -0.0185(7) -0.2308(6) 0.3340(5)
C48B C -0.0109(5) -0.2346(6) 0.3086(5)
C49B C -0.0250(7) -0.2652(7) 0.2953(3)
C50B C -0.0468(7) -0.2920(6) 0.3076(5)
C51B C -0.0545(6) -0.2882(7) 0.3331(5)
C52B C -0.0403(7) -0.2576(8) 0.3463(3)
Cd1M Cd -0.07812(7) 0.30130(7) 0.39955(5)
Cd1O Cd 0.07812(7) -0.30130(7) 0.39955(5)
S1E S 0.2484(3) 0.1033(3) 0.1194(2)
S1G S -0.2484(3) -0.1033(3) 0.1194(2)
C53 C 0.297(2) 0.0262(19) 0.2034(12)
C54 C -0.1759(11) 0.2307(9) 0.2117(7)
C55 C -0.2278(15) 0.0962(15) 0.3454(9)
C56 C 0.1091(18) 0.0988(19) 0.4165(11)
C57 C 0.1184(15) 0.1589(14) 0.3273(9)
C58 C 0.1579(12) 0.1864(15) 0.3560(9)
C59 C 0.2069(19) 0.201(2) 0.4169(12)
C60 C 0.1411(14) 0.2267(13) 0.3327(9)
C61 C 0.1106(11) 0.209(2) 0.3154(8)
C62 C -0.1298(10) 0.0154(9) -0.0032(6)
C63 C 0.0000 0.0000 0.0829(7)
C64 C 0.4615(16) 0.0948(17) 0.2466(11)
C65 C -0.1508(18) 0.1475(18) 0.0154(11)
C66 C -0.1566(12) 0.3416(13) 0.3216(8)
C67 C 0.0766(15) 0.2667(15) 0.2239(10)
C68 C 0.269(2) -0.002(2) 0.1753(13)
C69 C 0.0978(12) 0.2209(12) 0.2397(8)
loop_
_geom_bond_atom_site_label_1
_geom_bond_atom_site_label_2
_geom_bond_site_symmetry_1
_geom_bond_site_symmetry_2
Ru1 N1 1_555 1_555
N2 Ru1 1_555 1_555
N3 Ru2 1_555 1_555
Ru2 N3I 1_555 1_555
Cd1 S2 1_555 1_555
Cd2 Se2 1_555 1_555
Cd3 Se2 1_555 1_555
Cd4 Se2 1_555 1_555
Cd5 Se1 1_555 1_555
Cd6 Se3 1_555 1_555
Cd7 Se1 1_555 1_555
Cd8 Se3 1_555 1_555
Cd9 Se4 1_555 1_555
Cd10 Se4 1_555 1_555
Cd11 Se5 1_555 1_555
Cd12 Se4 1_555 1_555
Cd13 Se5 1_555 1_555
Cd14 Se6 1_555 1_555
Cd15 Se5 1_555 1_555
Cd16 S1 1_555 1_555
Se1 Cd5B 1_555 1_555
Se2 Cd7 1_555 1_555
Se3 Cd7 1_555 1_555
Se4 Cd7 1_555 1_555
Se5 Cd12 1_555 1_555
Se6 Cd12 1_555 1_555
Se7 Cd5 1_555 1_555
Se8 Cd8 1_555 1_555
S1 Cd1M 1_555 1_555
S2 Cd2 1_555 1_555
S3 Cd1 1_555 1_555
S4 Cd1 1_555 1_555
S5 Cd5 1_555 1_555
S6 Cd2 1_555 1_555
S7 Cd3 1_555 1_555
S8 Cd4 1_555 1_555
S9 Cd3 1_555 1_555
S10 Cd4 1_555 1_555
S11 Cd11 1_555 1_555
S12 Cd13 1_555 1_555
S13 Cd9 1_555 1_555
S14 Cd10 1_555 1_555
S15 Cd11 1_555 1_555
S16 Cd13 1_555 1_555
S17 Cd13 1_555 1_555
S18 Cd15 1_555 1_555
S19 Cd15 1_555 1_555
C1 S2 1_555 1_555
C2 C1 1_555 1_555
C3 C2 1_555 1_555
C4 C3 1_555 1_555
C5 C4 1_555 1_555
C6 C1 1_555 1_555
C7 S3 1_555 1_555
C8 S5 1_555 1_555
C9 C8 1_555 1_555
C10 C9 1_555 1_555
C11 C10 1_555 1_555
C12 C11 1_555 1_555
C13 C8 1_555 1_555
C14 S6 1_555 1_555
C15 C14 1_555 1_555
C16 C15 1_555 1_555
C17 C16 1_555 1_555
C18 C17 1_555 1_555
C19 C14 1_555 1_555
C20 S7 1_555 1_555
C21 C20 1_555 1_555
C22 C21 1_555 1_555
C23 C22 1_555 1_555
C24 C23 1_555 1_555
C25 C20 1_555 1_555
C26 S8 1_555 1_555
C27 S11 1_555 1_555
C28 C27 1_555 1_555
C29 S12 1_555 1_555
C30 S13 1_555 1_555
C31 C30 1_555 1_555
C32 C31 1_555 1_555
C33 C32 1_555 1_555
C34 C33 1_555 1_555
C35 C30 1_555 1_555
C36 S15 1_555 1_555
C37 C36 1_555 1_555
C38 C37 1_555 1_555
C39 C38 1_555 1_555
C40 C39 1_555 1_555
C41 C36 1_555 1_555
C42 S16 1_555 1_555
C43 C42 1_555 1_555
C44 S17 1_555 1_555
C45 S18 1_555 1_555
C46 C45 1_555 1_555
C47 S19 1_555 1_555
C48 C47 1_555 1_555
C49 C48 1_555 1_555
C50 C49 1_555 1_555
C51 C50 1_555 1_555
C52 C47 1_555 1_555
C60 C61 1_555 1_555
N1A Ru1 1_555 1_555
N2A Ru1 1_555 1_555
N1B Ru1 1_555 1_555
N1C Ru1 1_555 1_555
Cd1B S2B 1_555 1_555
Cd2B S5 1_555 1_555
Cd3B Se2B 1_555 1_555
Cd4B Se2B 1_555 1_555
Cd5B Se7B 1_555 1_555
Cd6B Se7 1_555 1_555
Cd7B Se1 1_555 1_555
Cd8B S12 1_555 1_555
Cd9B Se4B 1_555 1_555
Cd10B Se4B 1_555 1_555
Cd11B Se5B 1_555 1_555
Cd12B Se3 1_555 1_555
Cd13B Se5B 1_555 1_555
Cd14B Se6 1_555 1_555
Cd15B Se5B 1_555 1_555
Cd16B S1B 1_555 1_555
Se2B Cd2B 1_555 1_555
Se3B Cd12 1_555 1_555
Se4B Cd7B 1_555 1_555
Se5B Cd12B 1_555 1_555
Se7B Cd6 1_555 1_555
Se8B Cd14 1_555 1_555
S1B Cd1O 1_555 1_555
S2B Cd2B 1_555 1_555
S3B Cd1B 1_555 1_555
S4B Cd1B 1_555 1_555
S5B Cd2 1_555 1_555
S6B Cd2B 1_555 1_555
S7B Cd3B 1_555 1_555
S8B Cd4B 1_555 1_555
S9B Cd3B 1_555 1_555
S10B Cd4B 1_555 1_555
S11B Cd6 1_555 1_555
S12B Cd8 1_555 1_555
S13B Cd9B 1_555 1_555
S14B Cd10B 1_555 1_555
S15B Cd11B 1_555 1_555
S16B Cd13B 1_555 1_555
S17B Cd13B 1_555 1_555
S18B Cd14 1_555 1_555
S19B Cd15B 1_555 1_555
C1B S2B 1_555 1_555
C2B C1B 1_555 1_555
C3B C2B 1_555 1_555
C4B C3B 1_555 1_555
C5B C4B 1_555 1_555
C6B C1B 1_555 1_555
C7B S3B 1_555 1_555
C8B S5B 1_555 1_555
C9B C8B 1_555 1_555
C10B C9B 1_555 1_555
C11B C10B 1_555 1_555
C12B C11B 1_555 1_555
C13B C8B 1_555 1_555
C14B S6B 1_555 1_555
C15B C14B 1_555 1_555
C16B C15B 1_555 1_555
C17B C16B 1_555 1_555
C18B C17B 1_555 1_555
C19B C14B 1_555 1_555
C20B S7B 1_555 1_555
C21B C20B 1_555 1_555
C22B C21B 1_555 1_555
C23B C22B 1_555 1_555
C24B C23B 1_555 1_555
C25B C20B 1_555 1_555
C26B S8B 1_555 1_555
C27B S11B 1_555 1_555
C28B C27B 1_555 1_555
C29B S12B 1_555 1_555
C30B S13B 1_555 1_555
C31B C30B 1_555 1_555
C32B C31B 1_555 1_555
C33B C32B 1_555 1_555
C34B C33B 1_555 1_555
C35B C30B 1_555 1_555
C36B S15B 1_555 1_555
C37B C36B 1_555 1_555
C38B C37B 1_555 1_555
C39B C38B 1_555 1_555
C40B C39B 1_555 1_555
C41B C36B 1_555 1_555
C42B S16B 1_555 1_555
C43B C42B 1_555 1_555
C44B S17B 1_555 1_555
C45B S18B 1_555 1_555
C46B C45B 1_555 1_555
C47B S19B 1_555 1_555
C48B C47B 1_555 1_555
C49B C48B 1_555 1_555
C50B C49B 1_555 1_555
C51B C50B 1_555 1_555
C52B C47B 1_555 1_555
S1E Cd1 1_555 1_555
S1G Cd1B 1_555 1_555
Cd3 S3 1_555 1_555
Cd4 S4 1_555 1_555
Cd5 S7 1_555 1_555
Cd6 S6 1_555 1_555
Cd8 S8 1_555 1_555
Cd9 Se7 1_555 1_555
Cd9 S9 1_555 1_555
Cd10 Se8 1_555 1_555
Cd10 S10 1_555 1_555
Cd11 S13 1_555 1_555
Cd14 S16 1_555 1_555
Cd15 S14 1_555 1_555
Cd16 S15 1_555 1_555
Cd16 S17 1_555 1_555
Cd16 S19 1_555 1_555
Se6 Cd12B 1_555 1_555
Se8 Cd14B 1_555 1_555
S11 Cd6B 1_555 1_555
S18 Cd14B 1_555 1_555
C5 C6 1_555 1_555
C12 C13 1_555 1_555
C18 C19 1_555 1_555
C24 C25 1_555 1_555
C34 C35 1_555 1_555
C40 C41 1_555 1_555
C51 C52 1_555 1_555
Cd3B S3B 1_555 1_555
Cd4B S4B 1_555 1_555
Cd5B S5B 1_555 1_555
Cd5B S7B 1_555 1_555
Cd6B Se3B 1_555 1_555
Cd6B S6B 1_555 1_555
Cd7B Se2B 1_555 1_555
Cd7B Se3B 1_555 1_555
Cd8B Se3B 1_555 1_555
Cd8B Se8B 1_555 1_555
Cd8B S8B 1_555 1_555
Cd9B Se7B 1_555 1_555
Cd9B S9B 1_555 1_555
Cd10B Se8B 1_555 1_555
Cd10B S10B 1_555 1_555
Cd11B S11B 1_555 1_555
Cd11B S13B 1_555 1_555
Cd12B Se4B 1_555 1_555
Cd13B S12B 1_555 1_555
Cd14B S16B 1_555 1_555
Cd15B S14B 1_555 1_555
Cd15B S18B 1_555 1_555
Cd16B S15B 1_555 1_555
Cd16B S17B 1_555 1_555
Cd16B S19B 1_555 1_555
C5B C6B 1_555 1_555
C12B C13B 1_555 1_555
C18B C19B 1_555 1_555
C24B C25B 1_555 1_555
C34B C35B 1_555 1_555
C40B C41B 1_555 1_555
C51B C52B 1_555 1_555

#END
