
#######################################################################
#
#                 Cambridge Crystallographic Data Centre
#                                CCDC 
#
#######################################################################
#
# If this CIF has been generated from an entry in the Cambridge 
# Structural Database, then it will include bibliographic, chemical, 
# crystal, experimental, refinement or atomic coordinate data resulting 
# from the CCDC's data processing and validation procedures.
#
#######################################################################

data_LORMOW
_symmetry_cell_setting           triclinic
_symmetry_space_group_name_H-M   'P -1'
_symmetry_Int_Tables_number      2
_space_group_name_Hall           '-P 1'
loop_
_symmetry_equiv_pos_site_id
_symmetry_equiv_pos_as_xyz
1 x,y,z
2 -x,-y,-z
_cell_length_a                   7.6690(4)
_cell_length_b                   15.5888(10)
_cell_length_c                   16.7319(9)
_cell_angle_alpha                69.948(5)
_cell_angle_beta                 80.155(4)
_cell_angle_gamma                81.116(5)
_cell_volume                     1841.44
loop_
_atom_site_label
_atom_site_type_symbol
_atom_site_fract_x
_atom_site_fract_y
_atom_site_fract_z
Cd1 Cd 0.38490(5) 0.82345(3) 0.08737(2)
Cd2 Cd 0.36779(5) 0.99261(3) -0.14247(2)
Cd3 Cd 1.0000 1.0000 0.0000
N1 N 0.2676(6) 0.7018(3) 0.0809(3)
N2 N 0.5469(6) 0.9902(4) -0.2711(3)
O1 O 0.5227(5) 0.8721(3) 0.1708(2)
O2 O 0.5844(6) 0.7234(3) 0.2044(3)
O3 O 0.8962(5) 0.8999(3) 0.1338(2)
O4 O 1.1345(5) 0.8242(3) 0.1942(2)
O5 O 0.6289(5) 0.9227(3) -0.0893(3)
O6 O 0.6348(5) 0.7812(3) 0.0045(3)
O7 O 0.9926(5) 0.8910(3) -0.0615(2)
O8 O 1.1962(6) 0.9133(3) -0.1769(3)
O9 O 0.2888(4) 0.9594(2) 0.0015(2)
H1 H 0.3229 0.9946 0.0209
C1 C 0.5965(7) 0.7962(4) 0.2161(4)
C2 C 0.9725(7) 0.8480(4) 0.1975(4)
C3 C 0.6860(7) 0.7944(4) 0.2899(3)
C4 C 0.8582(7) 0.8157(4) 0.2816(3)
C5 C 0.9323(9) 0.8076(5) 0.3553(4)
H2 H 1.0512 0.8169 0.3500
C6 C 0.8357(10) 0.7867(7) 0.4338(4)
H3 H 0.8866 0.7857 0.4807
C7 C 0.6614(10) 0.7668(7) 0.4449(4)
C8 C 0.5582(12) 0.7438(10) 0.5269(5)
H4 H 0.6044 0.7461 0.5740
C9 C 0.3924(13) 0.7186(9) 0.5366(6)
H5 H 0.3274 0.7017 0.5909
C10 C 0.3154(12) 0.7175(8) 0.4651(6)
H6 H 0.2029 0.6983 0.4730
C11 C 0.4081(9) 0.7447(6) 0.3856(5)
H7 H 0.3540 0.7488 0.3385
C12 C 0.5842(8) 0.7669(5) 0.3726(4)
C13 C 0.6824(7) 0.8361(4) -0.0651(4)
C14 C 1.0572(7) 0.8799(4) -0.1315(4)
C15 C 0.7967(7) 0.8012(4) -0.1335(3)
C16 C 0.7164(7) 0.7457(4) -0.1660(4)
C17 C 0.5396(8) 0.7230(4) -0.1396(4)
H8 H 0.4695 0.7456 -0.0985
C18 C 0.4685(9) 0.6694(5) -0.1721(5)
H9 H 0.3524 0.6546 -0.1524
C19 C 0.5706(12) 0.6363(5) -0.2356(5)
H10 H 0.5216 0.6002 -0.2584
C20 C 0.7407(11) 0.6568(5) -0.2637(5)
H11 H 0.8072 0.6341 -0.3054
C21 C 0.8180(9) 0.7112(4) -0.2311(4)
C22 C 0.9948(9) 0.7353(5) -0.2610(5)
H12 H 1.0631 0.7130 -0.3027
C23 C 1.0657(8) 0.7901(5) -0.2298(4)
H13 H 1.1804 0.8062 -0.2516
C24 C 0.9681(7) 0.8232(4) -0.1648(4)
C25 C 0.0962(8) 0.7094(4) 0.0692(4)
H14 H 0.0225 0.7615 0.0732
C26 C 0.0257(9) 0.6430(4) 0.0515(4)
H15 H -0.0937 0.6508 0.0439
C27 C 0.1322(8) 0.5638(4) 0.0448(4)
C28 C 0.3051(8) 0.5552(4) 0.0622(4)
H16 H 0.3795 0.5019 0.0629
C29 C 0.3676(8) 0.6244(4) 0.0784(4)
H17 H 0.4856 0.6172 0.0881
C30 C 0.0702(10) 0.4942(4) 0.0204(5)
H18 H 0.1342 0.4364 0.0345
C31 C 0.7101(8) 1.0136(5) -0.2815(4)
H19 H 0.7405 1.0336 -0.2399
C32 C 0.8368(9) 1.0106(5) -0.3484(4)
H20 H 0.9504 1.0257 -0.3501
C33 C 0.7965(9) 0.9854(5) -0.4131(4)
C34 C 0.6259(11) 0.9570(7) -0.4010(5)
H21 H 0.5933 0.9343 -0.4404
C35 C 0.5075(9) 0.9627(6) -0.3313(4)
H22 H 0.3936 0.9462 -0.3262
C36 C 0.9204(10) 0.9866(7) -0.4900(5)
H23 H 0.8813 0.9660 -0.5293
N1A N -0.2676(6) 0.2982(3) -0.0809(3)
C25A C -0.0962(8) 0.2906(4) -0.0692(4)
H14A H -0.0225 0.2385 -0.0732
C26A C -0.0257(9) 0.3570(4) -0.0515(4)
H15A H 0.0937 0.3492 -0.0439
C27A C -0.1322(8) 0.4362(4) -0.0448(4)
C28A C -0.3051(8) 0.4448(4) -0.0622(4)
H16A H -0.3795 0.4981 -0.0629
C29A C -0.3676(8) 0.3756(4) -0.0784(4)
H17A H -0.4856 0.3828 -0.0881
C30A C -0.0702(10) 0.5058(4) -0.0204(5)
H18A H -0.1342 0.5636 -0.0345
N2A N 1.4531(6) 1.0098(4) -0.7289(3)
C31A C 1.2899(8) 0.9864(5) -0.7185(4)
H19A H 1.2595 0.9664 -0.7601
C32A C 1.1632(9) 0.9894(5) -0.6516(4)
H20A H 1.0496 0.9743 -0.6499
C33A C 1.2035(9) 1.0146(5) -0.5869(4)
C34A C 1.3741(11) 1.0430(7) -0.5990(5)
H21A H 1.4067 1.0657 -0.5596
C35A C 1.4925(9) 1.0373(6) -0.6687(4)
H22A H 1.6064 1.0538 -0.6738
C36A C 1.0796(10) 1.0134(7) -0.5100(5)
H23A H 1.1187 1.0340 -0.4707
Cd1A Cd -0.38490(5) 0.17655(3) -0.08737(2)
Cd2A Cd -0.36779(5) 0.00739(3) 0.14247(2)
O1A O -0.5227(5) 0.1279(3) -0.1708(2)
O2A O -0.5844(6) 0.2766(3) -0.2044(3)
O3A O -0.8962(5) 0.1001(3) -0.1338(2)
O4A O -1.1345(5) 0.1758(3) -0.1942(2)
O5A O -0.6289(5) 0.0773(3) 0.0893(3)
O6A O -0.6348(5) 0.2188(3) -0.0045(3)
O7A O -0.9926(5) 0.1090(3) 0.0615(2)
O8A O -1.1962(6) 0.0867(3) 0.1769(3)
O9A O -0.2888(4) 0.0406(2) -0.0015(2)
H1A H -0.3229 0.0054 -0.0209
C1A C -0.5965(7) 0.2038(4) -0.2161(4)
C2A C -0.9725(7) 0.1520(4) -0.1975(4)
C3A C -0.6860(7) 0.2056(4) -0.2899(3)
C4A C -0.8582(7) 0.1843(4) -0.2816(3)
C5A C -0.9323(9) 0.1924(5) -0.3553(4)
H2A H -1.0512 0.1831 -0.3500
C6A C -0.8357(10) 0.2133(7) -0.4338(4)
H3A H -0.8866 0.2143 -0.4807
C7A C -0.6614(10) 0.2332(7) -0.4449(4)
C8A C -0.5582(12) 0.2562(10) -0.5269(5)
H4A H -0.6044 0.2539 -0.5740
C9A C -0.3924(13) 0.2814(9) -0.5366(6)
H5A H -0.3274 0.2983 -0.5909
C10A C -0.3154(12) 0.2825(8) -0.4651(6)
H6A H -0.2029 0.3017 -0.4730
C11A C -0.4081(9) 0.2553(6) -0.3856(5)
H7A H -0.3540 0.2512 -0.3385
C12A C -0.5842(8) 0.2331(5) -0.3726(4)
C13A C -0.6824(7) 0.1639(4) 0.0651(4)
C14A C -1.0572(7) 0.1201(4) 0.1315(4)
C15A C -0.7967(7) 0.1988(4) 0.1335(3)
C16A C -0.7164(7) 0.2543(4) 0.1660(4)
C17A C -0.5396(8) 0.2770(4) 0.1396(4)
H8A H -0.4695 0.2544 0.0985
C18A C -0.4685(9) 0.3306(5) 0.1721(5)
H9A H -0.3524 0.3454 0.1524
C19A C -0.5706(12) 0.3637(5) 0.2356(5)
H10A H -0.5216 0.3998 0.2584
C20A C -0.7407(11) 0.3432(5) 0.2637(5)
H11A H -0.8072 0.3659 0.3054
C21A C -0.8180(9) 0.2888(4) 0.2311(4)
C22A C -0.9948(9) 0.2647(5) 0.2610(5)
H12A H -1.0631 0.2870 0.3027
C23A C -1.0657(8) 0.2099(5) 0.2298(4)
H13A H -1.1804 0.1938 0.2516
C24A C -0.9681(7) 0.1768(4) 0.1648(4)
Cd1_2 Cd 1.38490(5) 0.82345(3) 0.08737(2)
Cd1A_2 Cd -1.38490(5) 0.17655(3) -0.08737(2)
Cd2_2 Cd -0.63221(5) -0.00739(3) -0.14247(2)
Cd2_3 Cd 1.36779(5) 0.99261(3) -0.14247(2)
Cd2A_2 Cd -1.36779(5) 0.00739(3) 0.14247(2)
Cd2A_3 Cd 0.63221(5) 1.00739(3) 0.14247(2)
Cd2A_4 Cd 1.63221(5) 1.00739(3) -0.85753(2)
Cd3_2 Cd -1.0000 0.0000 0.0000
Cd3_3 Cd 0.0000 0.0000 0.0000
Cd3_4 Cd 0.0000 1.0000 0.0000
N2A_2 N -0.5469(6) 0.0098(4) 0.2711(3)
O1_2 O -0.4773(5) -0.1279(3) 0.1708(2)
O1A_2 O 0.4773(5) 1.1279(3) -0.1708(2)
O3_2 O -0.1038(5) -0.1001(3) 0.1338(2)
O3A_2 O 0.1038(5) 1.1001(3) -0.1338(2)
O3A_3 O 1.1038(5) 1.1001(3) -0.1338(2)
O4_2 O 0.1345(5) 0.8242(3) 0.1942(2)
O4A_2 O -0.1345(5) 0.1758(3) -0.1942(2)
O7A_2 O 1.0074(5) 1.1090(3) 0.0615(2)
O8_2 O 0.1962(6) 0.9133(3) -0.1769(3)
O8A_2 O -0.1962(6) 0.0867(3) 0.1769(3)
O9_2 O 1.2888(4) 0.9594(2) 0.0015(2)
O9A_2 O 0.7112(4) 1.0406(2) -0.0015(2)
O10 O 0.603(3) 0.5350(8) 0.3265(13)
H24 H 0.6927 0.5388 0.2877
H25 H 0.6446 0.5224 0.3734
loop_
_geom_bond_atom_site_label_1
_geom_bond_atom_site_label_2
_geom_bond_site_symmetry_1
_geom_bond_site_symmetry_2
Cd1 N1 1_555 1_555
Cd2 N2 1_555 1_555
Cd3 O3 1_555 1_555
N1 C25 1_555 1_555
N2 C31 1_555 1_555
O1 Cd1 1_555 1_555
O2 Cd1 1_555 1_555
O3 C2 1_555 1_555
O4 C2 1_555 1_555
O5 Cd2 1_555 1_555
O6 Cd1 1_555 1_555
O7 Cd3 1_555 1_555
O8 C14 1_555 1_555
O9 Cd1 1_555 1_555
H1 O9 1_555 1_555
C1 O1 1_555 1_555
C2 C4 1_555 1_555
C3 C1 1_555 1_555
C4 C3 1_555 1_555
C5 C4 1_555 1_555
H2 C5 1_555 1_555
C6 C5 1_555 1_555
H3 C6 1_555 1_555
C7 C6 1_555 1_555
C8 C7 1_555 1_555
H4 C8 1_555 1_555
C9 C8 1_555 1_555
H5 C9 1_555 1_555
C10 C9 1_555 1_555
H6 C10 1_555 1_555
C11 C10 1_555 1_555
H7 C11 1_555 1_555
C12 C3 1_555 1_555
C13 O5 1_555 1_555
C14 O7 1_555 1_555
C15 C13 1_555 1_555
C16 C15 1_555 1_555
C17 C16 1_555 1_555
H8 C17 1_555 1_555
C18 C17 1_555 1_555
H9 C18 1_555 1_555
C19 C18 1_555 1_555
H10 C19 1_555 1_555
C20 C19 1_555 1_555
H11 C20 1_555 1_555
C21 C16 1_555 1_555
C22 C21 1_555 1_555
H12 C22 1_555 1_555
C23 C22 1_555 1_555
H13 C23 1_555 1_555
C24 C14 1_555 1_555
C25 H14 1_555 1_555
C26 C25 1_555 1_555
H15 C26 1_555 1_555
C27 C26 1_555 1_555
C28 C27 1_555 1_555
H16 C28 1_555 1_555
C29 N1 1_555 1_555
H17 C29 1_555 1_555
C30 C27 1_555 1_555
H18 C30 1_555 1_555
C31 H19 1_555 1_555
C32 C31 1_555 1_555
H20 C32 1_555 1_555
C33 C32 1_555 1_555
C34 C33 1_555 1_555
H21 C34 1_555 1_555
C35 N2 1_555 1_555
H22 C35 1_555 1_555
C36 C33 1_555 1_555
H23 C36 1_555 1_555
O10 H24 1_555 1_555
H25 O10 1_555 1_555
N1A C25A 1_555 1_555
C25A H14A 1_555 1_555
C26A C25A 1_555 1_555
H15A C26A 1_555 1_555
C27A C26A 1_555 1_555
C28A C27A 1_555 1_555
H16A C28A 1_555 1_555
C29A N1A 1_555 1_555
H17A C29A 1_555 1_555
C30A C30 1_555 1_555
H18A C30A 1_555 1_555
N2A C31A 1_555 1_555
C31A H19A 1_555 1_555
C32A C31A 1_555 1_555
H20A C32A 1_555 1_555
C33A C32A 1_555 1_555
C34A C33A 1_555 1_555
H21A C34A 1_555 1_555
C35A N2A 1_555 1_555
H22A C35A 1_555 1_555
C36A C36 1_555 1_555
H23A C36A 1_555 1_555
Cd1A N1A 1_555 1_555
Cd2A O5A 1_555 1_555
O1A Cd1A 1_555 1_555
O2A Cd1A 1_555 1_555
O3A C2A 1_555 1_555
O4A C2A 1_555 1_555
O5A C13A 1_555 1_555
O6A Cd1A 1_555 1_555
O7A C14A 1_555 1_555
O8A C14A 1_555 1_555
O9A Cd1A 1_555 1_555
H1A O9A 1_555 1_555
C1A O1A 1_555 1_555
C2A C4A 1_555 1_555
C3A C1A 1_555 1_555
C4A C3A 1_555 1_555
C5A C4A 1_555 1_555
H2A C5A 1_555 1_555
C6A C5A 1_555 1_555
H3A C6A 1_555 1_555
C7A C6A 1_555 1_555
C8A C7A 1_555 1_555
H4A C8A 1_555 1_555
C9A C8A 1_555 1_555
H5A C9A 1_555 1_555
C10A C9A 1_555 1_555
H6A C10A 1_555 1_555
C11A C10A 1_555 1_555
H7A C11A 1_555 1_555
C12A C3A 1_555 1_555
C13A O6A 1_555 1_555
C14A C24A 1_555 1_555
C15A C13A 1_555 1_555
C16A C15A 1_555 1_555
C17A C16A 1_555 1_555
H8A C17A 1_555 1_555
C18A C17A 1_555 1_555
H9A C18A 1_555 1_555
C19A C18A 1_555 1_555
H10A C19A 1_555 1_555
C20A C19A 1_555 1_555
H11A C20A 1_555 1_555
C21A C16A 1_555 1_555
C22A C21A 1_555 1_555
H12A C22A 1_555 1_555
C23A C22A 1_555 1_555
H13A C23A 1_555 1_555
C24A C15A 1_555 1_555
Cd1_2 O4 1_555 1_555
Cd1A_2 O4A 1_555 1_555
Cd2_2 O1A 1_555 1_555
Cd2_3 O8 1_555 1_555
Cd2A_2 O8A 1_555 1_555
Cd2A_3 O1 1_555 1_555
Cd2A_4 N2A 1_555 1_555
Cd3_2 O3A 1_555 1_555
Cd3_3 O9A 1_555 1_555
Cd3_4 O9 1_555 1_555
N2A_2 Cd2A 1_555 1_555
O1_2 Cd2A 1_555 1_555
O1A_2 Cd2 1_555 1_555
O3_2 Cd2A 1_555 1_555
O3A_2 Cd2 1_555 1_555
O3A_3 Cd3 1_555 1_555
O4_2 Cd1 1_555 1_555
O4A_2 Cd1A 1_555 1_555
O7A_2 Cd3 1_555 1_555
O8_2 Cd2 1_555 1_555
O8A_2 Cd2A 1_555 1_555
O9_2 Cd3 1_555 1_555
O9A_2 Cd3 1_555 1_555
Cd2 O9 1_555 1_555
O2 C1 1_555 1_555
O3 Cd2A_3 1_555 1_555
O6 C13 1_555 1_555
C7 C12 1_555 1_555
C11 C12 1_555 1_555
C15 C24 1_555 1_555
C20 C21 1_555 1_555
C23 C24 1_555 1_555
C28 C29 1_555 1_555
C34 C35 1_555 1_555
C27A C30A 1_555 1_555
C28A C29A 1_555 1_555
C33A C36A 1_555 1_555
C34A C35A 1_555 1_555
Cd2A O9A 1_555 1_555
O2A C1A 1_555 1_555
O3A Cd2_2 1_555 1_555
O7A Cd3_2 1_555 1_555
C7A C12A 1_555 1_555
C11A C12A 1_555 1_555
C20A C21A 1_555 1_555
C23A C24A 1_555 1_555
Cd1_2 O9_2 1_555 1_555
Cd2_3 O3A_3 1_555 1_555
Cd2_3 O9_2 1_555 1_555
Cd2A_3 O9A_2 1_555 1_555
Cd3_3 O3_2 1_555 1_555
Cd3_4 O3A_2 1_555 1_555

#END
