
#######################################################################
#
#                 Cambridge Crystallographic Data Centre
#                                CCDC 
#
#######################################################################
#
# If this CIF has been generated from an entry in the Cambridge 
# Structural Database, then it will include bibliographic, chemical, 
# crystal, experimental, refinement or atomic coordinate data resulting 
# from the CCDC's data processing and validation procedures.
#
#######################################################################

data_LUFNIK
_symmetry_cell_setting           monoclinic
_symmetry_space_group_name_H-M   'C 2/c'
_symmetry_Int_Tables_number      15
_space_group_name_Hall           '-C 2yn'
loop_
_symmetry_equiv_pos_site_id
_symmetry_equiv_pos_as_xyz
1 x,y,z
2 -x,y,1/2-z
3 1/2+x,1/2+y,z
4 1/2-x,1/2+y,1/2-z
5 -x,-y,-z
6 x,-y,1/2+z
7 1/2-x,1/2-y,-z
8 1/2+x,1/2-y,1/2+z
_cell_length_a                   17.777(7)
_cell_length_b                   15.303(5)
_cell_length_c                   16.267(6)
_cell_angle_alpha                90
_cell_angle_beta                 113.510(5)
_cell_angle_gamma                90
_cell_volume                     4057.96
loop_
_atom_site_label
_atom_site_type_symbol
_atom_site_fract_x
_atom_site_fract_y
_atom_site_fract_z
Mn1 Mn 0.26745(9) -0.11011(9) 1.04514(9)
O1 O 0.2782(5) -0.0266(4) 1.1624(5)
O2 O 0.2514(5) 0.0397(5) 1.0335(5)
O3 O 0.2003(5) 0.2685(4) 1.3918(5)
O4 O 0.2437(5) 0.1299(4) 1.4092(5)
N1 N 0.1874(6) 0.3530(6) 1.0840(6)
H1 H 0.1961 0.3540 1.0357
C1 C 0.2415(7) 0.1238(7) 1.2371(7)
H2 H 0.2545 0.0729 1.2711
C2 C 0.2223(6) 0.1997(6) 1.2720(6)
C3 C 0.2582(6) 0.0408(6) 1.1141(6)
C4 C 0.2048(6) 0.2782(6) 1.1345(7)
N2 N -0.0987(6) 0.4079(6) 1.0682(6)
C5 C 0.2412(6) 0.1241(6) 1.1522(7)
N3 N 0.1343(7) -0.1239(7) 1.0205(9)
C6 C 0.2029(6) 0.2767(6) 1.2212(6)
H3 H 0.1887 0.3269 1.2440
C7 C 0.2223(6) 0.1999(7) 1.1009(7)
H4 H 0.2212 0.1987 1.0432
C8 C 0.2216(6) 0.2007(6) 1.3642(6)
C9 C 0.0663(7) 0.4212(7) 1.0952(7)
C10 C 0.1552(7) 0.4294(6) 1.1091(7)
H5 H 0.1877 0.4418 1.1718
H6 H 0.1609 0.4786 1.0744
C11 C 0.0156(7) 0.3584(8) 1.0393(9)
H7 H 0.0359 0.3194 1.0092
C12 C 0.0315(7) 0.4778(8) 1.1367(8)
H8 H 0.0633 0.5211 1.1748
C13 C 0.0642(15) -0.1095(13) 0.990(2)
C14 C -0.0490(8) 0.4699(8) 1.1217(8)
H9 H -0.0710 0.5092 1.1497
C15 C -0.0660(8) 0.3540(8) 1.0284(9)
H10 H -0.0992 0.3109 0.9912
C18 C -0.0284(16) -0.106(3) 0.953(3)
H14 H -0.0454 -0.0563 0.9771
H15 H -0.0495 -0.1012 0.8888
H16 H -0.0490 -0.1585 0.9690
Mn1C Mn 0.23255(9) -0.61011(9) 1.45486(9)
Mn1C_2 Mn 0.23255(9) 0.38989(9) 1.45486(9)
Mn1E Mn 0.26745(9) 0.11011(9) 1.54514(9)
Mn1B Mn -0.23255(9) 0.38989(9) 1.04514(9)
Mn1F Mn 0.23255(9) -0.38989(9) 0.95486(9)
Mn1A Mn 0.73255(9) -0.11011(9) 1.45486(9)
O1C O 0.2218(5) -0.5266(4) 1.3376(5)
O2C O 0.2486(5) -0.4603(5) 1.4665(5)
O3C O 0.2997(5) -0.2315(4) 1.1082(5)
O3_2 O 0.2003(5) -0.7315(4) 1.3918(5)
O4C O 0.2563(5) -0.3701(4) 1.0908(5)
O4E O 0.2437(5) -0.1299(4) 0.9092(5)
O4F O 0.2563(5) -0.6299(4) 1.5908(5)
N1C N 0.3126(6) -0.1470(6) 1.4160(6)
H1C H 0.3039 -0.1460 1.4643
C1C C 0.2585(7) -0.3762(7) 1.2629(7)
H2C H 0.2455 -0.4271 1.2289
C2C C 0.2777(6) -0.3003(6) 1.2280(6)
C3C C 0.2418(6) -0.4592(6) 1.3859(6)
C4C C 0.2952(6) -0.2218(6) 1.3655(7)
N2C N 0.5987(6) -0.0921(6) 1.4318(6)
N2B N 0.4013(6) -0.0921(6) 1.0682(6)
N2A N 0.0987(6) -0.5921(6) 1.4318(6)
C5C C 0.2588(6) -0.3759(6) 1.3478(7)
N3C N 0.3657(7) -0.6239(7) 1.4795(9)
C6C C 0.2971(6) -0.2233(6) 1.2788(6)
H3C H 0.3113 -0.1731 1.2560
C7C C 0.2777(6) -0.3001(7) 1.3991(7)
H4C H 0.2788 -0.3013 1.4568
C8C C 0.2784(6) -0.2993(6) 1.1358(6)
C9C C 0.4337(7) -0.0788(7) 1.4048(7)
C10C C 0.3448(7) -0.0706(6) 1.3909(7)
H5C H 0.3123 -0.0582 1.3282
H6C H 0.3391 -0.0214 1.4256
C11C C 0.4844(7) -0.1416(8) 1.4607(9)
H7C H 0.4641 -0.1806 1.4908
C12C C 0.4685(7) -0.0222(8) 1.3633(8)
H8C H 0.4367 0.0211 1.3252
C13C C 0.4358(15) -0.6095(13) 1.510(2)
C14C C 0.5490(8) -0.0301(8) 1.3783(8)
H9C H 0.5710 0.0092 1.3503
C15C C 0.5660(8) -0.1460(8) 1.4716(9)
H10C H 0.5992 -0.1891 1.5088
C18C C 0.5284(16) -0.606(3) 1.547(3)
H14C H 0.5454 -0.5563 1.5229
H15C H 0.5495 -0.6012 1.6112
H16C H 0.5490 -0.6585 1.5310
C16 C 0.0000 0.2676(15) 0.2500
H13 H -0.0217 0.2885 0.2918
C17 C 0.0000 0.1701(16) 0.2500
N4 N 0.0000 0.096(2) 0.2500
H13A H 0.0217 0.2885 0.2082
C19 C -0.1092(18) -0.077(2) 0.257(3)
C20 C -0.122(2) -0.064(4) 0.161(2)
H17 H -0.1023 -0.0076 0.1540
H18 H -0.1790 -0.0693 0.1235
H19 H -0.0916 -0.1083 0.1447
N5 N -0.097(7) -0.088(4) 0.328(3)
H11? H -0.0334 0.2885 0.1910
H12? H 0.0551 0.2885 0.2672
loop_
_geom_bond_atom_site_label_1
_geom_bond_atom_site_label_2
_geom_bond_site_symmetry_1
_geom_bond_site_symmetry_2
Mn1 O1 1_555 1_555
O1 C3 1_555 1_555
O2 Mn1 1_555 1_555
O3 C8 1_555 1_555
O4 C8 1_555 1_555
N1 H1 1_555 1_555
C1 H2 1_555 1_555
C2 C1 1_555 1_555
C3 O2 1_555 1_555
C4 N1 1_555 1_555
N2 C14 1_555 1_555
C5 C1 1_555 1_555
N3 Mn1 1_555 1_555
C6 C2 1_555 1_555
H3 C6 1_555 1_555
C7 C4 1_555 1_555
H4 C7 1_555 1_555
C8 C2 1_555 1_555
C9 C10 1_555 1_555
C10 N1 1_555 1_555
H5 C10 1_555 1_555
H6 C10 1_555 1_555
C11 C9 1_555 1_555
H7 C11 1_555 1_555
C12 C9 1_555 1_555
H8 C12 1_555 1_555
C13 N3 1_555 1_555
C14 C12 1_555 1_555
H9 C14 1_555 1_555
C15 N2 1_555 1_555
H10 C15 1_555 1_555
C16 H13 1_555 1_555
C17 C16 1_555 1_555
N4 C17 1_555 1_555
C18 C13 1_555 1_555
H14 C18 1_555 1_555
H15 C18 1_555 1_555
H16 C18 1_555 1_555
C19 C20 1_555 1_555
C20 H17 1_555 1_555
H18 C20 1_555 1_555
H19 C20 1_555 1_555
N5 C19 1_555 1_555
Mn1C O1C 1_555 1_555
Mn1C_2 O3 1_555 1_555
Mn1E O4 1_555 1_555
Mn1B N2 1_555 1_555
Mn1F O4C 1_555 1_555
Mn1A N2C 1_555 1_555
O1C C3C 1_555 1_555
O2C Mn1C 1_555 1_555
O3C Mn1 1_555 1_555
O3_2 Mn1C 1_555 1_555
O4C C8C 1_555 1_555
O4E Mn1 1_555 1_555
O4F Mn1C 1_555 1_555
N1C H1C 1_555 1_555
C1C H2C 1_555 1_555
C2C C1C 1_555 1_555
C3C O2C 1_555 1_555
C4C N1C 1_555 1_555
N2C C14C 1_555 1_555
N2B Mn1 1_555 1_555
N2A Mn1C 1_555 1_555
C5C C1C 1_555 1_555
N3C Mn1C 1_555 1_555
C6C C2C 1_555 1_555
H3C C6C 1_555 1_555
C7C C4C 1_555 1_555
H4C C7C 1_555 1_555
C8C O3C 1_555 1_555
C9C C10C 1_555 1_555
C10C N1C 1_555 1_555
H5C C10C 1_555 1_555
H6C C10C 1_555 1_555
C11C C9C 1_555 1_555
H7C C11C 1_555 1_555
C12C C9C 1_555 1_555
H8C C12C 1_555 1_555
C13C N3C 1_555 1_555
C14C C12C 1_555 1_555
H9C C14C 1_555 1_555
C15C N2C 1_555 1_555
H10C C15C 1_555 1_555
H13A C16 1_555 1_555
C18C C13C 1_555 1_555
H14C C18C 1_555 1_555
H15C C18C 1_555 1_555
H16C C18C 1_555 1_555
C3 C5 1_555 1_555
C4 C6 1_555 1_555
C5 C7 1_555 1_555
C11 C15 1_555 1_555
C2C C8C 1_555 1_555
C3C C5C 1_555 1_555
C4C C6C 1_555 1_555
C5C C7C 1_555 1_555
C11C C15C 1_555 1_555

#END
