
#######################################################################
#
#                 Cambridge Crystallographic Data Centre
#                                CCDC 
#
#######################################################################
#
# If this CIF has been generated from an entry in the Cambridge 
# Structural Database, then it will include bibliographic, chemical, 
# crystal, experimental, refinement or atomic coordinate data resulting 
# from the CCDC's data processing and validation procedures.
#
#######################################################################

data_LULWUL
_symmetry_cell_setting           tetragonal
_symmetry_space_group_name_H-M   'P 41'
_symmetry_Int_Tables_number      76
_space_group_name_Hall           'P 4w'
loop_
_symmetry_equiv_pos_site_id
_symmetry_equiv_pos_as_xyz
1 x,y,z
2 -x,-y,1/2+z
3 -y,x,1/4+z
4 y,-x,3/4+z
_cell_length_a                   9.9660(9)
_cell_length_b                   9.9660(9)
_cell_length_c                   20.472(2)
_cell_angle_alpha                90
_cell_angle_beta                 90
_cell_angle_gamma                90
_cell_volume                     2033.3
loop_
_atom_site_label
_atom_site_type_symbol
_atom_site_fract_x
_atom_site_fract_y
_atom_site_fract_z
Co1 Co 0.90137(6) 0.21546(6) 0.10438(4)
Na1 Na 1.0571(2) 0.1471(2) -0.02078(12)
Na2 Na 1.7232(2) 0.2004(2) -0.02966(12)
O1 O 1.1292(3) 0.2022(3) 0.08393(17)
O2 O 1.0327(3) 0.1891(3) 0.1806(2)
O3 O 1.6328(4) 0.2421(4) 0.0733(2)
O4 O 1.7457(3) 0.2127(3) 0.1655(2)
O5 O 0.8655(3) -0.0835(4) 0.13338(18)
O6 O 0.8843(3) 0.0521(3) 0.04617(19)
O7 O 0.9113(4) -0.5749(4) 0.0997(3)
O8 O 0.9016(4) -0.6616(4) 0.0011(3)
C1 C 1.2710(5) 0.2117(5) 0.1789(3)
C2 C 1.3879(5) 0.2196(5) 0.1421(3)
H1 H 1.3839 0.2186 0.0957
C3 C 1.5094(5) 0.2290(5) 0.1735(3)
C4 C 1.5168(5) 0.2338(5) 0.2410(3)
H2 H 1.6013 0.2410 0.2622
C5 C 1.3991(5) 0.2280(5) 0.2775(3)
H3 H 1.4028 0.2324 0.3238
C6 C 1.2781(5) 0.2159(5) 0.2464(3)
H4 H 1.1980 0.2104 0.2715
C7 C 1.1379(5) 0.1992(5) 0.1446(3)
C8 C 1.6358(5) 0.2294(5) 0.1329(3)
C9 C 0.8763(5) -0.1825(5) 0.0271(3)
C10 C 0.8901(4) -0.3110(5) 0.0522(3)
H5 H 0.8985 -0.3235 0.0980
C11 C 0.8917(5) -0.4219(5) 0.0107(3)
C12 C 0.8825(5) -0.4046(5) -0.0556(3)
H6 H 0.8841 -0.4802 -0.0839
C13 C 0.8708(6) -0.2763(5) -0.0812(3)
H7 H 0.8655 -0.2642 -0.1272
C14 C 0.8666(5) -0.1640(5) -0.0398(3)
H8 H 0.8573 -0.0764 -0.0575
C15 C 0.8752(5) -0.0647(5) 0.0724(3)
C16 C 0.9044(5) -0.5611(5) 0.0377(3)
O9 O 1.5826(4) 0.0179(4) -0.0448(2)
C17 C 1.5231(7) -0.0584(7) 0.0074(4)
H9 H 1.4671 -0.1298 -0.0111
H10 H 1.4676 0.0008 0.0344
H11 H 1.5940 -0.0982 0.0343
O10 O 1.5701(5) 0.3256(5) -0.0905(3)
H12 H 1.4803 0.2967 -0.0838
C18 C 1.5783(7) 0.4364(7) -0.1358(4)
H13 H 1.4882 0.4587 -0.1515
H14 H 1.6351 0.4110 -0.1729
H15 H 1.6172 0.5145 -0.1137
H16 H 1.522(7) 0.028(7) -0.072(4)
Co1_2 Co 1.90137(6) 0.21546(6) 0.10438(4)
Co1_3 Co 0.90137(6) -0.78454(6) 0.10438(4)
Na1B Na 0.8529(2) 0.0571(2) 0.22922(12)
Na1B_2 Na 1.8529(2) 0.0571(2) 0.22922(12)
Na1_2 Na 1.0571(2) -0.8529(2) -0.02078(12)
Na2B Na 0.7996(2) -0.2768(2) 0.22034(12)
Na2_2 Na 0.7232(2) 0.2004(2) -0.02966(12)
Na2_3 Na 0.7232(2) -0.7996(2) -0.02966(12)
O2C O 1.1891(3) -0.0327(3) -0.0694(2)
O4_2 O 0.7457(3) 0.2127(3) 0.1655(2)
O4C O 1.2127(3) 0.2543(3) -0.0845(2)
O5C O 0.9165(4) 0.1345(3) -0.11662(18)
O5C_2 O 1.9165(4) 0.1345(3) -0.11662(18)
O6_2 O 1.8843(3) 0.0521(3) 0.04617(19)
O7_2 O 0.9113(4) 0.4251(4) 0.0997(3)
O8_2 O 0.9016(4) 0.3384(4) 0.0011(3)
O8_3 O 1.9016(4) 0.3384(4) 0.0011(3)
loop_
_geom_bond_atom_site_label_1
_geom_bond_atom_site_label_2
_geom_bond_site_symmetry_1
_geom_bond_site_symmetry_2
Co1 O2 1_555 1_555
Na1 O1 1_555 1_555
Na2 O3 1_555 1_555
O1 C7 1_555 1_555
O2 C7 1_555 1_555
O3 C8 1_555 1_555
O4 C8 1_555 1_555
O5 C15 1_555 1_555
O6 Co1 1_555 1_555
O7 C16 1_555 1_555
O8 C16 1_555 1_555
C1 C2 1_555 1_555
C2 H1 1_555 1_555
C3 C2 1_555 1_555
C4 C3 1_555 1_555
H2 C4 1_555 1_555
C5 C4 1_555 1_555
H3 C5 1_555 1_555
C6 C1 1_555 1_555
H4 C6 1_555 1_555
C7 C1 1_555 1_555
C8 C3 1_555 1_555
C9 C10 1_555 1_555
C10 H5 1_555 1_555
C11 C10 1_555 1_555
C12 C11 1_555 1_555
H6 C12 1_555 1_555
C13 C12 1_555 1_555
H7 C13 1_555 1_555
C14 C9 1_555 1_555
H8 C14 1_555 1_555
C15 O6 1_555 1_555
C16 C11 1_555 1_555
O9 Na2 1_555 1_555
C17 O9 1_555 1_555
H9 C17 1_555 1_555
H10 C17 1_555 1_555
H11 C17 1_555 1_555
O10 Na2 1_555 1_555
H12 O10 1_555 1_555
C18 O10 1_555 1_555
H13 C18 1_555 1_555
H14 C18 1_555 1_555
H15 C18 1_555 1_555
H16 O9 1_555 1_555
Co1_2 O4 1_555 1_555
Co1_3 O7 1_555 1_555
Na1B O2 1_555 1_555
Na1B_2 O4 1_555 1_555
Na1_2 O8 1_555 1_555
Na2B O5 1_555 1_555
Na2_2 O6 1_555 1_555
Na2_3 O8 1_555 1_555
O2C Na1 1_555 1_555
O4_2 Co1 1_555 1_555
O4C Na1 1_555 1_555
O5C Na1 1_555 1_555
O5C_2 Na2 1_555 1_555
O6_2 Na2 1_555 1_555
O7_2 Co1 1_555 1_555
O8_2 Na1 1_555 1_555
O8_3 Na2 1_555 1_555
Na1 O6 1_555 1_555
O5 Na1B 1_555 1_555
C5 C6 1_555 1_555
C9 C15 1_555 1_555
C13 C14 1_555 1_555
Co1_2 O6_2 1_555 1_555
Na1B O4_2 1_555 1_555
Na2_2 O5C 1_555 1_555
Na2_2 O8_2 1_555 1_555

#END
