
#######################################################################
#
#                 Cambridge Crystallographic Data Centre
#                                CCDC 
#
#######################################################################
#
# If this CIF has been generated from an entry in the Cambridge 
# Structural Database, then it will include bibliographic, chemical, 
# crystal, experimental, refinement or atomic coordinate data resulting 
# from the CCDC's data processing and validation procedures.
#
#######################################################################

data_LULXIA
_symmetry_cell_setting           monoclinic
_symmetry_space_group_name_H-M   'P 21/n'
_symmetry_Int_Tables_number      14
_space_group_name_Hall           '-P 2yn'
loop_
_symmetry_equiv_pos_site_id
_symmetry_equiv_pos_as_xyz
1 x,y,z
2 1/2-x,1/2+y,1/2-z
3 -x,-y,-z
4 1/2+x,1/2-y,1/2+z
_cell_length_a                   10.662(2)
_cell_length_b                   12.215(2)
_cell_length_c                   14.466(3)
_cell_angle_alpha                90
_cell_angle_beta                 108.73(3)
_cell_angle_gamma                90
_cell_volume                     1784.23
loop_
_atom_site_label
_atom_site_type_symbol
_atom_site_fract_x
_atom_site_fract_y
_atom_site_fract_z
Co1 Co 0.73101(3) 0.38629(3) -0.00041(3)
Li1 Li 0.9522(5) 0.5449(4) -0.0823(4)
Li2 Li 0.4255(5) 0.3783(4) -0.1377(4)
O1 O 0.73140(18) 0.53846(16) 0.13408(14)
O2 O 0.88619(19) 0.42886(15) 0.11716(14)
O3 O 0.8344(2) 0.77279(16) 0.42909(14)
O4 O 1.0332(2) 0.76483(17) 0.54256(16)
O5 O 0.7681(2) 0.54936(17) -0.11773(16)
O6 O 0.59091(18) 0.47294(15) -0.09854(14)
O7 O 0.69976(19) 0.79031(15) -0.41584(15)
O8 O 0.51391(19) 0.88890(15) -0.45603(14)
O9 O 0.4178(2) 0.3195(2) -0.27093(18)
H1 H 0.349(5) 0.289(4) -0.312(4)
C1 C 0.9343(3) 0.5251(2) 0.2669(2)
C2 C 0.9022(3) 0.6099(2) 0.3195(2)
H2 H 0.8213 0.6482 0.2919
C3 C 0.9854(3) 0.6397(2) 0.4108(2)
C4 C 1.1028(3) 0.5814(3) 0.4514(2)
H3 H 1.1614 0.6013 0.5139
C5 C 1.1346(3) 0.4949(3) 0.4014(3)
H4 H 1.2136 0.4544 0.4302
C6 C 1.0512(3) 0.4672(3) 0.3093(2)
H5 H 1.0739 0.4084 0.2748
C7 C 0.8435(3) 0.4980(2) 0.1674(2)
C8 C 0.9505(3) 0.7323(2) 0.4660(2)
C9 C 0.5585(3) 0.6102(2) -0.22072(19)
C10 C 0.6119(3) 0.6741(2) -0.2783(2)
H6 H 0.7049 0.6752 -0.2661
C11 C 0.5290(3) 0.7363(2) -0.3538(2)
C12 C 0.3921(3) 0.7329(2) -0.3737(2)
H7 H 0.3356 0.7746 -0.4261
C13 C 0.3391(3) 0.6690(2) -0.3172(2)
H8 H 0.2458 0.6661 -0.3308
C14 C 0.4214(3) 0.6090(2) -0.2408(2)
H9 H 0.3842 0.5662 -0.2013
C15 C 0.6460(3) 0.5413(2) -0.1410(2)
C16 C 0.5851(3) 0.8102(2) -0.4130(2)
C17 C 0.5233(4) 0.3252(3) -0.3130(3)
H10 H 0.5446 0.2501 -0.3291
H11 H 0.6033 0.3553 -0.2637
C18 C 0.4908(4) 0.3937(3) -0.4025(3)
H12 H 0.5667 0.3952 -0.4267
H13 H 0.4703 0.4684 -0.3872
H14 H 0.4139 0.3627 -0.4527
Co1A Co 0.76899(3) 0.88629(3) 0.50041(3)
Co1A_2 Co 0.76899(3) 0.88629(3) -0.49959(3)
Li1B Li 1.0478(5) 0.4551(4) 0.0823(4)
Li1C Li 0.4522(5) 0.9551(4) -0.5823(4)
Li1A Li 0.5478(5) 1.0449(4) -0.4177(4)
Li2B Li 0.5745(5) 0.6217(4) 0.1377(4)
Li2A Li 1.0745(5) 0.8783(4) 0.6377(4)
O1B O 0.26860(18) 0.46154(16) -0.13408(14)
O2B O 1.11381(19) 0.57114(15) -0.11716(14)
O3A O 0.6656(2) 0.27279(16) 0.07091(14)
O4A O 0.4668(2) 0.26483(17) -0.04256(16)
O7A O 0.80024(19) 0.29031(15) -0.08416(15)
O8C O 1.01391(19) 0.61110(15) 0.04397(14)
O8A O 0.98609(19) 0.38890(15) -0.04397(14)
loop_
_geom_bond_atom_site_label_1
_geom_bond_atom_site_label_2
_geom_bond_site_symmetry_1
_geom_bond_site_symmetry_2
Co1 O2 1_555 1_555
Li1 O5 1_555 1_555
Li2 O6 1_555 1_555
O1 C7 1_555 1_555
O2 C7 1_555 1_555
O3 C8 1_555 1_555
O4 C8 1_555 1_555
O5 C15 1_555 1_555
O6 Co1 1_555 1_555
O7 C16 1_555 1_555
O8 C16 1_555 1_555
O9 Li2 1_555 1_555
H1 O9 1_555 1_555
C1 C2 1_555 1_555
C2 H2 1_555 1_555
C3 C2 1_555 1_555
C4 C3 1_555 1_555
H3 C4 1_555 1_555
C5 C4 1_555 1_555
H4 C5 1_555 1_555
C6 C1 1_555 1_555
H5 C6 1_555 1_555
C7 C1 1_555 1_555
C8 C3 1_555 1_555
C9 C10 1_555 1_555
C10 H6 1_555 1_555
C11 C10 1_555 1_555
C12 C11 1_555 1_555
H7 C12 1_555 1_555
C13 C12 1_555 1_555
H8 C13 1_555 1_555
C14 C9 1_555 1_555
H9 C14 1_555 1_555
C15 O6 1_555 1_555
C16 C11 1_555 1_555
C17 O9 1_555 1_555
H10 C17 1_555 1_555
H11 C17 1_555 1_555
C18 C17 1_555 1_555
H12 C18 1_555 1_555
H13 C18 1_555 1_555
H14 C18 1_555 1_555
Co1A O3 1_555 1_555
Co1A_2 O7 1_555 1_555
Li1B O2 1_555 1_555
Li1C O8 1_555 1_555
Li1A O8 1_555 1_555
Li2B O1 1_555 1_555
Li2A O4 1_555 1_555
O1B Li2 1_555 1_555
O2B Li1 1_555 1_555
O3A Co1 1_555 1_555
O4A Li2 1_555 1_555
O7A Co1 1_555 1_555
O8C Li1 1_555 1_555
O8A Li1 1_555 1_555
C5 C6 1_555 1_555
C9 C15 1_555 1_555
C13 C14 1_555 1_555
Li1B O8C 1_555 1_555
Li1B O8A 1_555 1_555

#END
