
#######################################################################
#
#                 Cambridge Crystallographic Data Centre
#                                CCDC 
#
#######################################################################
#
# If this CIF has been generated from an entry in the Cambridge 
# Structural Database, then it will include bibliographic, chemical, 
# crystal, experimental, refinement or atomic coordinate data resulting 
# from the CCDC's data processing and validation procedures.
#
#######################################################################

data_LULXEW
_symmetry_cell_setting           monoclinic
_symmetry_space_group_name_H-M   'P 21/n'
_symmetry_Int_Tables_number      14
_space_group_name_Hall           '-P 2yn'
loop_
_symmetry_equiv_pos_site_id
_symmetry_equiv_pos_as_xyz
1 x,y,z
2 1/2-x,1/2+y,1/2-z
3 -x,-y,-z
4 1/2+x,1/2-y,1/2+z
_cell_length_a                   10.896(2)
_cell_length_b                   14.2556(18)
_cell_length_c                   13.901(3)
_cell_angle_alpha                90
_cell_angle_beta                 109.49(3)
_cell_angle_gamma                90
_cell_volume                     2035.5
loop_
_atom_site_label
_atom_site_type_symbol
_atom_site_fract_x
_atom_site_fract_y
_atom_site_fract_z
Co1 Co 0.76075(4) 0.39431(3) 0.00168(4)
Na1 Na 0.5000 0.5000 0.0000
Na2 Na 0.50599(16) 0.66874(12) 0.16576(12)
Na3 Na 1.0000 0.5000 0.0000
O1 O 0.6945(2) 0.54285(18) 0.13827(19)
O2 O 0.8673(2) 0.47827(17) 0.1110(2)
O3 O 0.7777(3) 0.79415(18) 0.4069(2)
O4 O 0.9805(3) 0.83436(18) 0.4910(2)
O5 O 0.8034(2) 0.53250(19) -0.1153(2)
O6 O 0.6226(2) 0.47001(16) -0.10448(19)
O7 O 0.7816(2) 0.78085(18) -0.3748(2)
O8 O 0.5900(2) 0.83894(17) -0.4635(2)
O9 O 0.5721(3) 0.6613(2) 0.3383(2)
H1 H 0.638(7) 0.709(5) 0.373(5)
O10 O 0.5878(4) 0.8236(3) 0.1960(3)
H2 H 0.514(4) 0.871(3) 0.148(3)
H3 H 0.646(4) 0.824(3) 0.263(4)
C1 C 0.9077(3) 0.5861(2) 0.2470(3)
C2 C 0.8614(4) 0.6534(2) 0.2983(3)
H4 H 0.7703 0.6632 0.2803
C3 C 0.9468(4) 0.7065(2) 0.3756(3)
C4 C 1.0803(4) 0.6915(3) 0.4017(3)
H5 H 1.1395 0.7281 0.4538
C5 C 1.1266(4) 0.6233(3) 0.3519(3)
H6 H 1.2176 0.6122 0.3712
C6 C 1.0411(4) 0.5712(3) 0.2740(3)
H7 H 1.0735 0.5253 0.2391
C7 C 0.8139(4) 0.5329(3) 0.1590(3)
C8 C 0.8998(4) 0.7837(3) 0.4283(3)
C9 C 0.6031(3) 0.5933(2) -0.2257(3)
C10 C 0.6658(3) 0.6559(2) -0.2703(3)
H8 H 0.7582 0.6570 -0.2491
C11 C 0.5936(4) 0.7170(2) -0.3460(3)
C12 C 0.4579(4) 0.7149(3) -0.3771(3)
H9 H 0.4081 0.7569 -0.4284
C13 C 0.3957(3) 0.6520(3) -0.3333(3)
H10 H 0.3032 0.6507 -0.3550
C14 C 0.4672(3) 0.5907(3) -0.2578(3)
H11 H 0.4240 0.5473 -0.2282
C15 C 0.6840(3) 0.5290(2) -0.1436(3)
C16 C 0.6601(4) 0.7826(2) -0.3961(3)
C17 C 0.5463(5) 0.6045(3) 0.4132(4)
H12 H 0.5051 0.6430 0.4532
H13 H 0.4847 0.5540 0.3791
C18 C 0.6703(6) 0.5615(4) 0.4841(4)
H14 H 0.6501 0.5224 0.5348
H15 H 0.7106 0.5227 0.4446
H16 H 0.7306 0.6114 0.5189
Co1B Co 0.23925(4) 0.60569(3) -0.00168(4)
Co1A Co 0.73925(4) 0.89431(3) 0.49832(4)
Co1A_2 Co 0.73925(4) 0.89431(3) -0.50168(4)
Co1C Co 0.26075(4) 0.10569(3) -0.49832(4)
Co1C_2 Co 0.26075(4) 0.10569(3) 0.50168(4)
Na1A Na 1.0000 1.0000 0.5000
Na1A_2 Na 0.0000 0.0000 -0.5000
Na2B Na 0.49401(16) 0.33126(12) -0.16576(12)
Na2C Na 1.00599(16) 0.83126(12) 0.66576(12)
Na2C_2 Na 1.00599(16) 0.83126(12) -0.33424(12)
Na2A Na -0.00599(16) 0.16874(12) -0.66576(12)
Na2A_2 Na -0.00599(16) 0.16874(12) 0.33424(12)
Na3A Na 0.5000 1.0000 -0.5000
Na3_2 Na 0.0000 0.5000 0.0000
Na3A_2 Na 0.5000 0.0000 0.5000
O1B O 0.3055(2) 0.45715(18) -0.13827(19)
O2B O 0.1327(2) 0.52173(17) -0.1110(2)
O2B_2 O 1.1327(2) 0.52173(17) -0.1110(2)
O3B O 0.2223(3) 0.20585(18) -0.4069(2)
O3A O 0.7223(3) 0.29415(18) 0.0931(2)
O3C O 0.2777(3) 0.70585(18) -0.0931(2)
O4B O 0.0195(3) 0.16564(18) -0.4910(2)
O4A O 0.5195(3) 0.33436(18) 0.0090(2)
O4C O 0.4805(3) 0.66564(18) -0.0090(2)
O5B O 0.1966(2) 0.46750(19) 0.1153(2)
O5B_2 O 1.1966(2) 0.46750(19) 0.1153(2)
O6B O 0.3774(2) 0.52999(16) 0.10448(19)
O7B O 0.2184(2) 0.21915(18) 0.3748(2)
O7C O 0.2816(2) 0.71915(18) 0.1252(2)
O7A O 0.7184(2) 0.28085(18) -0.1252(2)
O8B O 0.4100(2) 0.16106(17) 0.4635(2)
O8A O 0.9100(2) 0.33894(17) -0.0365(2)
O8C O 1.0900(2) 0.66106(17) 0.0365(2)
O8C_2 O 0.0900(2) 0.66106(17) 0.0365(2)
O9B O 0.4279(3) 0.3387(2) -0.3383(2)
H1B H 0.362(7) 0.291(5) -0.373(5)
O10B O 0.4122(4) 0.1764(3) -0.1960(3)
H2B H 0.486(4) 0.129(3) -0.148(3)
H3B H 0.354(4) 0.176(3) -0.263(4)
C1B C 0.0923(3) 0.4139(2) -0.2470(3)
C2B C 0.1386(4) 0.3466(2) -0.2983(3)
H4B H 0.2297 0.3368 -0.2803
C3B C 0.0532(4) 0.2935(2) -0.3756(3)
C4B C -0.0803(4) 0.3085(3) -0.4017(3)
H5B H -0.1395 0.2719 -0.4538
C5B C -0.1266(4) 0.3767(3) -0.3519(3)
H6B H -0.2176 0.3878 -0.3712
C6B C -0.0411(4) 0.4288(3) -0.2740(3)
H7B H -0.0735 0.4747 -0.2391
C7B C 0.1861(4) 0.4671(3) -0.1590(3)
C8B C 0.1002(4) 0.2163(3) -0.4283(3)
C9B C 0.3969(3) 0.4067(2) 0.2257(3)
C10B C 0.3342(3) 0.3441(2) 0.2703(3)
H8B H 0.2418 0.3430 0.2491
C11B C 0.4064(4) 0.2830(2) 0.3460(3)
C12B C 0.5421(4) 0.2851(3) 0.3771(3)
H9B H 0.5919 0.2431 0.4284
C13B C 0.6043(3) 0.3480(3) 0.3333(3)
H10B H 0.6968 0.3493 0.3550
C14B C 0.5328(3) 0.4093(3) 0.2578(3)
H11B H 0.5760 0.4527 0.2282
C15B C 0.3160(3) 0.4710(2) 0.1436(3)
C16B C 0.3399(4) 0.2174(2) 0.3961(3)
C17B C 0.4537(5) 0.3955(3) -0.4132(4)
H12B H 0.4949 0.3570 -0.4532
H13B H 0.5153 0.4460 -0.3791
C18B C 0.3297(6) 0.4385(4) -0.4841(4)
H14B H 0.3499 0.4776 -0.5348
H15B H 0.2894 0.4773 -0.4446
H16B H 0.2694 0.3886 -0.5189
loop_
_geom_bond_atom_site_label_1
_geom_bond_atom_site_label_2
_geom_bond_site_symmetry_1
_geom_bond_site_symmetry_2
Co1 O2 1_555 1_555
Na1 O1 1_555 1_555
Na2 O1 1_555 1_555
Na3 O2 1_555 1_555
O1 C7 1_555 1_555
O2 C7 1_555 1_555
O3 C8 1_555 1_555
O4 C8 1_555 1_555
O5 Na3 1_555 1_555
O6 Co1 1_555 1_555
O7 C16 1_555 1_555
O8 C16 1_555 1_555
O9 Na2 1_555 1_555
H1 O9 1_555 1_555
O10 Na2 1_555 1_555
H2 O10 1_555 1_555
H3 O10 1_555 1_555
C1 C2 1_555 1_555
C2 H4 1_555 1_555
C3 C2 1_555 1_555
C4 C3 1_555 1_555
H5 C4 1_555 1_555
C5 C4 1_555 1_555
H6 C5 1_555 1_555
C6 C1 1_555 1_555
H7 C6 1_555 1_555
C7 C1 1_555 1_555
C8 C3 1_555 1_555
C9 C10 1_555 1_555
C10 H8 1_555 1_555
C11 C10 1_555 1_555
C12 C11 1_555 1_555
H9 C12 1_555 1_555
C13 C12 1_555 1_555
H10 C13 1_555 1_555
C14 C9 1_555 1_555
H11 C14 1_555 1_555
C15 O5 1_555 1_555
C16 C11 1_555 1_555
C17 O9 1_555 1_555
H12 C17 1_555 1_555
H13 C17 1_555 1_555
C18 C17 1_555 1_555
H14 C18 1_555 1_555
H15 C18 1_555 1_555
H16 C18 1_555 1_555
Co1B O2B 1_555 1_555
Co1A O3 1_555 1_555
Co1A_2 O8 1_555 1_555
Co1C O3B 1_555 1_555
Co1C_2 O8B 1_555 1_555
Na1A O4 1_555 1_555
Na1A_2 O4B 1_555 1_555
Na2B O6 1_555 1_555
Na2C O4 1_555 1_555
Na2C_2 O7 1_555 1_555
Na2A O4B 1_555 1_555
Na2A_2 O7B 1_555 1_555
Na3A O8 1_555 1_555
Na3_2 O2B 1_555 1_555
Na3A_2 O8B 1_555 1_555
O1B Na1 1_555 1_555
O2B C7B 1_555 1_555
O2B_2 Na3 1_555 1_555
O3B C8B 1_555 1_555
O3A Co1 1_555 1_555
O3C Co1B 1_555 1_555
O4B C8B 1_555 1_555
O4A Na1 1_555 1_555
O4C Na1 1_555 1_555
O5B Na3_2 1_555 1_555
O5B_2 Na3 1_555 1_555
O6B Na1 1_555 1_555
O7B C16B 1_555 1_555
O7C Na2 1_555 1_555
O7A Na2B 1_555 1_555
O8B C16B 1_555 1_555
O8A Co1 1_555 1_555
O8C Na3 1_555 1_555
O8C_2 Co1B 1_555 1_555
O9B Na2B 1_555 1_555
H1B O9B 1_555 1_555
O10B Na2B 1_555 1_555
H2B O10B 1_555 1_555
H3B O10B 1_555 1_555
C1B C2B 1_555 1_555
C2B H4B 1_555 1_555
C3B C2B 1_555 1_555
C4B C3B 1_555 1_555
H5B C4B 1_555 1_555
C5B C4B 1_555 1_555
H6B C5B 1_555 1_555
C6B C1B 1_555 1_555
H7B C6B 1_555 1_555
C7B O1B 1_555 1_555
C8B C3B 1_555 1_555
C9B C10B 1_555 1_555
C10B H8B 1_555 1_555
C11B C10B 1_555 1_555
C12B C11B 1_555 1_555
H9B C12B 1_555 1_555
C13B C12B 1_555 1_555
H10B C13B 1_555 1_555
C14B C9B 1_555 1_555
H11B C14B 1_555 1_555
C15B O5B 1_555 1_555
C16B C11B 1_555 1_555
C17B O9B 1_555 1_555
H12B C17B 1_555 1_555
H13B C17B 1_555 1_555
C18B C17B 1_555 1_555
H14B C18B 1_555 1_555
H15B C18B 1_555 1_555
H16B C18B 1_555 1_555
Na1 O6 1_555 1_555
Na2 O4C 1_555 1_555
Na2 O6B 1_555 1_555
Na3 O8A 1_555 1_555
O6 C15 1_555 1_555
C5 C6 1_555 1_555
C9 C15 1_555 1_555
C13 C14 1_555 1_555
Co1B O6B 1_555 1_555
Na2B O1B 1_555 1_555
Na2B O4A 1_555 1_555
Na3_2 O8C_2 1_555 1_555
O6B C15B 1_555 1_555
C1B C7B 1_555 1_555
C5B C6B 1_555 1_555
C9B C15B 1_555 1_555
C13B C14B 1_555 1_555

#END
