
#######################################################################
#
#                 Cambridge Crystallographic Data Centre
#                                CCDC 
#
#######################################################################
#
# If this CIF has been generated from an entry in the Cambridge 
# Structural Database, then it will include bibliographic, chemical, 
# crystal, experimental, refinement or atomic coordinate data resulting 
# from the CCDC's data processing and validation procedures.
#
#######################################################################

data_LUNWEW
_symmetry_cell_setting           orthorhombic
_symmetry_space_group_name_H-M   'P 21 21 21'
_symmetry_Int_Tables_number      19
_space_group_name_Hall           'P 2ac 2ab'
loop_
_symmetry_equiv_pos_site_id
_symmetry_equiv_pos_as_xyz
1 x,y,z
2 1/2-x,-y,1/2+z
3 1/2+x,1/2-y,-z
4 -x,1/2+y,1/2-z
_cell_length_a                   10.6850(10)
_cell_length_b                   11.8210(10)
_cell_length_c                   36.625(4)
_cell_angle_alpha                90
_cell_angle_beta                 90
_cell_angle_gamma                90
_cell_volume                     4626.01
loop_
_atom_site_label
_atom_site_type_symbol
_atom_site_fract_x
_atom_site_fract_y
_atom_site_fract_z
Ag1 Ag 0.40318(7) 0.43974(7) 0.70989(2)
Ag2 Ag 0.10595(8) 0.67055(6) 0.85967(2)
Ag3 Ag 0.36050(8) -0.13801(8) 0.55654(3)
C1 C 0.2185(11) 0.2715(9) 0.7793(3)
N1 N 0.3424(8) 0.2267(7) 0.7733(2)
N2 N 0.4093(8) 0.2532(7) 0.7429(2)
C2 C 0.5018(10) 0.1819(9) 0.7441(3)
N3 N 0.4982(9) 0.1096(8) 0.7726(2)
C3 C 0.3986(11) 0.1399(8) 0.7906(3)
N4 N 0.2185(8) 0.3895(7) 0.7895(2)
N5 N 0.2435(9) 0.4702(7) 0.7638(2)
C4 C 0.2191(11) 0.5629(10) 0.7825(3)
N6 N 0.1809(8) 0.5463(7) 0.8177(2)
C5 C 0.1802(10) 0.4365(10) 0.8204(3)
C6 C 0.6448(11) 0.2781(9) 0.5782(3)
N7 N 0.6299(8) 0.3145(7) 0.6155(2)
N8 N 0.7224(7) 0.2977(7) 0.6408(2)
C7 C 0.6729(10) 0.3389(9) 0.6703(3)
N9 N 0.5563(8) 0.3817(7) 0.6669(2)
C8 C 0.5332(9) 0.3647(9) 0.6316(3)
N10 N 0.6120(8) 0.1579(7) 0.5747(2)
N11 N 0.6924(9) 0.0774(8) 0.5865(2)
C9 C 0.6315(11) -0.0162(9) 0.5797(3)
N12 N 0.5118(9) -0.0003(7) 0.5652(2)
C10 C 0.5090(11) 0.1099(9) 0.5626(3)
C11 C 0.1534(11) 0.5878(8) 0.6738(3)
N13 N 0.1273(7) 0.4688(6) 0.6695(2)
N14 N 0.2163(8) 0.3911(7) 0.6780(2)
C12 C 0.1589(10) 0.2954(9) 0.6707(3)
N15 N 0.0415(8) 0.3076(7) 0.6580(2)
C13 C 0.0237(9) 0.4169(10) 0.6583(3)
N16 N 0.2345(7) 0.6321(7) 0.6456(2)
N17 N 0.3562(8) 0.5967(7) 0.6434(3)
C14 C 0.3980(11) 0.6573(9) 0.6165(3)
N18 N 0.3173(8) 0.7275(8) 0.6015(3)
C15 C 0.2129(10) 0.7096(9) 0.6199(3)
C16 C -0.1266(12) 0.5087(10) 0.9896(3)
N19 N -0.1026(9) 0.5295(7) 0.9514(2)
N20 N -0.1897(9) 0.5022(9) 0.9258(3)
C17 C -0.1305(11) 0.5248(9) 0.8959(3)
N21 N -0.0134(8) 0.5684(8) 0.9003(2)
C18 C 0.0022(10) 0.5681(10) 0.9347(3)
N22 N -0.0942(10) 0.3955(8) 0.9987(2)
N23 N -0.1653(10) 0.3072(9) 0.9870(2)
C19 C -0.1079(13) 0.2177(10) 1.0006(3)
N24 N -0.0019(10) 0.2436(8) 1.0192(2)
C20 C 0.0030(11) 0.3545(10) 1.0175(3)
H1 H 0.17200 0.26356 0.75712
H2 H 0.17967 0.22914 0.79793
H3 H 0.56643 0.18059 0.72626
H4 H 0.37039 0.10568 0.81284
H5 H 0.22781 0.63665 0.77230
H6 H 0.15534 0.39678 0.84182
H7 H 0.59136 0.32146 0.56284
H8 H 0.72909 0.28836 0.57092
H9 H 0.71670 0.33924 0.69301
H10 H 0.45753 0.38589 0.61976
H11 H 0.66523 -0.08943 0.58444
H12 H 0.43975 0.15075 0.55300
H13 H 0.07584 0.62968 0.67371
H14 H 0.19193 0.60043 0.69733
H15 H 0.19692 0.22393 0.67425
H16 H -0.05244 0.45354 0.65154
H17 H 0.48181 0.64995 0.60812
H18 H 0.13518 0.74628 0.61582
H19 H -0.07955 0.56117 1.00449
H20 H -0.21422 0.52198 0.99496
H21 H -0.16610 0.51136 0.87260
H22 H 0.07590 0.59217 0.94702
H23 H -0.13802 0.14291 0.99760
H24 H 0.06669 0.40022 1.02809
N3C N 0.5018(9) 0.6096(8) 0.7274(2)
N8C N 0.2776(7) 0.7977(7) 0.8592(2)
N15C N -0.0415(8) 0.8076(7) 0.8420(2)
N18_2 N 0.3173(8) -0.2725(8) 0.6015(3)
N20C N 0.1897(9) 0.0022(9) 0.5742(3)
N23C N 0.1653(10) -0.1928(9) 0.5130(2)
N24A N 0.5019(10) -0.2436(8) 0.5192(2)
Ag1C Ag 0.59682(7) -0.06026(7) 0.79011(2)
Ag2C Ag 0.89405(8) 0.17055(6) 0.64033(2)
Ag2C_2 Ag -0.10595(8) 0.17055(6) 0.64033(2)
Ag3_2 Ag 0.36050(8) 0.86199(8) 0.55654(3)
Ag3C Ag -0.36050(8) 0.36199(8) 0.94346(3)
Ag3A Ag 0.13950(8) 0.13801(8) 1.05654(3)
S1 S 0.1432(3) 0.8506(3) 0.72438(9)
O1 O 0.2604(8) 0.8077(8) 0.7365(3)
O2 O 0.0396(10) 0.8067(9) 0.7447(4)
O3 O 0.1248(15) 0.8559(8) 0.6861(3)
C21 C 0.1512(12) 0.9926(11) 0.7364(3)
F1 F 0.0486(9) 1.0528(8) 0.7281(3)
F2 F 0.2453(9) 1.0483(7) 0.7227(2)
F3 F 0.1616(9) 1.0066(7) 0.7731(2)
S2 S 0.2841(3) 0.3597(2) 0.52198(7)
O4 O 0.2558(10) 0.4538(8) 0.4999(2)
O5 O 0.2612(10) 0.2502(8) 0.5065(2)
O6 O 0.4014(8) 0.3729(7) 0.5408(2)
C22 C 0.1748(13) 0.3671(15) 0.5585(4)
F4 F 0.2001(13) 0.2841(11) 0.5829(2)
F5 F 0.1800(10) 0.4646(9) 0.5760(3)
F6 F 0.0611(8) 0.3499(11) 0.5486(3)
S3 S 0.7893(3) 0.6612(3) 0.61868(9)
O7 O 0.693(2) 0.736(2) 0.6149(6)
O8 O 0.913(2) 0.7109(17) 0.6352(5)
O9 O 0.774(2) 0.5641(17) 0.6391(5)
C23 C 0.831(4) 0.610(4) 0.5759(11)
F7 F 0.931(2) 0.545(2) 0.5767(6)
F8 F 0.724(3) 0.557(3) 0.5666(8)
F9 F 0.836(2) 0.667(2) 0.5504(7)
N25 N 0.4212(13) 0.1173(10) 0.6496(3)
C25 C 0.4469(12) 0.0253(12) 0.6591(3)
C26 C 0.4723(15) -0.0860(12) 0.6714(4)
H25 H 0.49895 -0.08211 0.69636
H26 H 0.40018 -0.13217 0.67004
H27 H 0.53689 -0.11684 0.65704
O10? O 0.6943(17) 0.7479(15) 0.6252(5)
O11? O 0.848(2) 0.6198(17) 0.6460(5)
O12? O 0.710(3) 0.556(2) 0.5960(8)
C24? C 0.882(3) 0.706(2) 0.5787(7)
F10? F 0.9660(14) 0.6287(14) 0.5723(4)
F11? F 0.8320(16) 0.7525(16) 0.5558(5)
F12? F 0.934(2) 0.796(2) 0.5978(6)
loop_
_geom_bond_atom_site_label_1
_geom_bond_atom_site_label_2
_geom_bond_site_symmetry_1
_geom_bond_site_symmetry_2
Ag1 N2 1_555 1_555
Ag2 N6 1_555 1_555
Ag3 N12 1_555 1_555
C1 N1 1_555 1_555
N1 N2 1_555 1_555
N2 C2 1_555 1_555
C2 N3 1_555 1_555
N3 C3 1_555 1_555
C3 N1 1_555 1_555
N4 C1 1_555 1_555
N5 Ag1 1_555 1_555
C4 N5 1_555 1_555
N6 C4 1_555 1_555
C5 N4 1_555 1_555
C6 N7 1_555 1_555
N7 N8 1_555 1_555
N8 C7 1_555 1_555
C7 N9 1_555 1_555
N9 Ag1 1_555 1_555
C8 N7 1_555 1_555
N10 C6 1_555 1_555
N11 N10 1_555 1_555
C9 N11 1_555 1_555
N12 C9 1_555 1_555
C10 N10 1_555 1_555
C11 N13 1_555 1_555
N13 N14 1_555 1_555
N14 Ag1 1_555 1_555
C12 N14 1_555 1_555
N15 C12 1_555 1_555
C13 N13 1_555 1_555
N16 C11 1_555 1_555
N17 N16 1_555 1_555
C14 N17 1_555 1_555
N18 C14 1_555 1_555
C15 N16 1_555 1_555
C16 N19 1_555 1_555
N19 N20 1_555 1_555
N20 C17 1_555 1_555
C17 N21 1_555 1_555
N21 Ag2 1_555 1_555
C18 N19 1_555 1_555
N22 C16 1_555 1_555
N23 N22 1_555 1_555
C19 N23 1_555 1_555
N24 C19 1_555 1_555
C20 N22 1_555 1_555
S1 O1 1_555 1_555
O2 S1 1_555 1_555
O3 S1 1_555 1_555
C21 S1 1_555 1_555
F1 C21 1_555 1_555
F2 C21 1_555 1_555
F3 C21 1_555 1_555
S2 O4 1_555 1_555
O5 S2 1_555 1_555
O6 S2 1_555 1_555
C22 S2 1_555 1_555
F4 C22 1_555 1_555
F5 C22 1_555 1_555
F6 C22 1_555 1_555
S3 O7 1_555 1_555
O8 S3 1_555 1_555
O9 S3 1_555 1_555
C23 S3 1_555 1_555
F7 C23 1_555 1_555
F8 C23 1_555 1_555
F9 C23 1_555 1_555
N25 C25 1_555 1_555
C25 C26 1_555 1_555
C26 H25 1_555 1_555
H1 C1 1_555 1_555
H2 C1 1_555 1_555
H3 C2 1_555 1_555
H4 C3 1_555 1_555
H5 C4 1_555 1_555
H6 C5 1_555 1_555
H7 C6 1_555 1_555
H8 C6 1_555 1_555
H9 C7 1_555 1_555
H10 C8 1_555 1_555
H11 C9 1_555 1_555
H12 C10 1_555 1_555
H13 C11 1_555 1_555
H14 C11 1_555 1_555
H15 C12 1_555 1_555
H16 C13 1_555 1_555
H17 C14 1_555 1_555
H18 C15 1_555 1_555
H19 C16 1_555 1_555
H20 C16 1_555 1_555
H21 C17 1_555 1_555
H22 C18 1_555 1_555
H23 C19 1_555 1_555
H24 C20 1_555 1_555
H26 C26 1_555 1_555
H27 C26 1_555 1_555
N3C Ag1 1_555 1_555
N8C Ag2 1_555 1_555
N15C Ag2 1_555 1_555
N18_2 Ag3 1_555 1_555
N20C Ag3 1_555 1_555
N23C Ag3 1_555 1_555
N24A Ag3 1_555 1_555
Ag1C N3 1_555 1_555
Ag2C N8 1_555 1_555
Ag2C_2 N15 1_555 1_555
Ag3_2 N18 1_555 1_555
Ag3C N20 1_555 1_555
Ag3A N24 1_555 1_555
N4 N5 1_555 1_555
N6 C5 1_555 1_555
N9 C8 1_555 1_555
N12 C10 1_555 1_555
N15 C13 1_555 1_555
N18 C15 1_555 1_555
N21 C18 1_555 1_555
N23 Ag3C 1_555 1_555
N24 C20 1_555 1_555

#END
