
#######################################################################
#
#                 Cambridge Crystallographic Data Centre
#                                CCDC 
#
#######################################################################
#
# If this CIF has been generated from an entry in the Cambridge 
# Structural Database, then it will include bibliographic, chemical, 
# crystal, experimental, refinement or atomic coordinate data resulting 
# from the CCDC's data processing and validation procedures.
#
#######################################################################

data_LUPSAS
_symmetry_cell_setting           monoclinic
_symmetry_space_group_name_H-M   'P 21/c'
_symmetry_Int_Tables_number      14
_space_group_name_Hall           '-P 2ybc'
loop_
_symmetry_equiv_pos_site_id
_symmetry_equiv_pos_as_xyz
1 x,y,z
2 -x,1/2+y,1/2-z
3 -x,-y,-z
4 x,1/2-y,1/2+z
_cell_length_a                   24.736(7)
_cell_length_b                   21.701(7)
_cell_length_c                   25.337(7)
_cell_angle_alpha                90
_cell_angle_beta                 109.956(5)
_cell_angle_gamma                90
_cell_volume                     12784.1
loop_
_atom_site_label
_atom_site_type_symbol
_atom_site_fract_x
_atom_site_fract_y
_atom_site_fract_z
C1 C -0.18319(16) 0.40285(19) -0.06848(14)
C2 C -0.12732(17) 0.3867(2) -0.04752(15)
H1 H -0.1052 0.3897 -0.0706
C3 C -0.10132(17) 0.3658(2) 0.00695(16)
H2 H -0.0623 0.3564 0.0205
C4 C -0.13428(17) 0.3592(2) 0.04064(16)
C5 C -0.19134(17) 0.3747(2) 0.02104(15)
H3 H -0.2134 0.3712 0.0441
C6 C -0.21603(17) 0.3960(2) -0.03387(15)
H4 H -0.2550 0.4057 -0.0476
C7 C 0.05614(16) 0.4103(2) 0.18465(15)
C8 C 0.01048(16) 0.4475(2) 0.15812(16)
H5 H 0.0159 0.4899 0.1589
C9 C -0.04341(17) 0.4239(2) 0.13026(16)
H6 H -0.0738 0.4504 0.1126
C10 C -0.05237(17) 0.3615(2) 0.12853(15)
C11 C -0.00614(17) 0.3236(2) 0.15507(16)
H7 H -0.0116 0.2812 0.1539
C12 C 0.04777(17) 0.3471(2) 0.18325(15)
H8 H 0.0782 0.3208 0.2011
C13 C -0.17369(15) 0.18488(19) 0.15777(15)
C14 C -0.13902(16) 0.2286(2) 0.19406(16)
H9 H -0.1295 0.2233 0.2326
C15 C -0.11875(16) 0.2788(2) 0.17457(16)
H10 H -0.0969 0.3082 0.1995
C16 C -0.13088(16) 0.2858(2) 0.11708(16)
C17 C -0.16547(16) 0.2434(2) 0.08101(16)
H11 H -0.1743 0.2484 0.0425
C18 C -0.18745(16) 0.1933(2) 0.10089(15)
H12 H -0.2115 0.1655 0.0758
C19 C -0.20897(18) 0.4256(2) -0.12723(15)
C20 C -0.19521(15) 0.1294(2) 0.18066(16)
C21 C 0.11480(18) 0.4357(2) 0.21305(16)
C22 C -0.30697(16) 0.6258(2) -0.43358(15)
C23 C -0.30898(17) 0.6889(2) -0.44037(16)
H13 H -0.2900 0.7144 -0.4102
C24 C -0.33896(17) 0.7141(2) -0.49150(16)
H14 H -0.3394 0.7567 -0.4961
C25 C -0.36867(17) 0.6770(2) -0.53638(16)
C26 C -0.36571(17) 0.6150(2) -0.53007(16)
H15 H -0.3852 0.5898 -0.5603
C27 C -0.33405(16) 0.5887(2) -0.47923(15)
H16 H -0.3310 0.5461 -0.4758
C28 C -0.33271(17) 0.84152(19) -0.66476(14)
C29 C -0.30154(17) 0.7909(2) -0.64087(16)
H17 H -0.2645 0.7867 -0.6418
C30 C -0.32304(18) 0.7455(2) -0.61530(16)
H18 H -0.3005 0.7116 -0.5993
C31 C -0.37771(18) 0.7505(2) -0.61359(15)
C32 C -0.40976(18) 0.8014(2) -0.63728(16)
H19 H -0.4471 0.8049 -0.6369
C33 C -0.38750(18) 0.8484(2) -0.66218(16)
H20 H -0.4091 0.8834 -0.6767
C34 C -0.56558(16) 0.63205(18) -0.67812(15)
C35 C -0.55026(16) 0.64466(19) -0.62182(15)
H21 H -0.5764 0.6381 -0.6033
C36 C -0.49528(17) 0.6674(2) -0.59241(16)
H22 H -0.4845 0.6733 -0.5538
C37 C -0.45689(17) 0.6812(2) -0.61885(16)
C38 C -0.47401(17) 0.6699(2) -0.67602(16)
H23 H -0.4490 0.6791 -0.6952
C39 C -0.52748(17) 0.6455(2) -0.70518(16)
H24 H -0.5377 0.6381 -0.7435
C40 C -0.27516(16) 0.5960(2) -0.37697(17)
C41 C -0.30996(18) 0.8892(2) -0.69290(15)
C42 C -0.62316(17) 0.6028(2) -0.70827(17)
C43 C -0.48998(18) 0.5304(2) -0.44964(18)
H25 H -0.4836 0.5510 -0.4159
C44 C -0.44769(17) 0.4938(2) -0.45707(17)
C45 C -0.45729(17) 0.4638(2) -0.50663(18)
C46 C -0.38930(19) 0.4870(2) -0.40869(19)
N1 N -0.10777(13) 0.33755(17) 0.09723(12)
N2 N -0.40162(13) 0.70386(16) -0.58895(12)
O1 O -0.17643(12) 0.42507(14) -0.15500(10)
O2 O -0.26016(11) 0.44400(13) -0.14398(9)
O3 O 0.11829(10) 0.49436(14) 0.21548(11)
O4 O 0.15683(10) 0.40012(13) 0.23091(10)
O5 O -0.17347(10) 0.12058(12) 0.23252(9)
O6 O -0.23381(10) 0.09706(12) 0.14698(9)
O7 O -0.26860(11) 0.62950(13) -0.33382(10)
O8 O -0.25994(11) 0.54145(13) -0.37523(10)
O9 O -0.26866(12) 0.87593(12) -0.70933(10)
O10 O -0.33304(11) 0.94203(13) -0.69921(10)
O11 O -0.66333(11) 0.60873(12) -0.68936(10)
O12 O -0.62765(10) 0.57288(13) -0.75246(10)
O13 O -0.35365(12) 0.45132(15) -0.41810(11)
O14 O -0.38197(11) 0.51671(15) -0.36492(12)
O15 O -0.25705(8) 0.49675(11) -0.26382(8)
Zn1 Zn -0.185529(16) 0.45274(2) -0.230567(15)
Zn2 Zn -0.305120(16) 1.021064(19) -0.718710(15)
Zn3 Zn -0.239753(17) 0.58308(2) -0.264171(15)
Zn4 Zn -0.291139(16) 0.46188(2) -0.341244(15)
N3 N -0.4170(3) 0.4226(3) -0.5206(3)
O16 O -0.4167(4) 0.3679(4) -0.5111(4)
O17 O -0.3862(4) 0.4427(4) -0.5448(3)
C43B C -0.51002(18) 0.4696(2) -0.55036(18)
H25B H -0.5164 0.4490 -0.5841
C44B C -0.55231(17) 0.5062(2) -0.54293(17)
C45B C -0.54271(17) 0.5362(2) -0.49337(18)
C46B C -0.61070(19) 0.5130(2) -0.59131(19)
O13B O -0.64635(12) 0.54868(15) -0.58190(11)
O14B O -0.61803(11) 0.48329(15) -0.63508(12)
N3B N -0.5830(3) 0.5774(3) -0.4794(3)
O16B O -0.5833(4) 0.6321(4) -0.4889(4)
O17B O -0.6138(4) 0.5573(4) -0.4552(3)
C1B C -0.81681(16) 0.59715(19) -0.93152(14)
C2B C -0.87268(17) 0.6133(2) -0.95248(15)
H1B H -0.8948 0.6103 -0.9294
C3B C -0.89868(17) 0.6342(2) -1.00695(16)
H2B H -0.9377 0.6436 -1.0205
C4B C -0.86572(17) 0.6408(2) -1.04064(16)
C5B C -0.80866(17) 0.6253(2) -1.02104(15)
H3B H -0.7866 0.6288 -1.0441
C6B C -0.78397(17) 0.6040(2) -0.96613(15)
H4B H -0.7450 0.5943 -0.9524
C7B C -1.05614(16) 0.5897(2) -1.18465(15)
C8B C -1.01048(16) 0.5525(2) -1.15812(16)
H5B H -1.0159 0.5101 -1.1589
C9B C -0.95659(17) 0.5761(2) -1.13026(16)
H6B H -0.9262 0.5496 -1.1126
C10B C -0.94763(17) 0.6385(2) -1.12853(15)
C11B C -0.99386(17) 0.6764(2) -1.15507(16)
H7B H -0.9884 0.7188 -1.1539
C12B C -1.04777(17) 0.6529(2) -1.18325(15)
H8B H -1.0782 0.6792 -1.2011
C13B C -0.82631(15) 0.81512(19) -1.15777(15)
C14B C -0.86098(16) 0.7714(2) -1.19406(16)
H9B H -0.8705 0.7767 -1.2326
C15B C -0.88125(16) 0.7212(2) -1.17457(16)
H10B H -0.9031 0.6918 -1.1995
C16B C -0.86912(16) 0.7142(2) -1.11708(16)
C17B C -0.83453(16) 0.7566(2) -1.08101(16)
H11B H -0.8257 0.7516 -1.0425
C18B C -0.81255(16) 0.8067(2) -1.10089(15)
H12B H -0.7885 0.8345 -1.0758
C19B C -0.79103(18) 0.5744(2) -0.87277(15)
C20B C -0.80479(15) 0.8706(2) -1.18066(16)
C21B C -1.11480(18) 0.5643(2) -1.21305(16)
C22B C -0.69303(16) 0.3742(2) -0.56642(15)
C23B C -0.69102(17) 0.3111(2) -0.55963(16)
H13B H -0.7100 0.2856 -0.5898
C24B C -0.66104(17) 0.2859(2) -0.50850(16)
H14B H -0.6606 0.2433 -0.5039
C25B C -0.63133(17) 0.3230(2) -0.46362(16)
C26B C -0.63429(17) 0.3850(2) -0.46993(16)
H15B H -0.6148 0.4102 -0.4397
C27B C -0.66595(16) 0.4113(2) -0.52077(15)
H16B H -0.6690 0.4539 -0.5242
C28B C -0.66729(17) 0.15848(19) -0.33524(14)
C29B C -0.69846(17) 0.2091(2) -0.35913(16)
H17B H -0.7355 0.2133 -0.3582
C30B C -0.67696(18) 0.2545(2) -0.38470(16)
H18B H -0.6995 0.2884 -0.4007
C31B C -0.62229(18) 0.2495(2) -0.38641(15)
C32B C -0.59024(18) 0.1986(2) -0.36272(16)
H19B H -0.5529 0.1951 -0.3631
C33B C -0.61250(18) 0.1516(2) -0.33782(16)
H20B H -0.5909 0.1166 -0.3233
C34B C -0.43442(16) 0.36795(18) -0.32188(15)
C35B C -0.44974(16) 0.35534(19) -0.37818(15)
H21B H -0.4236 0.3619 -0.3967
C36B C -0.50472(17) 0.3326(2) -0.40759(16)
H22B H -0.5155 0.3267 -0.4462
C37B C -0.54311(17) 0.3188(2) -0.38115(16)
C38B C -0.52599(17) 0.3301(2) -0.32398(16)
H23B H -0.5510 0.3209 -0.3048
C39B C -0.47252(17) 0.3545(2) -0.29482(16)
H24B H -0.4623 0.3619 -0.2565
C40B C -0.72484(16) 0.4040(2) -0.62303(17)
C41B C -0.69004(18) 0.1108(2) -0.30710(15)
C42B C -0.37684(17) 0.3972(2) -0.29173(17)
N1B N -0.89223(13) 0.66245(17) -1.09723(12)
N2B N -0.59838(13) 0.29614(16) -0.41105(12)
O1B O -0.82357(12) 0.57493(14) -0.84500(10)
O2B O -0.73984(11) 0.55600(13) -0.85602(9)
O3B O -1.11829(10) 0.50564(14) -1.21548(11)
O4B O -1.15683(10) 0.59988(13) -1.23091(10)
O5B O -0.82653(10) 0.87942(12) -1.23252(9)
O6B O -0.76619(10) 0.90294(12) -1.14698(9)
O7B O -0.73140(11) 0.37050(13) -0.66618(10)
O8B O -0.74006(11) 0.45855(13) -0.62477(10)
O9B O -0.73134(12) 0.12407(12) -0.29067(10)
O10B O -0.66696(11) 0.05797(13) -0.30079(10)
O11B O -0.33667(11) 0.39127(12) -0.31064(10)
O12B O -0.37235(10) 0.42712(13) -0.24754(10)
O15B O -0.74295(8) 0.50325(11) -0.73618(8)
Zn1B Zn -0.814471(16) 0.54726(2) -0.769433(15)
Zn2B Zn -0.694880(16) -0.021064(19) -0.281290(15)
Zn3B Zn -0.760247(17) 0.41692(2) -0.735829(15)
Zn4B Zn -0.708861(16) 0.53812(2) -0.658756(15)
O2A O -0.73984(11) -0.05600(13) -0.35602(9)
O2C O -0.26016(11) 1.05600(13) -0.64398(9)
O3_2 O -0.88171(10) 0.49436(14) -0.78452(11)
O3B_2 O -0.11829(10) 0.50564(14) -0.21548(11)
O4_2 O -0.84317(10) 0.40012(13) -0.76909(10)
O4B_2 O -0.15683(10) 0.59988(13) -0.23091(10)
O5A O -0.82653(10) 0.62058(12) -0.73252(9)
O5C O -0.17347(10) 0.37942(12) -0.26748(9)
O6A O -0.76619(10) 0.59706(12) -0.64698(9)
O6C O -0.23381(10) 0.40294(12) -0.35302(9)
O9A O -0.73134(12) 0.37593(12) -0.79067(10)
O9C O -0.26866(12) 0.62407(12) -0.20933(10)
O12A O -0.37235(10) 1.07288(13) -0.74754(10)
O12C O -0.62765(10) -0.07288(13) -0.25246(10)
O15A O -0.74295(8) -0.00325(11) -0.23618(8)
O15C O -0.25705(8) 1.00325(11) -0.76382(8)
Zn1_2 Zn -1.185529(16) 0.45274(2) -1.230567(15)
Zn1A Zn -0.814471(16) 0.95274(2) -1.269433(15)
Zn1B_2 Zn 0.185529(16) 0.54726(2) 0.230567(15)
Zn1C Zn -0.185529(16) 0.04726(2) 0.269433(15)
Zn2A Zn -0.694880(16) 0.521064(19) -0.781290(15)
Zn2C Zn -0.305120(16) 0.478936(19) -0.218710(15)
Zn3_2 Zn -1.239753(17) 0.58308(2) -1.264171(15)
Zn3A Zn -0.760247(17) 0.08308(2) -0.235829(15)
Zn3B_2 Zn 0.239753(17) 0.41692(2) 0.264171(15)
Zn3C Zn -0.239753(17) 0.91692(2) -0.764171(15)
Zn4A Zn -0.708861(16) 0.96188(2) -1.158756(15)
Zn4C Zn -0.291139(16) 0.03812(2) 0.158756(15)
loop_
_geom_bond_atom_site_label_1
_geom_bond_atom_site_label_2
_geom_bond_site_symmetry_1
_geom_bond_site_symmetry_2
C1 C2 1_555 1_555
C2 H1 1_555 1_555
C3 C2 1_555 1_555
H2 C3 1_555 1_555
C4 C3 1_555 1_555
C5 C4 1_555 1_555
H3 C5 1_555 1_555
C6 C1 1_555 1_555
H4 C6 1_555 1_555
C7 C8 1_555 1_555
C8 H5 1_555 1_555
C9 C8 1_555 1_555
H6 C9 1_555 1_555
C10 C9 1_555 1_555
C11 C10 1_555 1_555
H7 C11 1_555 1_555
C12 C7 1_555 1_555
H8 C12 1_555 1_555
C13 C14 1_555 1_555
C14 H9 1_555 1_555
C15 C14 1_555 1_555
H10 C15 1_555 1_555
C16 C15 1_555 1_555
C17 C16 1_555 1_555
H11 C17 1_555 1_555
C18 C13 1_555 1_555
H12 C18 1_555 1_555
C19 C1 1_555 1_555
C20 C13 1_555 1_555
C21 C7 1_555 1_555
C22 C23 1_555 1_555
C23 H13 1_555 1_555
C24 C23 1_555 1_555
H14 C24 1_555 1_555
C25 C24 1_555 1_555
C26 C25 1_555 1_555
H15 C26 1_555 1_555
C27 C22 1_555 1_555
H16 C27 1_555 1_555
C28 C29 1_555 1_555
C29 H17 1_555 1_555
C30 C29 1_555 1_555
H18 C30 1_555 1_555
C31 C30 1_555 1_555
C32 C31 1_555 1_555
H19 C32 1_555 1_555
C33 C28 1_555 1_555
H20 C33 1_555 1_555
C34 C35 1_555 1_555
C35 H21 1_555 1_555
C36 C35 1_555 1_555
H22 C36 1_555 1_555
C37 C36 1_555 1_555
C38 C37 1_555 1_555
H23 C38 1_555 1_555
C39 C34 1_555 1_555
H24 C39 1_555 1_555
C40 C22 1_555 1_555
C41 C28 1_555 1_555
C42 C34 1_555 1_555
C43 H25 1_555 1_555
C44 C43 1_555 1_555
C45 C44 1_555 1_555
C46 C44 1_555 1_555
N1 C4 1_555 1_555
N2 C25 1_555 1_555
O1 C19 1_555 1_555
O2 C19 1_555 1_555
O3 C21 1_555 1_555
O4 C21 1_555 1_555
O5 C20 1_555 1_555
O6 C20 1_555 1_555
O7 C40 1_555 1_555
O8 C40 1_555 1_555
O9 C41 1_555 1_555
O10 C41 1_555 1_555
O11 C42 1_555 1_555
O12 C42 1_555 1_555
O13 C46 1_555 1_555
O14 C46 1_555 1_555
O15 Zn1 1_555 1_555
Zn1 O1 1_555 1_555
Zn2 O10 1_555 1_555
Zn3 O7 1_555 1_555
Zn4 O8 1_555 1_555
N3 C45 1_555 1_555
O16 N3 1_555 1_555
O17 N3 1_555 1_555
C43B C45 1_555 1_555
H25B C43B 1_555 1_555
C44B C43B 1_555 1_555
C45B C43 1_555 1_555
C46B C44B 1_555 1_555
O13B C46B 1_555 1_555
O14B C46B 1_555 1_555
N3B C45B 1_555 1_555
O16B N3B 1_555 1_555
O17B N3B 1_555 1_555
C1B C2B 1_555 1_555
C2B H1B 1_555 1_555
C3B C2B 1_555 1_555
H2B C3B 1_555 1_555
C4B C3B 1_555 1_555
C5B C4B 1_555 1_555
H3B C5B 1_555 1_555
C6B C1B 1_555 1_555
H4B C6B 1_555 1_555
C7B C8B 1_555 1_555
C8B H5B 1_555 1_555
C9B C8B 1_555 1_555
H6B C9B 1_555 1_555
C10B C9B 1_555 1_555
C11B C10B 1_555 1_555
H7B C11B 1_555 1_555
C12B C7B 1_555 1_555
H8B C12B 1_555 1_555
C13B C14B 1_555 1_555
C14B H9B 1_555 1_555
C15B C14B 1_555 1_555
H10B C15B 1_555 1_555
C16B C15B 1_555 1_555
C17B C16B 1_555 1_555
H11B C17B 1_555 1_555
C18B C13B 1_555 1_555
H12B C18B 1_555 1_555
C19B C1B 1_555 1_555
C20B C13B 1_555 1_555
C21B C7B 1_555 1_555
C22B C23B 1_555 1_555
C23B H13B 1_555 1_555
C24B C23B 1_555 1_555
H14B C24B 1_555 1_555
C25B C24B 1_555 1_555
C26B C25B 1_555 1_555
H15B C26B 1_555 1_555
C27B C22B 1_555 1_555
H16B C27B 1_555 1_555
C28B C29B 1_555 1_555
C29B H17B 1_555 1_555
C30B C29B 1_555 1_555
H18B C30B 1_555 1_555
C31B C30B 1_555 1_555
C32B C31B 1_555 1_555
H19B C32B 1_555 1_555
C33B C28B 1_555 1_555
H20B C33B 1_555 1_555
C34B C35B 1_555 1_555
C35B H21B 1_555 1_555
C36B C35B 1_555 1_555
H22B C36B 1_555 1_555
C37B C36B 1_555 1_555
C38B C37B 1_555 1_555
H23B C38B 1_555 1_555
C39B C34B 1_555 1_555
H24B C39B 1_555 1_555
C40B C22B 1_555 1_555
C41B C28B 1_555 1_555
C42B C34B 1_555 1_555
N1B C4B 1_555 1_555
N2B C25B 1_555 1_555
O1B C19B 1_555 1_555
O2B C19B 1_555 1_555
O3B C21B 1_555 1_555
O4B C21B 1_555 1_555
O5B C20B 1_555 1_555
O6B C20B 1_555 1_555
O7B C40B 1_555 1_555
O8B C40B 1_555 1_555
O9B C41B 1_555 1_555
O10B C41B 1_555 1_555
O11B Zn4 1_555 1_555
O12B C42B 1_555 1_555
O15B Zn1B 1_555 1_555
Zn1B O1B 1_555 1_555
Zn2B O10B 1_555 1_555
Zn3B O7B 1_555 1_555
Zn4B O11 1_555 1_555
O2A Zn2B 1_555 1_555
O2C Zn2 1_555 1_555
O3_2 Zn1B 1_555 1_555
O3B_2 Zn1 1_555 1_555
O4_2 Zn3B 1_555 1_555
O4B_2 Zn3 1_555 1_555
O5A Zn1B 1_555 1_555
O5C Zn1 1_555 1_555
O6A Zn4B 1_555 1_555
O6C Zn4 1_555 1_555
O9A Zn3B 1_555 1_555
O9C Zn3 1_555 1_555
O12A Zn2 1_555 1_555
O12C Zn2B 1_555 1_555
O15A Zn2B 1_555 1_555
O15C Zn2 1_555 1_555
Zn1_2 O3B 1_555 1_555
Zn1A O5B 1_555 1_555
Zn1B_2 O3 1_555 1_555
Zn1C O5 1_555 1_555
Zn2A O12 1_555 1_555
Zn2C O2 1_555 1_555
Zn3_2 O4B 1_555 1_555
Zn3A O9B 1_555 1_555
Zn3B_2 O4 1_555 1_555
Zn3C O9 1_555 1_555
Zn4A O6B 1_555 1_555
Zn4C O6 1_555 1_555
C5 C6 1_555 1_555
C10 N1 1_555 1_555
C11 C12 1_555 1_555
C16 N1 1_555 1_555
C17 C18 1_555 1_555
C26 C27 1_555 1_555
C31 N2 1_555 1_555
C32 C33 1_555 1_555
C37 N2 1_555 1_555
C38 C39 1_555 1_555
O13 Zn4 1_555 1_555
O14 Zn4 1_555 1_555
O15 Zn3 1_555 1_555
O15 Zn4 1_555 1_555
O15 Zn2C 1_555 1_555
C44B C45B 1_555 1_555
O13B Zn4B 1_555 1_555
O14B Zn4B 1_555 1_555
C5B C6B 1_555 1_555
C10B N1B 1_555 1_555
C11B C12B 1_555 1_555
C16B N1B 1_555 1_555
C17B C18B 1_555 1_555
C26B C27B 1_555 1_555
C31B N2B 1_555 1_555
C32B C33B 1_555 1_555
C37B N2B 1_555 1_555
C38B C39B 1_555 1_555
C42B O11B 1_555 1_555
O2B Zn2A 1_555 1_555
O8B Zn4B 1_555 1_555
O12B Zn2C 1_555 1_555
O15B Zn3B 1_555 1_555
O15B Zn4B 1_555 1_555
O15B Zn2A 1_555 1_555
O15A Zn3A 1_555 1_555
O15C Zn3C 1_555 1_555

#END
