
#######################################################################
#
#                 Cambridge Crystallographic Data Centre
#                                CCDC 
#
#######################################################################
#
# If this CIF has been generated from an entry in the Cambridge 
# Structural Database, then it will include bibliographic, chemical, 
# crystal, experimental, refinement or atomic coordinate data resulting 
# from the CCDC's data processing and validation procedures.
#
#######################################################################

data_LUSJAL
_symmetry_cell_setting           monoclinic
_symmetry_space_group_name_H-M   'C 2/c'
_symmetry_Int_Tables_number      15
_space_group_name_Hall           '-C 2yn'
loop_
_symmetry_equiv_pos_site_id
_symmetry_equiv_pos_as_xyz
1 x,y,z
2 -x,y,1/2-z
3 1/2+x,1/2+y,z
4 1/2-x,1/2+y,1/2-z
5 -x,-y,-z
6 x,-y,1/2+z
7 1/2-x,1/2-y,-z
8 1/2+x,1/2-y,1/2+z
_cell_length_a                   16.370(5)
_cell_length_b                   19.019(5)
_cell_length_c                   11.193(5)
_cell_angle_alpha                90
_cell_angle_beta                 119.543(5)
_cell_angle_gamma                90
_cell_volume                     3031.76
loop_
_atom_site_label
_atom_site_type_symbol
_atom_site_fract_x
_atom_site_fract_y
_atom_site_fract_z
C1 C 0.3327(2) -0.16793(15) -0.2242(3)
C2 C 0.3318(2) -0.09779(16) -0.1628(3)
C3 C 0.3995(3) -0.08042(17) -0.0308(4)
H1 H 0.4436 -0.1138 0.0241
C4 C 0.4025(2) -0.01361(17) 0.0208(4)
H2 H 0.4480 -0.0030 0.1104
C5 C 0.3385(2) 0.03747(15) -0.0592(3)
C6 C 0.2708(3) 0.01979(19) -0.1924(4)
H3 H 0.2278 0.0534 -0.2490
C7 C 0.2675(3) -0.04766(18) -0.2408(4)
H4 H 0.2202 -0.0593 -0.3287
C8 C 0.3460(2) 0.11073(15) -0.0038(3)
C9 C 0.4854(4) 0.3401(2) 0.0228(6)
H5 H 0.5058 0.2975 0.0059
C10 C 0.5127(4) 0.4023(2) -0.0088(7)
H6 H 0.5506 0.4012 -0.0491
C11 C 0.4854(2) 0.46615(17) 0.0176(4)
C12 C 0.4285(2) 0.46475(16) 0.0769(3)
H7 H 0.4086 0.5067 0.0970
C13 C 0.4011(2) 0.40159(16) 0.1062(3)
H8 H 0.3627 0.4010 0.1457
N1 N 0.42975(18) 0.34108(13) 0.0778(3)
O1 O 0.26046(15) -0.18599(11) -0.3338(2)
O2 O 0.40704(15) -0.20423(10) -0.1638(2)
O3 O 0.41417(15) 0.12190(11) 0.1116(2)
O4 O 0.28238(15) 0.15450(10) -0.0757(2)
O5 O 0.40316(15) 0.28029(11) 0.1085(2)
Mn1 Mn 0.5000 0.19953(3) 0.2500
Mn2 Mn 0.2500 0.2500 0.0000
C1D C 0.6673(2) 0.16793(15) 0.2242(3)
C2D C 0.6682(2) 0.09779(16) 0.1628(3)
C3D C 0.6005(3) 0.08042(17) 0.0308(4)
H1D H 0.5564 0.1138 -0.0241
C4D C 0.5975(2) 0.01361(17) -0.0208(4)
H2D H 0.5520 0.0030 -0.1104
C5D C 0.6615(2) -0.03747(15) 0.0592(3)
C6D C 0.7292(3) -0.01979(19) 0.1924(4)
H3D H 0.7722 -0.0534 0.2490
C7D C 0.7325(3) 0.04766(18) 0.2408(4)
H4D H 0.7798 0.0593 0.3287
C8D C 0.6540(2) -0.11073(15) 0.0038(3)
C9D C 0.5146(4) 0.6599(2) -0.0228(6)
H5D H 0.4942 0.7025 -0.0059
C10D C 0.4873(4) 0.5977(2) 0.0088(7)
H6D H 0.4494 0.5988 0.0491
C11D C 0.5146(2) 0.53385(17) -0.0176(4)
C12D C 0.5715(2) 0.53525(16) -0.0769(3)
H7D H 0.5914 0.4933 -0.0970
C13D C 0.5989(2) 0.59841(16) -0.1062(3)
H8D H 0.6373 0.5990 -0.1457
N1D N 0.57025(18) 0.65892(13) -0.0778(3)
O1D O 0.73954(15) 0.18599(11) 0.3338(2)
O1C O 0.23954(15) 0.31401(11) -0.1662(2)
O1E O 0.26046(15) 0.18599(11) 0.1662(2)
O2D O 0.59296(15) 0.20423(10) 0.1638(2)
O2E O 0.40704(15) 0.20423(10) 0.3362(2)
O3D O 0.58583(15) -0.12190(11) -0.1116(2)
O3A O 0.58583(15) 0.12190(11) 0.3884(2)
O4D O 0.71762(15) -0.15450(10) 0.0757(2)
O4F O 0.21762(15) 0.34550(10) 0.0757(2)
O5D O 0.59684(15) 0.71971(11) -0.1085(2)
O5A O 0.59684(15) 0.28029(11) 0.3915(2)
O5F O 0.09684(15) 0.21971(11) -0.1085(2)
Mn1D Mn 0.5000 -0.19953(3) -0.2500
Mn1D_2 Mn 0.5000 0.80047(3) -0.2500
Mn2C Mn 0.2500 -0.2500 -0.5000
Mn2B Mn 0.7500 0.7500 0.0000
Mn2A Mn 0.7500 0.2500 0.5000
Mn2B_2 Mn 0.7500 -0.2500 0.0000
loop_
_geom_bond_atom_site_label_1
_geom_bond_atom_site_label_2
_geom_bond_site_symmetry_1
_geom_bond_site_symmetry_2
C1 C2 1_555 1_555
C2 C3 1_555 1_555
C3 H1 1_555 1_555
C4 C3 1_555 1_555
H2 C4 1_555 1_555
C5 C4 1_555 1_555
C6 C5 1_555 1_555
H3 C6 1_555 1_555
C7 C2 1_555 1_555
H4 C7 1_555 1_555
C8 C5 1_555 1_555
C9 H5 1_555 1_555
C10 C9 1_555 1_555
H6 C10 1_555 1_555
C11 C10 1_555 1_555
C12 C11 1_555 1_555
H7 C12 1_555 1_555
C13 C12 1_555 1_555
H8 C13 1_555 1_555
N1 C9 1_555 1_555
O1 C1 1_555 1_555
O2 C1 1_555 1_555
O3 C8 1_555 1_555
O4 C8 1_555 1_555
O5 N1 1_555 1_555
Mn1 O3 1_555 1_555
Mn2 O4 1_555 1_555
C1D C2D 1_555 1_555
C2D C3D 1_555 1_555
C3D H1D 1_555 1_555
C4D C3D 1_555 1_555
H2D C4D 1_555 1_555
C5D C4D 1_555 1_555
C6D C5D 1_555 1_555
H3D C6D 1_555 1_555
C7D C2D 1_555 1_555
H4D C7D 1_555 1_555
C8D C5D 1_555 1_555
C9D H5D 1_555 1_555
C10D C9D 1_555 1_555
H6D C10D 1_555 1_555
C11D C11 1_555 1_555
C12D C11D 1_555 1_555
H7D C12D 1_555 1_555
C13D C12D 1_555 1_555
H8D C13D 1_555 1_555
N1D C9D 1_555 1_555
O1D C1D 1_555 1_555
O1C Mn2 1_555 1_555
O1E Mn2 1_555 1_555
O2D Mn1 1_555 1_555
O2E Mn1 1_555 1_555
O3D C8D 1_555 1_555
O3A Mn1 1_555 1_555
O4D C8D 1_555 1_555
O4F Mn2 1_555 1_555
O5D N1D 1_555 1_555
O5A Mn1 1_555 1_555
O5F Mn2 1_555 1_555
Mn1D O2 1_555 1_555
Mn1D_2 O5D 1_555 1_555
Mn2C O1 1_555 1_555
Mn2B O5D 1_555 1_555
Mn2A O1D 1_555 1_555
Mn2B_2 O4D 1_555 1_555
C6 C7 1_555 1_555
C13 N1 1_555 1_555
O5 Mn1 1_555 1_555
O5 Mn2 1_555 1_555
C1D O2D 1_555 1_555
C6D C7D 1_555 1_555
C10D C11D 1_555 1_555
C13D N1D 1_555 1_555
O3D Mn1D 1_555 1_555
O5A Mn2A 1_555 1_555

#END
