
#######################################################################
#
#                 Cambridge Crystallographic Data Centre
#                                CCDC 
#
#######################################################################
#
# If this CIF has been generated from an entry in the Cambridge 
# Structural Database, then it will include bibliographic, chemical, 
# crystal, experimental, refinement or atomic coordinate data resulting 
# from the CCDC's data processing and validation procedures.
#
#######################################################################

data_LUSJIT
_symmetry_cell_setting           monoclinic
_symmetry_space_group_name_H-M   'C 2/c'
_symmetry_Int_Tables_number      15
_space_group_name_Hall           '-C 2yn'
loop_
_symmetry_equiv_pos_site_id
_symmetry_equiv_pos_as_xyz
1 x,y,z
2 -x,y,1/2-z
3 1/2+x,1/2+y,z
4 1/2-x,1/2+y,1/2-z
5 -x,-y,-z
6 x,-y,1/2+z
7 1/2-x,1/2-y,-z
8 1/2+x,1/2-y,1/2+z
_cell_length_a                   19.0453(16)
_cell_length_b                   16.9279(15)
_cell_length_c                   14.3358(13)
_cell_angle_alpha                90
_cell_angle_beta                 130.8300(10)
_cell_angle_gamma                90
_cell_volume                     3497.11
loop_
_atom_site_label
_atom_site_type_symbol
_atom_site_fract_x
_atom_site_fract_y
_atom_site_fract_z
C1 C 0.0849(5) 0.1549(4) 0.4986(6)
C2 C 0.1468(5) 0.2252(4) 0.5630(6)
C3 C 0.1627(5) 0.2742(4) 0.5019(6)
H1 H 0.1311 0.2658 0.4188
C4 C 0.2248(5) 0.3353(4) 0.5624(6)
H2 H 0.2357 0.3672 0.5202
C5 C 0.2718(4) 0.3503(4) 0.6865(5)
C6 C 0.2539(6) 0.3021(5) 0.7452(7)
H3 H 0.2836 0.3117 0.8275
C7 C 0.3444(4) 0.4144(4) 0.7543(6)
C8 C 0.1930(6) 0.2399(5) 0.6855(7)
H4 H 0.1830 0.2075 0.7282
C9 C -0.1855(5) -0.0776(5) 0.0334(8)
H5 H -0.2057 -0.0256 0.0216
C10 C -0.2448(6) -0.1394(5) 0.0027(8)
H6 H -0.3045 -0.1280 -0.0286
C11 C -0.2185(5) -0.2172(4) 0.0169(6)
C12 C -0.1292(6) -0.2284(5) 0.0648(9)
H7 H -0.1069 -0.2797 0.0777
C13 C -0.0714(6) -0.1662(5) 0.0944(8)
H8 H -0.0116 -0.1762 0.1252
N1 N -0.0994(4) -0.0929(3) 0.0800(5)
O1 O 0.0434(3) 0.1467(3) 0.3851(4)
O2 O 0.0783(3) 0.1080(3) 0.5610(4)
O3 O -0.0408(3) -0.0336(3) 0.1133(4)
O4 O 0.3673(3) 0.4465(2) 0.6986(4)
O5 O 0.3767(3) 0.4313(3) 0.8610(4)
Mn1 Mn 0.0000 0.06145(7) 0.2500
Mn2 Mn 0.0000 0.0000 0.5000
C1A C -0.0849(5) 0.1549(4) 0.0014(6)
C2A C -0.1468(5) 0.2252(4) -0.0630(6)
C3A C -0.1627(5) 0.2742(4) -0.0019(6)
H1A H -0.1311 0.2658 0.0812
C4A C -0.2248(5) 0.3353(4) -0.0624(6)
H2A H -0.2357 0.3672 -0.0202
C5A C -0.2718(4) 0.3503(4) -0.1865(5)
C6A C -0.2539(6) 0.3021(5) -0.2452(7)
H3A H -0.2836 0.3117 -0.3275
C7A C -0.3444(4) 0.4144(4) -0.2543(6)
C8A C -0.1930(6) 0.2399(5) -0.1855(7)
H4A H -0.1830 0.2075 -0.2282
C9F C -0.3145(5) -0.4224(5) -0.0334(8)
H5F H -0.2943 -0.4744 -0.0216
C10F C -0.2552(6) -0.3606(5) -0.0027(8)
H6F H -0.1955 -0.3720 0.0286
C11F C -0.2815(5) -0.2828(4) -0.0169(6)
C12F C -0.3708(6) -0.2716(5) -0.0648(9)
H7F H -0.3931 -0.2203 -0.0777
C13F C -0.4286(6) -0.3338(5) -0.0944(8)
H8F H -0.4884 -0.3238 -0.1252
N1F N -0.4006(4) -0.4071(3) -0.0800(5)
O1A O -0.0434(3) 0.1467(3) 0.1149(4)
O2A O -0.0783(3) 0.1080(3) -0.0610(4)
O2D O -0.0783(3) -0.1080(3) 0.4390(4)
O3F O -0.4592(3) -0.4664(3) -0.1133(4)
O3A O 0.0408(3) -0.0336(3) 0.3867(4)
O3E O -0.0408(3) 0.0336(3) 0.6133(4)
O4A O -0.3673(3) 0.4465(2) -0.1986(4)
O4F O 0.1327(3) 0.0535(2) 0.3014(4)
O4G O -0.1327(3) 0.0535(2) 0.1986(4)
O5A O -0.3767(3) 0.4313(3) -0.3610(4)
O5C O 0.1233(3) -0.0687(3) 0.6390(4)
O5G O -0.1233(3) 0.0687(3) 0.3610(4)
Mn1F Mn 0.5000 0.43855(7) 0.7500
Mn1F_2 Mn -0.5000 -0.56145(7) -0.2500
Mn1F_3 Mn -0.5000 0.43855(7) -0.2500
Mn2A Mn 0.0000 0.0000 0.0000
Mn2C Mn 0.5000 0.5000 1.0000
Mn2C_2 Mn -0.5000 -0.5000 0.0000
Mn2B Mn -0.5000 0.5000 -0.5000
C14 C 0.0015(9) -0.4148(11) 0.3722(10)
H9 H -0.0354 -0.4142 0.2870
C15 C 0.0711(10) -0.4711(8) 0.4421(12)
H10 H 0.0808 -0.5082 0.4036
C16 C 0.1264(8) -0.4719(7) 0.5696(12)
H11 H 0.1729 -0.5096 0.6163
C17 C 0.1120(12) -0.4165(9) 0.6272(11)
C18 C 0.0424(14) -0.3602(8) 0.557(2)
H12 H 0.0328 -0.3232 0.5958
C19 C -0.0128(9) -0.3594(8) 0.430(2)
H13 H -0.0594 -0.3217 0.3831
C20 C 0.1620(14) -0.4099(18) 0.7572(14)
H14 H 0.1386 -0.3657 0.7717
H15 H 0.2267 -0.4022 0.8008
H16 H 0.1538 -0.4574 0.7858
loop_
_geom_bond_atom_site_label_1
_geom_bond_atom_site_label_2
_geom_bond_site_symmetry_1
_geom_bond_site_symmetry_2
C1 C2 1_555 1_555
C2 C3 1_555 1_555
C3 H1 1_555 1_555
C4 C3 1_555 1_555
H2 C4 1_555 1_555
C5 C4 1_555 1_555
C6 C5 1_555 1_555
H3 C6 1_555 1_555
C7 C5 1_555 1_555
C8 C2 1_555 1_555
H4 C8 1_555 1_555
C9 H5 1_555 1_555
C10 C9 1_555 1_555
H6 C10 1_555 1_555
C11 C10 1_555 1_555
C12 C11 1_555 1_555
H7 C12 1_555 1_555
C13 C12 1_555 1_555
H8 C13 1_555 1_555
C14 H9 1_555 1_555
C15 C14 1_555 1_555
H10 C15 1_555 1_555
C16 C15 1_555 1_555
H11 C16 1_555 1_555
C17 C16 1_555 1_555
C18 C17 1_555 1_555
H12 C18 1_555 1_555
C19 C14 1_555 1_555
H13 C19 1_555 1_555
C20 C17 1_555 1_555
H14 C20 1_555 1_555
H15 C20 1_555 1_555
H16 C20 1_555 1_555
N1 C9 1_555 1_555
O1 C1 1_555 1_555
O2 C1 1_555 1_555
O3 N1 1_555 1_555
O4 C7 1_555 1_555
O5 C7 1_555 1_555
Mn1 O1 1_555 1_555
Mn2 O2 1_555 1_555
C1A C2A 1_555 1_555
C2A C3A 1_555 1_555
C3A H1A 1_555 1_555
C4A C3A 1_555 1_555
H2A C4A 1_555 1_555
C5A C4A 1_555 1_555
C6A C5A 1_555 1_555
H3A C6A 1_555 1_555
C7A C5A 1_555 1_555
C8A C2A 1_555 1_555
H4A C8A 1_555 1_555
C9F H5F 1_555 1_555
C10F C9F 1_555 1_555
H6F C10F 1_555 1_555
C11F C11 1_555 1_555
C12F C11F 1_555 1_555
H7F C12F 1_555 1_555
C13F C12F 1_555 1_555
H8F C13F 1_555 1_555
N1F C9F 1_555 1_555
O1A Mn1 1_555 1_555
O2A C1A 1_555 1_555
O2D Mn2 1_555 1_555
O3F N1F 1_555 1_555
O3A Mn1 1_555 1_555
O3E Mn2 1_555 1_555
O4A C7A 1_555 1_555
O4F Mn1 1_555 1_555
O4G Mn1 1_555 1_555
O5A C7A 1_555 1_555
O5C Mn2 1_555 1_555
O5G Mn2 1_555 1_555
Mn1F O4 1_555 1_555
Mn1F_2 O3F 1_555 1_555
Mn1F_3 O4A 1_555 1_555
Mn2A O3 1_555 1_555
Mn2C O5 1_555 1_555
Mn2C_2 O3F 1_555 1_555
Mn2B O5A 1_555 1_555
C6 C8 1_555 1_555
C13 N1 1_555 1_555
C18 C19 1_555 1_555
O3 Mn1 1_555 1_555
Mn2 O3A 1_555 1_555
C1A O1A 1_555 1_555
C6A C8A 1_555 1_555
C10F C11F 1_555 1_555
C13F N1F 1_555 1_555
O2A Mn2A 1_555 1_555

#END
