
#######################################################################
#
#                 Cambridge Crystallographic Data Centre
#                                CCDC 
#
#######################################################################
#
# If this CIF has been generated from an entry in the Cambridge 
# Structural Database, then it will include bibliographic, chemical, 
# crystal, experimental, refinement or atomic coordinate data resulting 
# from the CCDC's data processing and validation procedures.
#
#######################################################################

data_LUSJEP
_symmetry_cell_setting           monoclinic
_symmetry_space_group_name_H-M   'C 2/c'
_symmetry_Int_Tables_number      15
_space_group_name_Hall           '-C 2yn'
loop_
_symmetry_equiv_pos_site_id
_symmetry_equiv_pos_as_xyz
1 x,y,z
2 -x,y,1/2-z
3 1/2+x,1/2+y,z
4 1/2-x,1/2+y,1/2-z
5 -x,-y,-z
6 x,-y,1/2+z
7 1/2-x,1/2-y,-z
8 1/2+x,1/2-y,1/2+z
_cell_length_a                   19.175(4)
_cell_length_b                   16.692(3)
_cell_length_c                   14.285(3)
_cell_angle_alpha                90
_cell_angle_beta                 130.087(2)
_cell_angle_gamma                90
_cell_volume                     3498.03
loop_
_atom_site_label
_atom_site_type_symbol
_atom_site_fract_x
_atom_site_fract_y
_atom_site_fract_z
C1 C 0.9172(3) -0.1570(3) 0.5032(5)
C2 C 0.8547(3) -0.2278(3) 0.4375(5)
C3 C 0.8129(5) -0.2440(4) 0.3173(6)
H1 H 0.8263 -0.2130 0.2765
C4 C 0.7509(5) -0.3065(4) 0.2566(6)
H2 H 0.7240 -0.3175 0.1758
C5 C 0.7287(3) -0.3522(3) 0.3131(4)
C6 C 0.7726(4) -0.3368(3) 0.4345(5)
H3 H 0.7596 -0.3681 0.4755
C7 C 0.8354(4) -0.2757(3) 0.4958(5)
H4 H 0.8650 -0.2669 0.5781
C8 C 0.6546(3) -0.4150(3) 0.2442(4)
C9 C 1.1824(5) -0.0773(4) 0.4644(8)
H5 H 1.2013 -0.0243 0.4756
C10 C 1.2426(5) -0.1379(4) 0.4955(8)
H6 H 1.3012 -0.1252 0.5263
C11 C 1.2178(4) -0.2167(3) 0.4821(5)
C12 C 1.1305(4) -0.2300(4) 0.4344(8)
H7 H 1.1096 -0.2824 0.4205
C13 C 1.0721(4) -0.1681(4) 0.4060(7)
H8 H 1.0138 -0.1794 0.3777
N1 N 1.0985(3) -0.0931(3) 0.4189(4)
O1 O 0.9240(2) -0.1094(2) 0.4405(3)
O2 O 0.9570(2) -0.1497(2) 0.6147(3)
O3 O 0.6219(2) -0.4311(2) 0.1373(3)
O4 O 0.6300(2) -0.44578(19) 0.2991(3)
O5 O 1.0398(2) -0.0340(2) 0.3862(3)
Mn1 Mn 1.0000 0.0000 0.5000
Mn2 Mn 1.0000 -0.06269(5) 0.7500
C1D C 1.0828(3) 0.1570(3) 0.4968(5)
C2D C 1.1453(3) 0.2278(3) 0.5625(5)
C3D C 1.1871(5) 0.2440(4) 0.6827(6)
H1D H 1.1737 0.2130 0.7235
C4D C 1.2491(5) 0.3065(4) 0.7434(6)
H2D H 1.2760 0.3175 0.8242
C5D C 1.2713(3) 0.3522(3) 0.6869(4)
C6D C 1.2274(4) 0.3368(3) 0.5655(5)
H3D H 1.2404 0.3681 0.5245
C7D C 1.1646(4) 0.2757(3) 0.5042(5)
H4D H 1.1350 0.2669 0.4219
C8D C 1.3454(3) 0.4150(3) 0.7558(4)
C9F C 1.3176(5) -0.4227(4) 0.5356(8)
H5F H 1.2987 -0.4757 0.5244
C10F C 1.2574(5) -0.3621(4) 0.5045(8)
H6F H 1.1988 -0.3748 0.4737
C11F C 1.2822(4) -0.2833(3) 0.5179(5)
C12F C 1.3695(4) -0.2700(4) 0.5656(8)
H7F H 1.3904 -0.2176 0.5795
C13F C 1.4279(4) -0.3319(4) 0.5940(7)
H8F H 1.4862 -0.3206 0.6223
N1F N 1.4015(3) -0.4069(3) 0.5811(4)
O1D O 1.0760(2) 0.1094(2) 0.5595(3)
O2D O 1.0430(2) 0.1497(2) 0.3853(3)
O2A O 1.0430(2) -0.1497(2) 0.8853(3)
O3D O 1.3781(2) 0.4311(2) 0.8627(3)
O3C O 0.8781(2) 0.0689(2) 0.3627(3)
O3G O 1.1219(2) -0.0689(2) 0.6373(3)
O4D O 1.3700(2) 0.44578(19) 0.7009(3)
O4F O 0.8700(2) -0.05422(19) 0.7009(3)
O4G O 1.1300(2) -0.05422(19) 0.7991(3)
O5F O 1.4602(2) -0.4660(2) 0.6138(3)
O5D O 0.9602(2) 0.0340(2) 0.6138(3)
O5E O 1.0398(2) 0.0340(2) 0.8862(3)
Mn1C Mn 0.5000 -0.5000 0.0000
Mn1B Mn 1.5000 -0.5000 0.5000
Mn1C_2 Mn 1.5000 0.5000 1.0000
Mn2F Mn 0.5000 -0.43731(5) 0.2500
Mn2D Mn 1.0000 0.06269(5) 0.2500
Mn2B Mn 1.5000 -0.56269(5) 0.7500
Mn2B_2 Mn 1.5000 0.43731(5) 0.7500
C14 C 1.0534(10) -0.4283(9) 0.4799(10)
H9 H 1.0246 -0.4462 0.4009
C15 C 1.0122(7) -0.3704(8) 0.4998(12)
H10 H 0.9557 -0.3495 0.4341
C16 C 1.0552(10) -0.3437(6) 0.6179(15)
H11 H 1.0276 -0.3049 0.6312
C17 C 1.1395(10) -0.3749(8) 0.7160(10)
H12 H 1.1684 -0.3570 0.7950
C18 C 1.1808(7) -0.4328(8) 0.6961(12)
H13 H 1.2373 -0.4537 0.7618
C19 C 1.1378(10) -0.4595(6) 0.5781(15)
H14 H 1.1654 -0.4983 0.5648
loop_
_geom_bond_atom_site_label_1
_geom_bond_atom_site_label_2
_geom_bond_site_symmetry_1
_geom_bond_site_symmetry_2
C1 C2 1_555 1_555
C2 C3 1_555 1_555
C3 H1 1_555 1_555
C4 C3 1_555 1_555
H2 C4 1_555 1_555
C5 C4 1_555 1_555
C6 C5 1_555 1_555
H3 C6 1_555 1_555
C7 C2 1_555 1_555
H4 C7 1_555 1_555
C8 C5 1_555 1_555
C9 H5 1_555 1_555
C10 C9 1_555 1_555
H6 C10 1_555 1_555
C11 C10 1_555 1_555
C12 C11 1_555 1_555
H7 C12 1_555 1_555
C13 C12 1_555 1_555
H8 C13 1_555 1_555
C14 H9 1_555 1_555
C15 C14 1_555 1_555
H10 C15 1_555 1_555
C16 C15 1_555 1_555
H11 C16 1_555 1_555
C17 C16 1_555 1_555
H12 C17 1_555 1_555
C18 C17 1_555 1_555
H13 C18 1_555 1_555
C19 C14 1_555 1_555
H14 C19 1_555 1_555
N1 C9 1_555 1_555
O1 C1 1_555 1_555
O2 C1 1_555 1_555
O3 C8 1_555 1_555
O4 C8 1_555 1_555
O5 N1 1_555 1_555
Mn1 O1 1_555 1_555
Mn2 O2 1_555 1_555
C1D C2D 1_555 1_555
C2D C3D 1_555 1_555
C3D H1D 1_555 1_555
C4D C3D 1_555 1_555
H2D C4D 1_555 1_555
C5D C4D 1_555 1_555
C6D C5D 1_555 1_555
H3D C6D 1_555 1_555
C7D C2D 1_555 1_555
H4D C7D 1_555 1_555
C8D C5D 1_555 1_555
C9F H5F 1_555 1_555
C10F C9F 1_555 1_555
H6F C10F 1_555 1_555
C11F C11 1_555 1_555
C12F C11F 1_555 1_555
H7F C12F 1_555 1_555
C13F C12F 1_555 1_555
H8F C13F 1_555 1_555
N1F C9F 1_555 1_555
O1D Mn1 1_555 1_555
O2D C1D 1_555 1_555
O2A Mn2 1_555 1_555
O3D C8D 1_555 1_555
O3C Mn1 1_555 1_555
O3G Mn1 1_555 1_555
O4D C8D 1_555 1_555
O4F Mn2 1_555 1_555
O4G Mn2 1_555 1_555
O5F N1F 1_555 1_555
O5D Mn1 1_555 1_555
O5E Mn2 1_555 1_555
Mn1C O3 1_555 1_555
Mn1B O5F 1_555 1_555
Mn1C_2 O3D 1_555 1_555
Mn2F O4 1_555 1_555
Mn2D O5 1_555 1_555
Mn2B O5F 1_555 1_555
Mn2B_2 O4D 1_555 1_555
C6 C7 1_555 1_555
C13 N1 1_555 1_555
C18 C19 1_555 1_555
O5 Mn1 1_555 1_555
Mn2 O5D 1_555 1_555
C1D O1D 1_555 1_555
C6D C7D 1_555 1_555
C10F C11F 1_555 1_555
C13F N1F 1_555 1_555
O2D Mn2D 1_555 1_555

#END
