
#######################################################################
#
#                 Cambridge Crystallographic Data Centre
#                                CCDC 
#
#######################################################################
#
# If this CIF has been generated from an entry in the Cambridge 
# Structural Database, then it will include bibliographic, chemical, 
# crystal, experimental, refinement or atomic coordinate data resulting 
# from the CCDC's data processing and validation procedures.
#
#######################################################################

data_LUSVUR
_symmetry_cell_setting           triclinic
_symmetry_space_group_name_H-M   'P -1'
_symmetry_Int_Tables_number      2
_space_group_name_Hall           '-P 1'
loop_
_symmetry_equiv_pos_site_id
_symmetry_equiv_pos_as_xyz
1 x,y,z
2 -x,-y,-z
_cell_length_a                   10.504(3)
_cell_length_b                   10.523(3)
_cell_length_c                   15.784(5)
_cell_angle_alpha                80.233(6)
_cell_angle_beta                 80.818(6)
_cell_angle_gamma                88.595(7)
_cell_volume                     1697.34
loop_
_atom_site_label
_atom_site_type_symbol
_atom_site_fract_x
_atom_site_fract_y
_atom_site_fract_z
C1 C 0.5920(3) 0.2964(3) -0.56170(18)
C2 C 0.6436(3) 0.1803(3) -0.59775(19)
C3 C 0.6523(4) 0.0636(3) -0.5433(2)
H1 H 0.6213 0.0563 -0.4841
C4 C 0.7065(4) -0.0422(4) -0.5764(3)
H2 H 0.7116 -0.1207 -0.5397
C5 C 0.7530(4) -0.0306(4) -0.6638(3)
H3 H 0.7922 -0.1010 -0.6858
C6 C 0.7422(4) 0.0834(4) -0.7191(2)
H4 H 0.7720 0.0896 -0.7784
C7 C 0.6869(3) 0.1887(3) -0.6862(2)
H5 H 0.6786 0.2658 -0.7237
C8 C 0.7166(3) 0.5444(3) -0.4479(2)
C9 C 0.8356(3) 0.5766(3) -0.4156(2)
C10 C 0.8448(4) 0.5383(5) -0.3287(3)
H6 H 0.7784 0.4908 -0.2918
C11 C 0.9527(6) 0.5704(6) -0.2962(4)
H7 H 0.9582 0.5457 -0.2375
C12 C 1.0508(5) 0.6387(6) -0.3511(5)
H8 H 1.1234 0.6599 -0.3295
C13 C 1.0435(5) 0.6766(5) -0.4384(4)
H9 H 1.1111 0.7221 -0.4754
C14 C 0.9345(4) 0.6461(4) -0.4704(3)
H10 H 0.9281 0.6726 -0.5288
C15 C -0.1132(3) -0.0422(3) -0.12930(19)
C16 C -0.1766(3) -0.0729(3) -0.2012(2)
C17 C -0.1248(4) -0.0312(4) -0.2872(2)
H11 H -0.0500 0.0184 -0.3007
C18 C -0.1833(5) -0.0628(5) -0.3535(3)
H12 H -0.1475 -0.0345 -0.4113
C19 C -0.2932(5) -0.1350(5) -0.3344(3)
H13 H -0.3324 -0.1557 -0.3791
C20 C -0.3463(4) -0.1774(4) -0.2495(3)
H14 H -0.4214 -0.2267 -0.2367
C21 C -0.2887(4) -0.1470(4) -0.1830(2)
H15 H -0.3249 -0.1762 -0.1254
C22 C -0.1317(3) 0.2120(3) 0.01214(19)
C23 C -0.2054(3) 0.3332(3) 0.0221(2)
C24 C -0.1537(4) 0.4512(4) -0.0178(3)
H16 H -0.0735 0.4556 -0.0531
C25 C -0.2201(5) 0.5628(4) -0.0056(4)
H17 H -0.1842 0.6423 -0.0324
C26 C -0.3373(5) 0.5579(5) 0.0453(4)
H18 H -0.3814 0.6339 0.0529
C27 C -0.3912(5) 0.4420(5) 0.0854(4)
H19 H -0.4719 0.4387 0.1200
C28 C -0.3248(4) 0.3297(4) 0.0740(3)
H20 H -0.3608 0.2507 0.1017
C29 C 0.2524(3) 0.3454(3) -0.27534(19)
H21 H 0.2133 0.4110 -0.3094
C30 C 0.1803(3) 0.2769(3) -0.20307(18)
H22 H 0.0927 0.2944 -0.1905
C31 C 0.3602(3) 0.1645(3) -0.16871(18)
C32 C 0.4332(3) 0.2312(3) -0.24568(19)
C33 C 0.4231(4) 0.0703(4) -0.1059(2)
H23 H 0.3617 0.0421 -0.0545
H24 H 0.4947 0.1111 -0.0903
H25 H 0.4531 -0.0027 -0.1325
C34 C 0.5727(3) 0.2011(4) -0.2711(2)
H26 H 0.6029 0.2461 -0.3287
H27 H 0.5828 0.1100 -0.2700
H28 H 0.6217 0.2281 -0.2309
N1 N 0.3777(2) 0.3210(2) -0.29857(15)
N2 N 0.2332(2) 0.1846(2) -0.14983(15)
O1 O 0.5392(2) 0.2803(2) -0.48276(13)
O2 O 0.6073(2) 0.4029(2) -0.61276(13)
O3 O 0.6349(2) 0.4726(2) -0.39543(14)
O4 O 0.7046(2) 0.5938(2) -0.52582(14)
O5 O -0.0115(2) 0.0265(2) -0.14813(13)
O6 O -0.1657(2) -0.0892(2) -0.05258(13)
O7 O -0.0252(2) 0.2221(2) -0.03907(14)
O8 O -0.1807(2) 0.1079(2) 0.05629(14)
Rh1 Rh 0.46334(2) 0.43520(2) -0.430490(13)
Rh2 Rh 0.08296(2) 0.06117(2) -0.050650(13)
O2A O 0.3927(2) 0.5971(2) -0.38724(13)
O4A O 0.2954(2) 0.4062(2) -0.47418(14)
O6A O 0.1657(2) 0.0892(2) 0.05258(13)
O8A O 0.1807(2) -0.1079(2) -0.05629(14)
Rh1A Rh 0.53666(2) 0.56480(2) -0.569510(13)
Rh2A Rh -0.08296(2) -0.06117(2) 0.050650(13)
loop_
_geom_bond_atom_site_label_1
_geom_bond_atom_site_label_2
_geom_bond_site_symmetry_1
_geom_bond_site_symmetry_2
C1 C2 1_555 1_555
C2 C3 1_555 1_555
C3 H1 1_555 1_555
C4 C3 1_555 1_555
H2 C4 1_555 1_555
C5 C4 1_555 1_555
H3 C5 1_555 1_555
C6 C5 1_555 1_555
H4 C6 1_555 1_555
C7 C2 1_555 1_555
H5 C7 1_555 1_555
C8 C9 1_555 1_555
C9 C10 1_555 1_555
C10 H6 1_555 1_555
C11 C10 1_555 1_555
H7 C11 1_555 1_555
C12 C11 1_555 1_555
H8 C12 1_555 1_555
C13 C12 1_555 1_555
H9 C13 1_555 1_555
C14 C9 1_555 1_555
H10 C14 1_555 1_555
C15 C16 1_555 1_555
C16 C17 1_555 1_555
C17 H11 1_555 1_555
C18 C17 1_555 1_555
H12 C18 1_555 1_555
C19 C18 1_555 1_555
H13 C19 1_555 1_555
C20 C19 1_555 1_555
H14 C20 1_555 1_555
C21 C16 1_555 1_555
H15 C21 1_555 1_555
C22 C23 1_555 1_555
C23 C24 1_555 1_555
C24 H16 1_555 1_555
C25 C24 1_555 1_555
H17 C25 1_555 1_555
C26 C25 1_555 1_555
H18 C26 1_555 1_555
C27 C26 1_555 1_555
H19 C27 1_555 1_555
C28 C23 1_555 1_555
H20 C28 1_555 1_555
C29 H21 1_555 1_555
C30 C29 1_555 1_555
H22 C30 1_555 1_555
C31 C32 1_555 1_555
C32 C34 1_555 1_555
C33 C31 1_555 1_555
H23 C33 1_555 1_555
H24 C33 1_555 1_555
H25 C33 1_555 1_555
C34 H26 1_555 1_555
H27 C34 1_555 1_555
H28 C34 1_555 1_555
N1 C29 1_555 1_555
N2 C30 1_555 1_555
O1 C1 1_555 1_555
O2 C1 1_555 1_555
O3 C8 1_555 1_555
O4 C8 1_555 1_555
O5 C15 1_555 1_555
O6 C15 1_555 1_555
O7 C22 1_555 1_555
O8 C22 1_555 1_555
Rh1 N1 1_555 1_555
Rh2 N2 1_555 1_555
O2A Rh1 1_555 1_555
O4A Rh1 1_555 1_555
O6A Rh2 1_555 1_555
O8A Rh2 1_555 1_555
Rh1A O2 1_555 1_555
Rh2A O6 1_555 1_555
C6 C7 1_555 1_555
C13 C14 1_555 1_555
C20 C21 1_555 1_555
C27 C28 1_555 1_555
C31 N2 1_555 1_555
C32 N1 1_555 1_555
O1 Rh1 1_555 1_555
O3 Rh1 1_555 1_555
O4 Rh1A 1_555 1_555
O5 Rh2 1_555 1_555
O7 Rh2 1_555 1_555
O8 Rh2A 1_555 1_555
Rh1 Rh1A 1_555 1_555
Rh2 Rh2A 1_555 1_555

#END
