
#######################################################################
#
#                 Cambridge Crystallographic Data Centre
#                                CCDC 
#
#######################################################################
#
# If this CIF has been generated from an entry in the Cambridge 
# Structural Database, then it will include bibliographic, chemical, 
# crystal, experimental, refinement or atomic coordinate data resulting 
# from the CCDC's data processing and validation procedures.
#
#######################################################################

data_LUSWIG
_symmetry_cell_setting           triclinic
_symmetry_space_group_name_H-M   'P -1'
_symmetry_Int_Tables_number      2
_space_group_name_Hall           '-P 1'
loop_
_symmetry_equiv_pos_site_id
_symmetry_equiv_pos_as_xyz
1 x,y,z
2 -x,-y,-z
_cell_length_a                   10.453(3)
_cell_length_b                   10.896(4)
_cell_length_c                   15.659(5)
_cell_angle_alpha                98.748(7)
_cell_angle_beta                 99.360(7)
_cell_angle_gamma                90.288(7)
_cell_volume                     1738.47
loop_
_atom_site_label
_atom_site_type_symbol
_atom_site_fract_x
_atom_site_fract_y
_atom_site_fract_z
C1 C 1.208(2) 0.9026(19) 0.4414(15)
C2 C 1.320(2) 0.8483(19) 0.4089(15)
C3 C 1.4381(19) 0.8477(18) 0.4625(16)
H1 H 1.4490 0.8888 0.5214
C4 C 1.539(2) 0.7888(19) 0.4317(16)
H2 H 1.6176 0.7856 0.4710
C5 C 1.532(2) 0.7346(19) 0.3478(15)
H3 H 1.6053 0.6945 0.3284
C6 C 1.417(2) 0.7387(19) 0.2901(16)
H4 H 1.4094 0.7001 0.2308
C7 C 1.312(2) 0.7991(19) 0.3195(16)
H5 H 1.2347 0.8073 0.2795
C8 C 0.951(2) 0.791(2) 0.5544(16)
C9 C 0.924(2) 0.679(2) 0.5870(17)
C10 C 0.945(2) 0.669(2) 0.6770(18)
H6 H 0.9789 0.7387 0.7185
C11 C 0.919(3) 0.562(2) 0.706(2)
H7 H 0.9370 0.5565 0.7666
C12 C 0.866(3) 0.461(3) 0.645(2)
H8 H 0.8479 0.3860 0.6651
C13 C 0.840(3) 0.468(2) 0.5607(19)
H9 H 0.8049 0.3977 0.5202
C14 C 0.864(2) 0.575(2) 0.5319(19)
H10 H 0.8380 0.5801 0.4715
C15 C 0.551(2) 0.6218(19) -0.1219(16)
C16 C 0.584(2) 0.6912(19) -0.1903(16)
C17 C 0.565(2) 0.638(2) -0.2790(16)
H11 H 0.5273 0.5569 -0.2957
C18 C 0.597(2) 0.700(2) -0.3421(18)
H12 H 0.5799 0.6645 -0.4021
C19 C 0.657(2) 0.817(2) -0.3166(18)
H13 H 0.6819 0.8610 -0.3591
C20 C 0.679(2) 0.868(2) -0.2297(17)
H14 H 0.7177 0.9485 -0.2133
C21 C 0.647(2) 0.807(2) -0.1668(17)
H15 H 0.6683 0.8430 -0.1069
C22 C 0.280(2) 0.607(2) 0.0117(16)
C23 C 0.153(2) 0.665(2) 0.0173(17)
C24 C 0.040(2) 0.617(2) -0.0382(18)
H16 H 0.0431 0.5448 -0.0805
C25 C -0.077(3) 0.675(2) -0.0313(19)
H17 H -0.1507 0.6498 -0.0749
C26 C -0.089(3) 0.763(2) 0.0333(19)
H18 H -0.1710 0.7962 0.0393
C27 C 0.023(3) 0.808(2) 0.0946(19)
H19 H 0.0185 0.8731 0.1418
C28 C 0.141(3) 0.753(2) 0.0826(18)
H20 H 0.2163 0.7808 0.1239
C29 C 0.843(2) 0.758(2) 0.2756(17)
H21 H 0.9178 0.7257 0.3064
C30 C 0.769(2) 0.680(2) 0.2075(15)
H22 H 0.7887 0.5946 0.1964
C31 C 0.644(2) 0.8469(18) 0.1783(15)
C32 C 0.714(2) 0.9214(19) 0.2505(15)
C33 C 0.533(2) 0.899(2) 0.1225(16)
H23 H 0.5070 0.8405 0.0681
H24 H 0.5600 0.9786 0.1087
H25 H 0.4596 0.9105 0.1543
C34 C 0.682(2) 1.0524(18) 0.2775(16)
H26 H 0.6023 1.0547 0.3029
H27 H 0.6694 1.0953 0.2263
H28 H 0.7533 1.0937 0.3211
N1 N 0.8158(18) 0.8742(16) 0.3005(13)
N2 N 0.6693(18) 0.7254(16) 0.1565(13)
O1 O 1.2185(13) 0.9620(12) 0.5190(10)
O2 O 1.0967(13) 0.8913(11) 0.3883(10)
O3 O 1.0242(14) 0.8729(12) 0.6077(10)
O4 O 0.9001(14) 0.8025(12) 0.4758(10)
O5 O 0.4809(13) 0.5215(12) -0.1475(10)
O6 O 0.5833(13) 0.6723(12) -0.0439(10)
O7 O 0.2778(13) 0.5105(12) -0.0464(10)
O8 O 0.3784(13) 0.6582(12) 0.0598(10)
Rh1 Rh 0.93451(17) 0.96199(15) 0.43043(13)
Rh2 Rh 0.55480(17) 0.58032(17) 0.05499(13)
O1A O 0.7815(13) 1.0380(12) 0.4810(10)
O3A O 0.9758(14) 1.1271(12) 0.3923(10)
O5A O 0.5191(13) 0.4785(12) 0.1475(10)
O7A O 0.7222(13) 0.4895(12) 0.0464(10)
Rh1A Rh 1.06549(17) 1.03801(15) 0.56957(13)
Rh2A Rh 0.44520(17) 0.41968(17) -0.05499(13)
C35 C 0.849(3) 0.086(4) 0.081(3)
O9 O 0.750(3) 0.059(2) 0.038(2)
O10 O 0.950(3) 0.106(2) 0.124(2)
C36 C 0.751(3) 0.370(2) 0.2572(15)
O11 O 0.755(2) 0.3087(17) 0.1914(14)
O12 O 0.742(2) 0.4310(17) 0.3234(14)
loop_
_geom_bond_atom_site_label_1
_geom_bond_atom_site_label_2
_geom_bond_site_symmetry_1
_geom_bond_site_symmetry_2
C1 C2 1_555 1_555
C2 C3 1_555 1_555
C3 H1 1_555 1_555
C4 C3 1_555 1_555
H2 C4 1_555 1_555
C5 C4 1_555 1_555
H3 C5 1_555 1_555
C6 C5 1_555 1_555
H4 C6 1_555 1_555
C7 C2 1_555 1_555
H5 C7 1_555 1_555
C8 C9 1_555 1_555
C9 C10 1_555 1_555
C10 H6 1_555 1_555
C11 C10 1_555 1_555
H7 C11 1_555 1_555
C12 C11 1_555 1_555
H8 C12 1_555 1_555
C13 C12 1_555 1_555
H9 C13 1_555 1_555
C14 C9 1_555 1_555
H10 C14 1_555 1_555
C15 C16 1_555 1_555
C16 C17 1_555 1_555
C17 H11 1_555 1_555
C18 C17 1_555 1_555
H12 C18 1_555 1_555
C19 C18 1_555 1_555
H13 C19 1_555 1_555
C20 C19 1_555 1_555
H14 C20 1_555 1_555
C21 C16 1_555 1_555
H15 C21 1_555 1_555
C22 C23 1_555 1_555
C23 C24 1_555 1_555
C24 H16 1_555 1_555
C25 C24 1_555 1_555
H17 C25 1_555 1_555
C26 C25 1_555 1_555
H18 C26 1_555 1_555
C27 C26 1_555 1_555
H19 C27 1_555 1_555
C28 C23 1_555 1_555
H20 C28 1_555 1_555
C29 H21 1_555 1_555
C30 C29 1_555 1_555
H22 C30 1_555 1_555
C31 C32 1_555 1_555
C32 C34 1_555 1_555
C33 C31 1_555 1_555
H23 C33 1_555 1_555
H24 C33 1_555 1_555
H25 C33 1_555 1_555
C34 H26 1_555 1_555
H27 C34 1_555 1_555
H28 C34 1_555 1_555
C35 O9 1_555 1_555
C36 O11 1_555 1_555
N1 C29 1_555 1_555
N2 C30 1_555 1_555
O1 C1 1_555 1_555
O2 C1 1_555 1_555
O3 C8 1_555 1_555
O4 C8 1_555 1_555
O5 C15 1_555 1_555
O6 C15 1_555 1_555
O7 C22 1_555 1_555
O8 C22 1_555 1_555
O10 C35 1_555 1_555
O12 C36 1_555 1_555
Rh1 N1 1_555 1_555
Rh2 N2 1_555 1_555
O1A Rh1 1_555 1_555
O3A Rh1 1_555 1_555
O5A Rh2 1_555 1_555
O7A Rh2 1_555 1_555
Rh1A O1 1_555 1_555
Rh2A O5 1_555 1_555
C6 C7 1_555 1_555
C13 C14 1_555 1_555
C20 C21 1_555 1_555
C27 C28 1_555 1_555
C31 N2 1_555 1_555
C32 N1 1_555 1_555
O2 Rh1 1_555 1_555
O3 Rh1A 1_555 1_555
O4 Rh1 1_555 1_555
O6 Rh2 1_555 1_555
O7 Rh2A 1_555 1_555
O8 Rh2 1_555 1_555
Rh1 Rh1A 1_555 1_555
Rh2 Rh2A 1_555 1_555

#END
