
#######################################################################
#
#                 Cambridge Crystallographic Data Centre
#                                CCDC 
#
#######################################################################
#
# If this CIF has been generated from an entry in the Cambridge 
# Structural Database, then it will include bibliographic, chemical, 
# crystal, experimental, refinement or atomic coordinate data resulting 
# from the CCDC's data processing and validation procedures.
#
#######################################################################

data_LUSZIJ
_symmetry_cell_setting           monoclinic
_symmetry_space_group_name_H-M   'P 21/n'
_symmetry_Int_Tables_number      14
_space_group_name_Hall           '-P 2yn'
loop_
_symmetry_equiv_pos_site_id
_symmetry_equiv_pos_as_xyz
1 x,y,z
2 1/2-x,1/2+y,1/2-z
3 -x,-y,-z
4 1/2+x,1/2-y,1/2+z
_cell_length_a                   7.306(3)
_cell_length_b                   18.111(8)
_cell_length_c                   10.205(4)
_cell_angle_alpha                90
_cell_angle_beta                 94.248(7)
_cell_angle_gamma                90
_cell_volume                     1346.61
loop_
_atom_site_label
_atom_site_type_symbol
_atom_site_fract_x
_atom_site_fract_y
_atom_site_fract_z
Cu1 Cu 0.13545(9) 0.09472(3) 0.78410(6)
Cu2 Cu -0.03951(10) 0.06842(3) 1.07021(6)
S1 S 0.12379(19) 0.43494(7) 1.30957(12)
O1 O 0.0560(6) 0.16789(19) 1.0856(3)
O2 O 0.1306(5) 0.03442(17) 0.9417(3)
O3 O 0.3440(6) 0.5140(2) 0.8382(4)
O4 O 0.1227(6) 0.18641(19) 0.8756(3)
O5 O 0.1417(9) 0.5131(3) 1.2996(5)
O6 O 0.3212(7) 0.4108(2) 0.7171(4)
O7 O 0.2743(7) 0.4016(3) 1.3889(5)
O8 O -0.0489(6) 0.4087(3) 1.3527(4)
C1 C 0.1414(7) 0.3958(3) 1.1516(5)
C2 C 0.2339(8) 0.4050(3) 0.9310(5)
C3 C 0.2004(8) 0.3303(3) 0.9153(5)
H1 H 0.2211 0.3079 0.8357
C4 C 0.1365(8) 0.2881(2) 1.0157(5)
C5 C 0.1015(8) 0.2076(3) 0.9912(5)
C6 C 0.1068(7) 0.3209(3) 1.1346(5)
H2 H 0.0641 0.2930 1.2025
C7 C 0.2048(7) 0.4390(3) 1.0510(5)
H3 H 0.2271 0.4891 1.0634
C8 C 0.3058(8) 0.4471(3) 0.8200(5)
O9 O 0.1204(7) 0.1564(2) 0.6239(4)
Cu1B Cu -0.13545(9) -0.09472(3) 1.21590(6)
Cu1A Cu 0.36455(9) -0.40528(3) 0.71590(6)
Cu1A_2 Cu 0.36455(9) 0.59472(3) 0.71590(6)
Cu1C Cu -0.36455(9) -0.59472(3) 1.28410(6)
Cu1C_2 Cu -0.36455(9) 0.40528(3) 1.28410(6)
Cu2B Cu 0.03951(10) -0.06842(3) 0.92979(6)
Cu2A Cu -0.46049(10) -0.43158(3) 0.42979(6)
Cu2A_2 Cu -0.46049(10) -0.43158(3) 1.42979(6)
Cu2C Cu 0.46049(10) 0.43158(3) 0.57021(6)
Cu2C_2 Cu 0.46049(10) 0.43158(3) 1.57021(6)
S1B S -0.12379(19) -0.43494(7) 0.69043(12)
O1B O -0.0560(6) -0.16789(19) 0.9144(3)
O2B O -0.1306(5) -0.03442(17) 1.0583(3)
O3B O -0.3440(6) -0.5140(2) 1.1618(4)
O3A O 0.1560(6) 0.0140(2) 0.6618(4)
O3C O -0.1560(6) -0.0140(2) 1.3382(4)
O4B O -0.1227(6) -0.18641(19) 1.1244(3)
O5B O -0.1417(9) -0.5131(3) 0.7004(5)
O6B O -0.3212(7) -0.4108(2) 1.2829(4)
O6A O 0.1788(7) -0.0892(2) 0.7829(4)
O6C O -0.1788(7) 0.0892(2) 1.2171(4)
O7B O -0.2743(7) -0.4016(3) 0.6111(5)
O7A O 0.2257(7) -0.0984(3) 1.1111(5)
O7C O -0.2257(7) 0.0984(3) 0.8889(5)
O8B O 0.0489(6) -0.4087(3) 0.6473(4)
O8A O -0.4511(6) -0.0913(3) 1.1473(4)
O8C O 0.4511(6) 0.0913(3) 0.8527(4)
C1B C -0.1414(7) -0.3958(3) 0.8484(5)
C2B C -0.2339(8) -0.4050(3) 1.0690(5)
C3B C -0.2004(8) -0.3303(3) 1.0847(5)
H1B H -0.2211 -0.3079 1.1643
C4B C -0.1365(8) -0.2881(2) 0.9843(5)
C5B C -0.1015(8) -0.2076(3) 1.0088(5)
C6B C -0.1068(7) -0.3209(3) 0.8654(5)
H2B H -0.0641 -0.2930 0.7975
C7B C -0.2048(7) -0.4390(3) 0.9490(5)
H3B H -0.2271 -0.4891 0.9366
C8B C -0.3058(8) -0.4471(3) 1.1800(5)
O9B O -0.1204(7) -0.1564(2) 1.3761(4)
O10 O 0.0412(12) 0.3008(4) 0.5859(7)
O11 O 0.2159(17) 0.1356(8) 0.3690(11)
loop_
_geom_bond_atom_site_label_1
_geom_bond_atom_site_label_2
_geom_bond_site_symmetry_1
_geom_bond_site_symmetry_2
Cu1 O2 1_555 1_555
Cu2 O1 1_555 1_555
S1 O5 1_555 1_555
O1 C5 1_555 1_555
O2 Cu2 1_555 1_555
O3 C8 1_555 1_555
O4 Cu1 1_555 1_555
O6 C8 1_555 1_555
O7 S1 1_555 1_555
O8 S1 1_555 1_555
C1 S1 1_555 1_555
C2 C3 1_555 1_555
C3 H1 1_555 1_555
C4 C3 1_555 1_555
C5 O4 1_555 1_555
C6 C1 1_555 1_555
H2 C6 1_555 1_555
C7 C1 1_555 1_555
H3 C7 1_555 1_555
C8 C2 1_555 1_555
O9 Cu1 1_555 1_555
Cu1B O2B 1_555 1_555
Cu1A O8B 1_555 1_555
Cu1A_2 O3 1_555 1_555
Cu1C O3B 1_555 1_555
Cu1C_2 O8 1_555 1_555
Cu2B O2 1_555 1_555
Cu2A O7B 1_555 1_555
Cu2A_2 O6B 1_555 1_555
Cu2C O6 1_555 1_555
Cu2C_2 O7 1_555 1_555
S1B O5B 1_555 1_555
O1B Cu2B 1_555 1_555
O2B Cu2 1_555 1_555
O3B C8B 1_555 1_555
O3A Cu1 1_555 1_555
O3C Cu1B 1_555 1_555
O4B Cu1B 1_555 1_555
O6B C8B 1_555 1_555
O6A Cu2B 1_555 1_555
O6C Cu2 1_555 1_555
O7B S1B 1_555 1_555
O7A Cu2B 1_555 1_555
O7C Cu2 1_555 1_555
O8B S1B 1_555 1_555
O8A Cu1B 1_555 1_555
O8C Cu1 1_555 1_555
C1B S1B 1_555 1_555
C2B C3B 1_555 1_555
C3B H1B 1_555 1_555
C4B C3B 1_555 1_555
C5B O1B 1_555 1_555
C6B C1B 1_555 1_555
H2B C6B 1_555 1_555
C7B C1B 1_555 1_555
H3B C7B 1_555 1_555
C8B C2B 1_555 1_555
O9B Cu1B 1_555 1_555
C2 C7 1_555 1_555
C4 C5 1_555 1_555
C4 C6 1_555 1_555
Cu2B O2B 1_555 1_555
O4B C5B 1_555 1_555
C2B C7B 1_555 1_555
C4B C5B 1_555 1_555
C4B C6B 1_555 1_555

#END
