
#######################################################################
#
#                 Cambridge Crystallographic Data Centre
#                                CCDC 
#
#######################################################################
#
# If this CIF has been generated from an entry in the Cambridge 
# Structural Database, then it will include bibliographic, chemical, 
# crystal, experimental, refinement or atomic coordinate data resulting 
# from the CCDC's data processing and validation procedures.
#
#######################################################################

data_LUTBEI
_symmetry_cell_setting           monoclinic
_symmetry_space_group_name_H-M   'P 21/n'
_symmetry_Int_Tables_number      14
_space_group_name_Hall           '-P 2yn'
loop_
_symmetry_equiv_pos_site_id
_symmetry_equiv_pos_as_xyz
1 x,y,z
2 1/2-x,1/2+y,1/2-z
3 -x,-y,-z
4 1/2+x,1/2-y,1/2+z
_cell_length_a                   7.301(7)
_cell_length_b                   18.048(16)
_cell_length_c                   10.210(9)
_cell_angle_alpha                90
_cell_angle_beta                 94.334(14)
_cell_angle_gamma                90
_cell_volume                     1341.51
loop_
_atom_site_label
_atom_site_type_symbol
_atom_site_fract_x
_atom_site_fract_y
_atom_site_fract_z
Cu1 Cu 0.13496(13) 0.09466(4) 0.78407(8)
Cu2 Cu -0.04000(13) 0.06841(4) 1.06999(8)
S1 S 0.1233(3) 0.43481(9) 1.30961(19)
O1 O 0.0566(9) 0.1678(2) 1.0849(5)
O2 O 0.1288(6) 0.0348(2) 0.9433(4)
O3 O 0.3440(9) 0.5138(3) 0.8373(6)
O4 O 0.1223(9) 0.1862(2) 0.8757(5)
O5 O 0.1386(13) 0.5129(3) 1.2995(7)
O6 O 0.3198(10) 0.4106(3) 0.7172(6)
O7 O 0.2736(10) 0.4015(3) 1.3879(7)
O8 O -0.0478(9) 0.4082(4) 1.3524(7)
C1 C 0.1437(11) 0.3964(3) 1.1513(7)
C2 C 0.2317(11) 0.4051(3) 0.9299(7)
C3 C 0.1994(10) 0.3304(3) 0.9149(7)
H1 H 0.2215 0.3078 0.8357
C4 C 0.1354(11) 0.2881(3) 1.0134(8)
C5 C 0.1014(11) 0.2070(3) 0.9884(7)
C6 C 0.1068(11) 0.3205(3) 1.1335(8)
H2 H 0.0640 0.2923 1.2012
C7 C 0.2047(11) 0.4390(3) 1.0519(7)
H3 H 0.2278 0.4893 1.0646
C8 C 0.3057(11) 0.4471(3) 0.8192(8)
O9 O 0.1208(10) 0.1563(3) 0.6237(6)
Cu1B Cu -0.13496(13) -0.09466(4) 1.21593(8)
Cu1A Cu 0.36504(13) -0.40534(4) 0.71593(8)
Cu1A_2 Cu 0.36504(13) 0.59466(4) 0.71593(8)
Cu1C Cu -0.36504(13) -0.59466(4) 1.28407(8)
Cu1C_2 Cu -0.36504(13) 0.40534(4) 1.28407(8)
Cu2B Cu 0.04000(13) -0.06841(4) 0.93001(8)
Cu2A Cu -0.46000(13) -0.43159(4) 0.43001(8)
Cu2A_2 Cu -0.46000(13) -0.43159(4) 1.43001(8)
Cu2C Cu 0.46000(13) 0.43159(4) 0.56999(8)
Cu2C_2 Cu 0.46000(13) 0.43159(4) 1.56999(8)
S1B S -0.1233(3) -0.43481(9) 0.69039(19)
O1B O -0.0566(9) -0.1678(2) 0.9151(5)
O2B O -0.1288(6) -0.0348(2) 1.0567(4)
O3B O -0.3440(9) -0.5138(3) 1.1627(6)
O3A O 0.1560(9) 0.0138(3) 0.6627(6)
O3C O -0.1560(9) -0.0138(3) 1.3373(6)
O4B O -0.1223(9) -0.1862(2) 1.1243(5)
O5B O -0.1386(13) -0.5129(3) 0.7005(7)
O6B O -0.3198(10) -0.4106(3) 1.2828(6)
O6A O 0.1802(10) -0.0894(3) 0.7828(6)
O6C O -0.1802(10) 0.0894(3) 1.2172(6)
O7B O -0.2736(10) -0.4015(3) 0.6121(7)
O7A O 0.2264(10) -0.0985(3) 1.1121(7)
O7C O -0.2264(10) 0.0985(3) 0.8879(7)
O8B O 0.0478(9) -0.4082(4) 0.6476(7)
O8A O -0.4522(9) -0.0918(4) 1.1476(7)
O8C O 0.4522(9) 0.0918(4) 0.8524(7)
C1B C -0.1437(11) -0.3964(3) 0.8487(7)
C2B C -0.2317(11) -0.4051(3) 1.0701(7)
C3B C -0.1994(10) -0.3304(3) 1.0851(7)
H1B H -0.2215 -0.3078 1.1643
C4B C -0.1354(11) -0.2881(3) 0.9866(8)
C5B C -0.1014(11) -0.2070(3) 1.0116(7)
C6B C -0.1068(11) -0.3205(3) 0.8665(8)
H2B H -0.0640 -0.2923 0.7988
C7B C -0.2047(11) -0.4390(3) 0.9481(7)
H3B H -0.2278 -0.4893 0.9354
C8B C -0.3057(11) -0.4471(3) 1.1808(8)
O9B O -0.1208(10) -0.1563(3) 1.3763(6)
O10 O 0.0371(16) 0.3013(5) 0.5867(10)
O11 O 0.223(2) 0.1359(10) 0.3687(13)
loop_
_geom_bond_atom_site_label_1
_geom_bond_atom_site_label_2
_geom_bond_site_symmetry_1
_geom_bond_site_symmetry_2
Cu1 O2 1_555 1_555
Cu2 O1 1_555 1_555
S1 O5 1_555 1_555
O1 C5 1_555 1_555
O2 Cu2 1_555 1_555
O3 C8 1_555 1_555
O4 Cu1 1_555 1_555
O6 C8 1_555 1_555
O7 S1 1_555 1_555
O8 S1 1_555 1_555
C1 S1 1_555 1_555
C2 C3 1_555 1_555
C3 H1 1_555 1_555
C4 C3 1_555 1_555
C5 O4 1_555 1_555
C6 C1 1_555 1_555
H2 C6 1_555 1_555
C7 C1 1_555 1_555
H3 C7 1_555 1_555
C8 C2 1_555 1_555
O9 Cu1 1_555 1_555
Cu1B O2B 1_555 1_555
Cu1A O8B 1_555 1_555
Cu1A_2 O3 1_555 1_555
Cu1C O3B 1_555 1_555
Cu1C_2 O8 1_555 1_555
Cu2B O2 1_555 1_555
Cu2A O7B 1_555 1_555
Cu2A_2 O6B 1_555 1_555
Cu2C O6 1_555 1_555
Cu2C_2 O7 1_555 1_555
S1B O5B 1_555 1_555
O1B Cu2B 1_555 1_555
O2B Cu2 1_555 1_555
O3B C8B 1_555 1_555
O3A Cu1 1_555 1_555
O3C Cu1B 1_555 1_555
O4B Cu1B 1_555 1_555
O6B C8B 1_555 1_555
O6A Cu2B 1_555 1_555
O6C Cu2 1_555 1_555
O7B S1B 1_555 1_555
O7A Cu2B 1_555 1_555
O7C Cu2 1_555 1_555
O8B S1B 1_555 1_555
O8A Cu1B 1_555 1_555
O8C Cu1 1_555 1_555
C1B S1B 1_555 1_555
C2B C3B 1_555 1_555
C3B H1B 1_555 1_555
C4B C3B 1_555 1_555
C5B O1B 1_555 1_555
C6B C1B 1_555 1_555
H2B C6B 1_555 1_555
C7B C1B 1_555 1_555
H3B C7B 1_555 1_555
C8B C2B 1_555 1_555
O9B Cu1B 1_555 1_555
C2 C7 1_555 1_555
C4 C5 1_555 1_555
C4 C6 1_555 1_555
Cu2B O2B 1_555 1_555
O4B C5B 1_555 1_555
C2B C7B 1_555 1_555
C4B C5B 1_555 1_555
C4B C6B 1_555 1_555

#END
