
#######################################################################
#
#                 Cambridge Crystallographic Data Centre
#                                CCDC 
#
#######################################################################
#
# If this CIF has been generated from an entry in the Cambridge 
# Structural Database, then it will include bibliographic, chemical, 
# crystal, experimental, refinement or atomic coordinate data resulting 
# from the CCDC's data processing and validation procedures.
#
#######################################################################

data_LUTCAF
_symmetry_cell_setting           monoclinic
_symmetry_space_group_name_H-M   'P 21/n'
_symmetry_Int_Tables_number      14
_space_group_name_Hall           '-P 2yn'
loop_
_symmetry_equiv_pos_site_id
_symmetry_equiv_pos_as_xyz
1 x,y,z
2 1/2-x,1/2+y,1/2-z
3 -x,-y,-z
4 1/2+x,1/2-y,1/2+z
_cell_length_a                   7.271(4)
_cell_length_b                   18.061(10)
_cell_length_c                   10.212(6)
_cell_angle_alpha                90
_cell_angle_beta                 94.234(10)
_cell_angle_gamma                90
_cell_volume                     1337.4
loop_
_atom_site_label
_atom_site_type_symbol
_atom_site_fract_x
_atom_site_fract_y
_atom_site_fract_z
Cu1 Cu 0.13685(11) 0.09445(4) 0.78546(6)
Cu2 Cu -0.03655(11) 0.06840(4) 1.07083(6)
S1 S 0.1278(2) 0.43516(8) 1.30811(13)
O1 O 0.0571(7) 0.1680(2) 1.0844(4)
O2 O 0.1311(5) 0.0342(2) 0.9427(4)
O3 O 0.3450(7) 0.5142(2) 0.8375(4)
O4 O 0.1261(7) 0.1861(2) 0.8771(4)
O5 O 0.1473(11) 0.5132(3) 1.2980(5)
O6 O 0.3280(8) 0.4106(2) 0.7178(4)
O7 O 0.2756(8) 0.4015(3) 1.3867(5)
O8 O -0.0450(7) 0.4105(4) 1.3509(5)
C1 C 0.1453(8) 0.3959(3) 1.1505(5)
C2 C 0.2346(8) 0.4051(3) 0.9307(5)
C3 C 0.2017(9) 0.3305(3) 0.9151(5)
H1 H 0.2224 0.3084 0.8352
C4 C 0.1388(9) 0.2874(3) 1.0143(5)
C5 C 0.1035(9) 0.2078(3) 0.9917(5)
C6 C 0.1097(8) 0.3211(3) 1.1335(5)
H2 H 0.0665 0.2935 1.2016
C7 C 0.2057(9) 0.4383(3) 1.0504(5)
H3 H 0.2271 0.4887 1.0625
C8 C 0.3085(9) 0.4468(3) 0.8209(5)
O9 O 0.1224(8) 0.1563(3) 0.6252(4)
Cu1B Cu -0.13685(11) -0.09445(4) 1.21454(6)
Cu1A Cu 0.36315(11) -0.40555(4) 0.71454(6)
Cu1A_2 Cu 0.36315(11) 0.59445(4) 0.71454(6)
Cu1C Cu -0.36315(11) -0.59445(4) 1.28546(6)
Cu1C_2 Cu -0.36315(11) 0.40555(4) 1.28546(6)
Cu2B Cu 0.03655(11) -0.06840(4) 0.92917(6)
Cu2A Cu -0.46345(11) -0.43160(4) 0.42917(6)
Cu2A_2 Cu -0.46345(11) -0.43160(4) 1.42917(6)
Cu2C Cu 0.46345(11) 0.43160(4) 0.57083(6)
Cu2C_2 Cu 0.46345(11) 0.43160(4) 1.57083(6)
S1B S -0.1278(2) -0.43516(8) 0.69189(13)
O1B O -0.0571(7) -0.1680(2) 0.9156(4)
O2B O -0.1311(5) -0.0342(2) 1.0573(4)
O3B O -0.3450(7) -0.5142(2) 1.1625(4)
O3A O 0.1550(7) 0.0142(2) 0.6625(4)
O3C O -0.1550(7) -0.0142(2) 1.3375(4)
O4B O -0.1261(7) -0.1861(2) 1.1229(4)
O5B O -0.1473(11) -0.5132(3) 0.7020(5)
O6B O -0.3280(8) -0.4106(2) 1.2822(4)
O6A O 0.1720(8) -0.0894(2) 0.7822(4)
O6C O -0.1720(8) 0.0894(2) 1.2178(4)
O7B O -0.2756(8) -0.4015(3) 0.6133(5)
O7A O 0.2244(8) -0.0985(3) 1.1133(5)
O7C O -0.2244(8) 0.0985(3) 0.8867(5)
O8B O 0.0450(7) -0.4105(4) 0.6491(5)
O8A O -0.4550(7) -0.0895(4) 1.1491(5)
O8C O 0.4550(7) 0.0895(4) 0.8509(5)
C1B C -0.1453(8) -0.3959(3) 0.8495(5)
C2B C -0.2346(8) -0.4051(3) 1.0693(5)
C3B C -0.2017(9) -0.3305(3) 1.0849(5)
H1B H -0.2224 -0.3084 1.1648
C4B C -0.1388(9) -0.2874(3) 0.9857(5)
C5B C -0.1035(9) -0.2078(3) 1.0083(5)
C6B C -0.1097(8) -0.3211(3) 0.8665(5)
H2B H -0.0665 -0.2935 0.7984
C7B C -0.2057(9) -0.4383(3) 0.9496(5)
H3B H -0.2271 -0.4887 0.9375
C8B C -0.3085(9) -0.4468(3) 1.1791(5)
O9B O -0.1224(8) -0.1563(3) 1.3748(4)
O10 O 0.0464(14) 0.3007(5) 0.5869(9)
O11 O 0.217(2) 0.1372(13) 0.3706(15)
loop_
_geom_bond_atom_site_label_1
_geom_bond_atom_site_label_2
_geom_bond_site_symmetry_1
_geom_bond_site_symmetry_2
Cu1 O2 1_555 1_555
Cu2 O1 1_555 1_555
S1 O5 1_555 1_555
O1 C5 1_555 1_555
O2 Cu2 1_555 1_555
O3 C8 1_555 1_555
O4 Cu1 1_555 1_555
O6 C8 1_555 1_555
O7 S1 1_555 1_555
O8 S1 1_555 1_555
C1 S1 1_555 1_555
C2 C3 1_555 1_555
C3 H1 1_555 1_555
C4 C3 1_555 1_555
C5 O4 1_555 1_555
C6 C1 1_555 1_555
H2 C6 1_555 1_555
C7 C1 1_555 1_555
H3 C7 1_555 1_555
C8 C2 1_555 1_555
O9 Cu1 1_555 1_555
Cu1B O2B 1_555 1_555
Cu1A O8B 1_555 1_555
Cu1A_2 O3 1_555 1_555
Cu1C O3B 1_555 1_555
Cu1C_2 O8 1_555 1_555
Cu2B O2 1_555 1_555
Cu2A O7B 1_555 1_555
Cu2A_2 O6B 1_555 1_555
Cu2C O6 1_555 1_555
Cu2C_2 O7 1_555 1_555
S1B O5B 1_555 1_555
O1B Cu2B 1_555 1_555
O2B Cu2 1_555 1_555
O3B C8B 1_555 1_555
O3A Cu1 1_555 1_555
O3C Cu1B 1_555 1_555
O4B Cu1B 1_555 1_555
O6B C8B 1_555 1_555
O6A Cu2B 1_555 1_555
O6C Cu2 1_555 1_555
O7B S1B 1_555 1_555
O7A Cu2B 1_555 1_555
O7C Cu2 1_555 1_555
O8B S1B 1_555 1_555
O8A Cu1B 1_555 1_555
O8C Cu1 1_555 1_555
C1B S1B 1_555 1_555
C2B C3B 1_555 1_555
C3B H1B 1_555 1_555
C4B C3B 1_555 1_555
C5B O1B 1_555 1_555
C6B C1B 1_555 1_555
H2B C6B 1_555 1_555
C7B C1B 1_555 1_555
H3B C7B 1_555 1_555
C8B C2B 1_555 1_555
O9B Cu1B 1_555 1_555
C2 C7 1_555 1_555
C4 C5 1_555 1_555
C4 C6 1_555 1_555
Cu2B O2B 1_555 1_555
O4B C5B 1_555 1_555
C2B C7B 1_555 1_555
C4B C5B 1_555 1_555
C4B C6B 1_555 1_555

#END
