
#######################################################################
#
#                 Cambridge Crystallographic Data Centre
#                                CCDC 
#
#######################################################################
#
# If this CIF has been generated from an entry in the Cambridge 
# Structural Database, then it will include bibliographic, chemical, 
# crystal, experimental, refinement or atomic coordinate data resulting 
# from the CCDC's data processing and validation procedures.
#
#######################################################################

data_LUWYUY
_symmetry_cell_setting           monoclinic
_symmetry_space_group_name_H-M   'C 2/c'
_symmetry_Int_Tables_number      15
_space_group_name_Hall           '-C 2yn'
loop_
_symmetry_equiv_pos_site_id
_symmetry_equiv_pos_as_xyz
1 x,y,z
2 -x,y,1/2-z
3 1/2+x,1/2+y,z
4 1/2-x,1/2+y,1/2-z
5 -x,-y,-z
6 x,-y,1/2+z
7 1/2-x,1/2-y,-z
8 1/2+x,1/2-y,1/2+z
_cell_length_a                   18.410(4)
_cell_length_b                   14.563(3)
_cell_length_c                   15.462(3)
_cell_angle_alpha                90
_cell_angle_beta                 100.22(3)
_cell_angle_gamma                90
_cell_volume                     4079.66
loop_
_atom_site_label
_atom_site_type_symbol
_atom_site_fract_x
_atom_site_fract_y
_atom_site_fract_z
Cd1 Cd 0.281905(9) 0.253864(11) 0.128455(11)
O1 O 0.36346(10) 0.15190(14) 0.21839(12)
O2 O 0.31967(12) 0.26700(14) 0.28508(14)
O3 O 0.58312(9) 0.05111(13) 0.43357(12)
O4 O 0.69702(10) 0.17601(13) 0.49918(12)
O5 O 0.70387(10) 0.11401(13) 0.62939(12)
N1 N 0.37558(11) 0.35992(15) 0.11859(16)
N2 N 0.68378(11) 0.65619(16) 0.13785(16)
C1 C 0.36057(14) 0.19777(18) 0.28658(17)
C2 C 0.41057(13) 0.17218(17) 0.37127(16)
C3 C 0.39663(14) 0.20423(19) 0.45131(18)
H8 H 0.3552 0.2401 0.4536
C4 C 0.44482(15) 0.1823(2) 0.52734(18)
H9 H 0.4350 0.2024 0.5812
C5 C 0.50760(14) 0.13088(19) 0.52485(17)
H10 H 0.5399 0.1172 0.5766
C6 C 0.52224(13) 0.09993(17) 0.44535(17)
C7 C 0.47235(13) 0.11931(18) 0.36886(16)
H11 H 0.4808 0.0963 0.3154
C8 C 0.63597(13) 0.03142(17) 0.50996(18)
H12 H 0.6694 -0.0154 0.4956
H13 H 0.6105 0.0064 0.5545
C9 C 0.68082(12) 0.11352(16) 0.54794(16)
C10 C 0.44248(19) 0.3304(2) 0.1191(4)
H14 H 0.4495 0.2673 0.1161
C11 C 0.50344(19) 0.3862(2) 0.1237(4)
H15 H 0.5496 0.3601 0.1245
C12 C 0.49702(13) 0.47817(17) 0.12717(18)
C13 C 0.56186(14) 0.53964(18) 0.13186(18)
C14 C 0.62975(16) 0.5076(2) 0.1198(3)
H16 H 0.6361 0.4456 0.1091
C15 C 0.68823(17) 0.5674(2) 0.1237(3)
H17 H 0.7335 0.5437 0.1159
C16 C 0.61957(16) 0.6872(2) 0.1530(3)
H18 H 0.6157 0.7491 0.1661
C17 C 0.55829(16) 0.6325(2) 0.1502(3)
H19 H 0.5143 0.6579 0.1606
C18 C 0.42742(16) 0.5099(2) 0.1278(3)
H20 H 0.4190 0.5726 0.1310
C19 C 0.36949(16) 0.4492(2) 0.1238(3)
H21 H 0.3229 0.4733 0.1249
Cd1A Cd 0.718095(9) 0.253864(11) 0.371545(11)
Cd1G Cd 0.781905(9) 0.246136(11) 0.628455(11)
Cd1B Cd 0.781905(9) 0.753864(11) 0.128455(11)
Cd1F Cd 0.218095(9) 0.246136(11) -0.128455(11)
Cd1B_2 Cd -0.218095(9) -0.246136(11) 0.128455(11)
O1A O 0.63654(10) 0.15190(14) 0.28161(12)
O2A O 0.68033(12) 0.26700(14) 0.21492(14)
O3A O 0.41688(9) 0.05111(13) 0.06643(12)
O4A O 0.30298(10) 0.17601(13) 0.00082(12)
O4G O 0.19702(10) 0.32399(13) -0.00082(12)
O4F O 0.80298(10) 0.32399(13) 0.50082(12)
O5A O 0.29613(10) 0.11401(13) -0.12939(12)
O5G O 0.20387(10) 0.38599(13) 0.12939(12)
O5F O 0.79613(10) 0.38599(13) 0.37061(12)
N1B N -0.12442(11) -0.14008(15) 0.11859(16)
N1A N 0.62442(11) 0.35992(15) 0.38141(16)
N2B N 0.18378(11) 0.15619(16) 0.13785(16)
N2C N 0.81622(11) 0.15619(16) 0.36215(16)
C1A C 0.63943(14) 0.19777(18) 0.21342(17)
C2A C 0.58943(13) 0.17218(17) 0.12873(16)
C3A C 0.60337(14) 0.20423(19) 0.04869(18)
H8A H 0.6448 0.2401 0.0464
C4A C 0.55518(15) 0.1823(2) -0.02734(18)
H9A H 0.5650 0.2024 -0.0812
C5A C 0.49240(14) 0.13088(19) -0.02485(17)
H10A H 0.4601 0.1172 -0.0766
C6A C 0.47776(13) 0.09993(17) 0.05465(17)
C7A C 0.52765(13) 0.11931(18) 0.13114(16)
H11A H 0.5192 0.0963 0.1846
C8A C 0.36403(13) 0.03142(17) -0.00996(18)
H12A H 0.3306 -0.0154 0.0044
H13A H 0.3895 0.0064 -0.0545
C9A C 0.31918(12) 0.11352(16) -0.04794(16)
C10B C -0.05752(19) -0.1696(2) 0.1191(4)
H14B H -0.0505 -0.2327 0.1161
C11B C 0.00344(19) -0.1138(2) 0.1237(4)
H15B H 0.0496 -0.1399 0.1245
C12B C -0.00298(13) -0.02183(17) 0.12717(18)
C13B C 0.06186(14) 0.03964(18) 0.13186(18)
C14B C 0.12975(16) 0.0076(2) 0.1198(3)
H16B H 0.1361 -0.0544 0.1091
C15B C 0.18823(17) 0.0674(2) 0.1237(3)
H17B H 0.2335 0.0437 0.1159
C16B C 0.11957(16) 0.1872(2) 0.1530(3)
H18B H 0.1157 0.2491 0.1661
C17B C 0.05829(16) 0.1325(2) 0.1502(3)
H19B H 0.0143 0.1579 0.1606
C18B C -0.07258(16) 0.0099(2) 0.1278(3)
H20B H -0.0810 0.0726 0.1310
C19B C -0.13051(16) -0.0508(2) 0.1238(3)
H21B H -0.1771 -0.0267 0.1249
O6 O 0.5000 0.1591(3) 0.7500
H1 H 0.5354(18) 0.121(2) 0.760(3)
H1A H 0.4646(18) 0.121(2) 0.740(3)
O7 O 0.13340(14) 0.45317(16) 0.26729(17)
H2 H 0.129(2) 0.5095(10) 0.280(3)
H3 H 0.159(2) 0.448(2) 0.228(2)
O8 O 0.2222(2) 0.3360(3) 0.3863(2)
H4 H 0.190(2) 0.373(4) 0.361(3)
H5 H 0.252(2) 0.322(4) 0.352(3)
O9 O 0.2918(3) 0.6400(4) 0.0632(5)
H6 H 0.302(5) 0.695(3) 0.082(7)
H7 H 0.255(3) 0.644(6) 0.019(4)
loop_
_geom_bond_atom_site_label_1
_geom_bond_atom_site_label_2
_geom_bond_site_symmetry_1
_geom_bond_site_symmetry_2
Cd1 O1 1_555 1_555
O1 C1 1_555 1_555
O2 Cd1 1_555 1_555
O3 C6 1_555 1_555
O4 C9 1_555 1_555
O5 C9 1_555 1_555
O6 H1 1_555 1_555
O7 H2 1_555 1_555
H3 O7 1_555 1_555
O8 H4 1_555 1_555
H5 O8 1_555 1_555
O9 H6 1_555 1_555
H7 O9 1_555 1_555
N1 Cd1 1_555 1_555
N2 C15 1_555 1_555
C1 O2 1_555 1_555
C2 C1 1_555 1_555
C3 C2 1_555 1_555
H8 C3 1_555 1_555
C4 C3 1_555 1_555
H9 C4 1_555 1_555
C5 C4 1_555 1_555
H10 C5 1_555 1_555
C6 C5 1_555 1_555
C7 C2 1_555 1_555
H11 C7 1_555 1_555
C8 O3 1_555 1_555
H12 C8 1_555 1_555
H13 C8 1_555 1_555
C9 C8 1_555 1_555
C10 N1 1_555 1_555
H14 C10 1_555 1_555
C11 C10 1_555 1_555
H15 C11 1_555 1_555
C12 C11 1_555 1_555
C13 C12 1_555 1_555
C14 C13 1_555 1_555
H16 C14 1_555 1_555
C15 C14 1_555 1_555
H17 C15 1_555 1_555
C16 N2 1_555 1_555
H18 C16 1_555 1_555
C17 C13 1_555 1_555
H19 C17 1_555 1_555
C18 C12 1_555 1_555
H20 C18 1_555 1_555
C19 N1 1_555 1_555
H21 C19 1_555 1_555
Cd1A O4 1_555 1_555
Cd1G O4 1_555 1_555
Cd1B N2 1_555 1_555
Cd1F O4A 1_555 1_555
Cd1B_2 N1B 1_555 1_555
O1A Cd1A 1_555 1_555
O2A Cd1A 1_555 1_555
O3A C6A 1_555 1_555
O4A Cd1 1_555 1_555
O4G Cd1 1_555 1_555
O4F Cd1A 1_555 1_555
O5A Cd1F 1_555 1_555
O5G Cd1 1_555 1_555
O5F Cd1A 1_555 1_555
H1A O6 1_555 1_555
N1B C10B 1_555 1_555
N1A Cd1A 1_555 1_555
N2B Cd1 1_555 1_555
N2C Cd1A 1_555 1_555
C1A O1A 1_555 1_555
C2A C1A 1_555 1_555
C3A C2A 1_555 1_555
H8A C3A 1_555 1_555
C4A C3A 1_555 1_555
H9A C4A 1_555 1_555
C5A C4A 1_555 1_555
H10A C5A 1_555 1_555
C6A C5A 1_555 1_555
C7A C2A 1_555 1_555
H11A C7A 1_555 1_555
C8A O3A 1_555 1_555
H12A C8A 1_555 1_555
H13A C8A 1_555 1_555
C9A O4A 1_555 1_555
C10B H14B 1_555 1_555
C11B C10B 1_555 1_555
H15B C11B 1_555 1_555
C12B C11B 1_555 1_555
C13B C12B 1_555 1_555
C14B C13B 1_555 1_555
H16B C14B 1_555 1_555
C15B N2B 1_555 1_555
H17B C15B 1_555 1_555
C16B N2B 1_555 1_555
H18B C16B 1_555 1_555
C17B C13B 1_555 1_555
H19B C17B 1_555 1_555
C18B C12B 1_555 1_555
H20B C18B 1_555 1_555
C19B N1B 1_555 1_555
H21B C19B 1_555 1_555
O5 Cd1G 1_555 1_555
C6 C7 1_555 1_555
C16 C17 1_555 1_555
C18 C19 1_555 1_555
Cd1G O4F 1_555 1_555
Cd1F O4G 1_555 1_555
O2A C1A 1_555 1_555
O5A C9A 1_555 1_555
C6A C7A 1_555 1_555
C8A C9A 1_555 1_555
C14B C15B 1_555 1_555
C16B C17B 1_555 1_555
C18B C19B 1_555 1_555

#END
