
#######################################################################
#
#                 Cambridge Crystallographic Data Centre
#                                CCDC 
#
#######################################################################
#
# If this CIF has been generated from an entry in the Cambridge 
# Structural Database, then it will include bibliographic, chemical, 
# crystal, experimental, refinement or atomic coordinate data resulting 
# from the CCDC's data processing and validation procedures.
#
#######################################################################

data_MABJUV01
_symmetry_cell_setting           monoclinic
_symmetry_space_group_name_H-M   'C 2/c'
_symmetry_Int_Tables_number      15
_space_group_name_Hall           '-C 2yn'
loop_
_symmetry_equiv_pos_site_id
_symmetry_equiv_pos_as_xyz
1 x,y,z
2 1/2+x,1/2+y,z
3 x,-y,1/2+z
4 1/2+x,1/2-y,1/2+z
5 -x,-y,-z
6 1/2-x,1/2-y,-z
7 -x,y,1/2-z
8 1/2-x,1/2+y,1/2-z
_cell_length_a                   21.191(2)
_cell_length_b                   13.1900(13)
_cell_length_c                   8.5212(9)
_cell_angle_alpha                90
_cell_angle_beta                 100.314(2)
_cell_angle_gamma                90
_cell_volume                     2343.27
loop_
_atom_site_label
_atom_site_type_symbol
_atom_site_fract_x
_atom_site_fract_y
_atom_site_fract_z
Cu1 Cu 0.302578(15) 0.29418(2) 0.07530(4)
N1 N 0.38018(11) 0.37120(18) 0.2280(3)
O1 O 0.33309(9) 0.15576(14) 0.1327(2)
O2 O 0.24287(10) 0.08145(15) 0.0105(3)
O3 O 0.24736(10) -0.20910(15) 0.2504(2)
O4 O 0.33894(10) -0.27626(16) 0.3790(2)
C1 C 0.29801(13) 0.0793(2) 0.0937(3)
C2 C 0.32452(14) -0.0221(2) 0.1578(3)
H1 H 0.3050 -0.0398 0.2515
H2 H 0.3713 -0.0150 0.1952
C3 C 0.31291(14) -0.1096(2) 0.0384(3)
H3 H 0.3358 -0.0959 -0.0511
H4 H 0.2665 -0.1145 -0.0058
C4 C 0.33629(14) -0.2106(2) 0.1173(3)
H5 H 0.3265 -0.2658 0.0380
H6 H 0.3834 -0.2078 0.1520
C5 C 0.30516(14) -0.23412(19) 0.2597(3)
C6 C 0.38065(15) 0.4719(2) 0.2398(4)
H7 H 0.3482 0.5093 0.1728
C7 C 0.42627(16) 0.5243(2) 0.3453(5)
H8 H 0.4243 0.5962 0.3500
C8 C 0.47476(13) 0.4730(2) 0.4440(3)
C9 C 0.47340(15) 0.3680(2) 0.4330(4)
H9 H 0.5049 0.3286 0.4995
C10 C 0.42610(15) 0.3212(2) 0.3252(4)
H10 H 0.4262 0.2492 0.3198
C8D C 0.52524(13) 0.5270(2) 0.5560(3)
C7D C 0.57373(16) 0.4757(2) 0.6547(5)
C6D C 0.61935(15) 0.5281(2) 0.7602(4)
N1D N 0.61982(11) 0.62880(18) 0.7720(3)
C10D C 0.57390(15) 0.6788(2) 0.6748(4)
C9D C 0.52660(15) 0.6320(2) 0.5670(4)
H9D H 0.4951 0.6714 0.5005
H10D H 0.5738 0.7508 0.6802
H7D H 0.6518 0.4907 0.8272
H8D H 0.5757 0.4038 0.6500
O1E O 0.16691(9) 0.34424(14) -0.1327(2)
O2E O 0.25713(10) 0.41855(15) -0.0105(3)
O3E O 0.25264(10) 0.70910(15) -0.2504(2)
O4E O 0.16106(10) 0.77626(16) -0.3790(2)
C1E C 0.20199(13) 0.4207(2) -0.0937(3)
C2E C 0.17548(14) 0.5221(2) -0.1578(3)
H1E H 0.1950 0.5398 -0.2515
H2E H 0.1287 0.5150 -0.1952
C3E C 0.18709(14) 0.6096(2) -0.0384(3)
H3E H 0.1642 0.5959 0.0511
H4E H 0.2335 0.6145 0.0058
C4E C 0.16371(14) 0.7106(2) -0.1173(3)
H5E H 0.1735 0.7658 -0.0380
H6E H 0.1166 0.7078 -0.1520
C5E C 0.19484(14) 0.73412(19) -0.2597(3)
Cu1D Cu 0.697422(15) 0.70582(2) 0.92470(4)
Cu1E Cu 0.197422(15) 0.20582(2) -0.07530(4)
O3G O 0.25264(10) 0.29090(15) 0.2496(2)
O4B O 0.33894(10) 0.27626(16) -0.1210(2)
Cu1G Cu 0.197422(15) -0.20582(2) 0.42470(4)
Cu1B Cu 0.302578(15) -0.29418(2) 0.57530(4)
Cu1B_2 Cu 0.302578(15) 0.70582(2) -0.42470(4)
Cu1G_2 Cu 0.197422(15) 0.79418(2) -0.57530(4)
Cu1A Cu 0.802578(15) 0.79418(2) 1.07530(4)
O1D O 0.66691(9) 0.84424(14) 0.8673(2)
O2A O 0.74287(10) 0.58145(15) 1.0105(3)
O3C O 0.74736(10) 0.70910(15) 0.7504(2)
O4F O 0.66106(10) 0.72374(16) 1.1210(2)
O5 O 0.5000 0.9756(5) 0.2500
H12 H 0.4954 1.0185 0.3521
H12F H 0.5046 1.0185 0.1479
O6 O 0.45736(17) 0.8712(3) 0.4985(6)
H13 H 0.4606 0.8583 0.6250
H14 H 0.4985 0.9267 0.4821
H11? H 0.5000 0.8956 0.2500
loop_
_geom_bond_atom_site_label_1
_geom_bond_atom_site_label_2
_geom_bond_site_symmetry_1
_geom_bond_site_symmetry_2
Cu1 N1 1_555 1_555
N1 C6 1_555 1_555
O1 Cu1 1_555 1_555
O2 C1 1_555 1_555
O3 C5 1_555 1_555
O4 C5 1_555 1_555
C1 O1 1_555 1_555
C2 C1 1_555 1_555
H1 C2 1_555 1_555
H2 C2 1_555 1_555
C3 C2 1_555 1_555
H3 C3 1_555 1_555
H4 C3 1_555 1_555
C4 C3 1_555 1_555
H5 C4 1_555 1_555
H6 C4 1_555 1_555
C5 C4 1_555 1_555
C6 H7 1_555 1_555
C7 C6 1_555 1_555
H8 C7 1_555 1_555
C8 C7 1_555 1_555
C9 C8 1_555 1_555
H9 C9 1_555 1_555
C10 N1 1_555 1_555
H10 C10 1_555 1_555
O5 H12 1_555 1_555
O6 H13 1_555 1_555
H14 O6 1_555 1_555
C8D C8 1_555 1_555
C7D C8D 1_555 1_555
C6D C7D 1_555 1_555
N1D C6D 1_555 1_555
C10D N1D 1_555 1_555
C9D C8D 1_555 1_555
H9D C9D 1_555 1_555
H10D C10D 1_555 1_555
H7D C6D 1_555 1_555
H8D C7D 1_555 1_555
H12F O5 1_555 1_555
O1E C1E 1_555 1_555
O2E Cu1 1_555 1_555
O3E C5E 1_555 1_555
O4E C5E 1_555 1_555
C1E O2E 1_555 1_555
C2E C1E 1_555 1_555
H1E C2E 1_555 1_555
H2E C2E 1_555 1_555
C3E C2E 1_555 1_555
H3E C3E 1_555 1_555
H4E C3E 1_555 1_555
C4E C3E 1_555 1_555
H5E C4E 1_555 1_555
H6E C4E 1_555 1_555
C5E C4E 1_555 1_555
Cu1D N1D 1_555 1_555
Cu1E Cu1 1_555 1_555
O3G Cu1 1_555 1_555
O4B Cu1 1_555 1_555
Cu1G O3 1_555 1_555
Cu1B O4 1_555 1_555
Cu1B_2 O3E 1_555 1_555
Cu1G_2 O4E 1_555 1_555
Cu1A Cu1D 1_555 1_555
O1D Cu1D 1_555 1_555
O2A Cu1D 1_555 1_555
O3C Cu1D 1_555 1_555
O4F Cu1D 1_555 1_555
O2 Cu1E 1_555 1_555
C9 C10 1_555 1_555
C10D C9D 1_555 1_555
O1E Cu1E 1_555 1_555
Cu1G Cu1B 1_555 1_555
Cu1B_2 Cu1G_2 1_555 1_555

#END
