
#######################################################################
#
#                 Cambridge Crystallographic Data Centre
#                                CCDC 
#
#######################################################################
#
# If this CIF has been generated from an entry in the Cambridge 
# Structural Database, then it will include bibliographic, chemical, 
# crystal, experimental, refinement or atomic coordinate data resulting 
# from the CCDC's data processing and validation procedures.
#
#######################################################################

data_MABKIK
_symmetry_cell_setting           monoclinic
_symmetry_space_group_name_H-M   'C 2/c'
_symmetry_Int_Tables_number      15
_space_group_name_Hall           '-C 2yn'
loop_
_symmetry_equiv_pos_site_id
_symmetry_equiv_pos_as_xyz
1 x,y,z
2 1/2+x,1/2+y,z
3 x,-y,1/2+z
4 1/2+x,1/2-y,1/2+z
5 -x,-y,-z
6 1/2-x,1/2-y,-z
7 -x,y,1/2-z
8 1/2-x,1/2+y,1/2-z
_cell_length_a                   23.911(3)
_cell_length_b                   11.8685(15)
_cell_length_c                   9.2063(12)
_cell_angle_alpha                90
_cell_angle_beta                 90.350(2)
_cell_angle_gamma                90
_cell_volume                     2612.59
loop_
_atom_site_label
_atom_site_type_symbol
_atom_site_fract_x
_atom_site_fract_y
_atom_site_fract_z
Cu1 Cu 0.204990(18) 0.22769(4) 0.42146(5)
N1 N 0.13981(12) 0.1669(3) 0.2759(3)
O1 O 0.23488(11) 0.0752(2) 0.4543(3)
O2 O 0.31199(11) 0.1105(2) 0.5847(3)
O3 O 0.33586(11) -0.2739(2) 0.8924(3)
O4 O 0.25811(11) -0.2495(2) 0.7613(3)
C1 C 0.27874(16) 0.0449(3) 0.5206(4)
C2 C 0.28970(17) -0.0798(3) 0.5247(5)
H1 H 0.2893 -0.1085 0.4238
H2 H 0.2585 -0.1166 0.5767
C3 C 0.34443(16) -0.1159(3) 0.5965(4)
H3 H 0.3509 -0.0697 0.6845
H4 H 0.3756 -0.1016 0.5288
C4 C 0.34438(17) -0.2418(3) 0.6393(4)
H5 H 0.3284 -0.2873 0.5590
H6 H 0.3832 -0.2675 0.6571
C5 C 0.31021(16) -0.2577(3) 0.7740(5)
C6 C 0.14393(15) 0.0641(3) 0.2176(4)
H7 H 0.1739 0.0170 0.2479
C7 C 0.10673(15) 0.0232(3) 0.1157(4)
H8 H 0.1119 -0.0497 0.0755
C8 C 0.06149(14) 0.0892(3) 0.0718(4)
C9 C 0.05680(15) 0.1948(3) 0.1324(4)
H9 H 0.0267 0.2429 0.1054
C10 C 0.09615(15) 0.2303(3) 0.2330(4)
H10 H 0.0921 0.3033 0.2739
C11 C 0.01901(15) 0.0444(3) -0.0351(5)
H11 H 0.0386 0.0104 -0.1187
H12 H -0.0042 0.1075 -0.0719
C11D C -0.01901(15) -0.0444(3) 0.0351(5)
C8D C -0.06149(14) -0.0892(3) -0.0718(4)
C7D C -0.10673(15) -0.0232(3) -0.1157(4)
C6D C -0.14393(15) -0.0641(3) -0.2176(4)
N1D N -0.13981(12) -0.1669(3) -0.2759(3)
C10D C -0.09615(15) -0.2303(3) -0.2330(4)
C9D C -0.05680(15) -0.1948(3) -0.1324(4)
H9D H -0.0267 -0.2429 -0.1054
H10D H -0.0921 -0.3033 -0.2739
H7D H -0.1739 -0.0170 -0.2479
H8D H -0.1119 0.0497 -0.0755
H11D H -0.0386 -0.0104 0.1187
H12D H 0.0042 -0.1075 0.0719
O1E O 0.26512(11) 0.4248(2) 0.5457(3)
O2E O 0.18801(11) 0.3895(2) 0.4153(3)
O3E O 0.16414(11) 0.7739(2) 0.1076(3)
O4E O 0.24189(11) 0.7495(2) 0.2387(3)
C1E C 0.22126(16) 0.4551(3) 0.4794(4)
C2E C 0.21030(17) 0.5798(3) 0.4753(5)
H1E H 0.2107 0.6085 0.5762
H2E H 0.2415 0.6166 0.4233
C3E C 0.15557(16) 0.6159(3) 0.4035(4)
H3E H 0.1491 0.5697 0.3155
H4E H 0.1244 0.6016 0.4712
C4E C 0.15562(17) 0.7418(3) 0.3607(4)
H5E H 0.1716 0.7873 0.4410
H6E H 0.1168 0.7675 0.3429
C5E C 0.18979(16) 0.7577(3) 0.2260(5)
Cu1D Cu -0.204990(18) -0.22769(4) -0.42146(5)
Cu1E Cu 0.295010(18) 0.27231(4) 0.57854(5)
O3G O 0.16414(11) 0.2261(2) 0.6076(3)
O4B O 0.25811(11) 0.2495(2) 0.2613(3)
Cu1G Cu 0.295010(18) -0.27231(4) 1.07854(5)
Cu1B Cu 0.204990(18) -0.22769(4) 0.92146(5)
Cu1B_2 Cu 0.204990(18) 0.77231(4) -0.07854(5)
Cu1G_2 Cu 0.295010(18) 0.72769(4) 0.07854(5)
Cu1A Cu -0.295010(18) -0.27231(4) -0.57854(5)
O1D O -0.23488(11) -0.0752(2) -0.4543(3)
O2A O -0.18801(11) -0.3895(2) -0.4153(3)
O3C O -0.16414(11) -0.2261(2) -0.6076(3)
O4F O -0.25811(11) -0.2495(2) -0.2613(3)
O5 O 0.9881(3) 0.4323(7) 0.0809(10)
O7 O 0.9428(6) 0.3069(14) -0.1244(18)
O13 O 1.0000 0.342(2) -0.2500
O6? O 0.9396(5) 0.3727(14) -0.050(2)
O8? O 0.9753(6) 0.5280(12) 0.1750(17)
O9? O 1.0000 0.4907(18) 0.2500
O10? O 0.9586(8) 0.4108(17) -0.159(2)
O11? O 0.9856(9) 0.4652(18) -0.042(3)
O12? O 0.9453(10) 0.402(2) 0.011(4)
loop_
_geom_bond_atom_site_label_1
_geom_bond_atom_site_label_2
_geom_bond_site_symmetry_1
_geom_bond_site_symmetry_2
Cu1 N1 1_555 1_555
N1 C6 1_555 1_555
O1 Cu1 1_555 1_555
O2 C1 1_555 1_555
O3 C5 1_555 1_555
O4 C5 1_555 1_555
C1 O1 1_555 1_555
C2 C1 1_555 1_555
H1 C2 1_555 1_555
H2 C2 1_555 1_555
C3 C2 1_555 1_555
H3 C3 1_555 1_555
H4 C3 1_555 1_555
C4 C3 1_555 1_555
H5 C4 1_555 1_555
H6 C4 1_555 1_555
C5 C4 1_555 1_555
C6 H7 1_555 1_555
C7 C6 1_555 1_555
H8 C7 1_555 1_555
C8 C7 1_555 1_555
C9 C8 1_555 1_555
H9 C9 1_555 1_555
C10 N1 1_555 1_555
H10 C10 1_555 1_555
C11 C8 1_555 1_555
H11 C11 1_555 1_555
H12 C11 1_555 1_555
C11D C11 1_555 1_555
C8D C11D 1_555 1_555
C7D C8D 1_555 1_555
C6D C7D 1_555 1_555
N1D C6D 1_555 1_555
C10D N1D 1_555 1_555
C9D C8D 1_555 1_555
H9D C9D 1_555 1_555
H10D C10D 1_555 1_555
H7D C6D 1_555 1_555
H8D C7D 1_555 1_555
H11D C11D 1_555 1_555
H12D C11D 1_555 1_555
O1E C1E 1_555 1_555
O2E Cu1 1_555 1_555
O3E C5E 1_555 1_555
O4E C5E 1_555 1_555
C1E O2E 1_555 1_555
C2E C1E 1_555 1_555
H1E C2E 1_555 1_555
H2E C2E 1_555 1_555
C3E C2E 1_555 1_555
H3E C3E 1_555 1_555
H4E C3E 1_555 1_555
C4E C3E 1_555 1_555
H5E C4E 1_555 1_555
H6E C4E 1_555 1_555
C5E C4E 1_555 1_555
Cu1D N1D 1_555 1_555
Cu1E Cu1 1_555 1_555
O3G Cu1 1_555 1_555
O4B Cu1 1_555 1_555
Cu1G O3 1_555 1_555
Cu1B O4 1_555 1_555
Cu1B_2 O3E 1_555 1_555
Cu1G_2 O4E 1_555 1_555
Cu1A Cu1D 1_555 1_555
O1D Cu1D 1_555 1_555
O2A Cu1D 1_555 1_555
O3C Cu1D 1_555 1_555
O4F Cu1D 1_555 1_555
O2 Cu1E 1_555 1_555
C9 C10 1_555 1_555
C10D C9D 1_555 1_555
O1E Cu1E 1_555 1_555
Cu1G Cu1B 1_555 1_555
Cu1B_2 Cu1G_2 1_555 1_555

#END
