
#######################################################################
#
#                 Cambridge Crystallographic Data Centre
#                                CCDC 
#
#######################################################################
#
# If this CIF has been generated from an entry in the Cambridge 
# Structural Database, then it will include bibliographic, chemical, 
# crystal, experimental, refinement or atomic coordinate data resulting 
# from the CCDC's data processing and validation procedures.
#
#######################################################################

data_MABKIK01
_symmetry_cell_setting           monoclinic
_symmetry_space_group_name_H-M   'C 2/c'
_symmetry_Int_Tables_number      15
_space_group_name_Hall           '-C 2yn'
loop_
_symmetry_equiv_pos_site_id
_symmetry_equiv_pos_as_xyz
1 x,y,z
2 1/2+x,1/2+y,z
3 x,-y,1/2+z
4 1/2+x,1/2-y,1/2+z
5 -x,-y,-z
6 1/2-x,1/2-y,-z
7 -x,y,1/2-z
8 1/2-x,1/2+y,1/2-z
_cell_length_a                   24.238(2)
_cell_length_b                   13.0527(13)
_cell_length_c                   8.6313(8)
_cell_angle_alpha                90
_cell_angle_beta                 91.473(2)
_cell_angle_gamma                90
_cell_volume                     2729.79
loop_
_atom_site_label
_atom_site_type_symbol
_atom_site_fract_x
_atom_site_fract_y
_atom_site_fract_z
Cu1 Cu 0.205251(14) 0.20430(3) 0.44606(4)
N1 N 0.13951(9) 0.13937(18) 0.3045(3)
O1 O 0.24332(9) 0.07640(15) 0.5073(2)
O2 O 0.31986(9) 0.15457(16) 0.5916(3)
O3 O 0.32661(9) -0.28338(17) 0.8464(2)
O4 O 0.24955(9) -0.20961(16) 0.7571(2)
C1 C 0.29118(12) 0.0758(2) 0.5674(3)
C2 C 0.31612(13) -0.0247(2) 0.6200(3)
H1 H 0.3027 -0.0403 0.7247
H2 H 0.3567 -0.0162 0.6290
C3 C 0.30366(13) -0.1160(2) 0.5153(3)
H3 H 0.3216 -0.1058 0.4146
H4 H 0.2633 -0.1206 0.4953
C4 C 0.32434(13) -0.2160(2) 0.5887(3)
H5 H 0.3163 -0.2733 0.5165
H6 H 0.3649 -0.2120 0.6048
C5 C 0.29797(12) -0.2382(2) 0.7426(3)
C6 C 0.14480(12) 0.0455(2) 0.2452(3)
H7 H 0.1743 0.0035 0.2821
C7 C 0.10891(12) 0.0069(2) 0.1318(3)
H8 H 0.1140 -0.0603 0.0926
C8 C 0.06572(12) 0.0669(2) 0.0762(3)
C9 C 0.06086(12) 0.1641(2) 0.1360(3)
H9 H 0.0320 0.2080 0.1000
C10 C 0.09809(12) 0.1974(2) 0.2484(3)
H10 H 0.0942 0.2649 0.2879
C11 C 0.02388(13) 0.0254(3) -0.0404(3)
H11 H 0.0419 -0.0251 -0.1081
H12 H 0.0097 0.0821 -0.1064
C11D C -0.02388(13) -0.0254(3) 0.0404(3)
C8D C -0.06572(12) -0.0669(2) -0.0762(3)
C7D C -0.10891(12) -0.0069(2) -0.1318(3)
C6D C -0.14480(12) -0.0455(2) -0.2452(3)
N1D N -0.13951(9) -0.13937(18) -0.3045(3)
C10D C -0.09809(12) -0.1974(2) -0.2484(3)
C9D C -0.06086(12) -0.1641(2) -0.1360(3)
H9D H -0.0320 -0.2080 -0.1000
H10D H -0.0942 -0.2649 -0.2879
H7D H -0.1743 -0.0035 -0.2821
H8D H -0.1140 0.0603 -0.0926
H11D H -0.0419 0.0251 0.1081
H12D H -0.0097 -0.0821 0.1064
O1E O 0.25668(9) 0.42360(15) 0.4927(2)
O2E O 0.18014(9) 0.34543(16) 0.4084(3)
O3E O 0.17339(9) 0.78338(17) 0.1536(2)
O4E O 0.25045(9) 0.70961(16) 0.2429(2)
C1E C 0.20882(12) 0.4242(2) 0.4326(3)
C2E C 0.18388(13) 0.5247(2) 0.3800(3)
H1E H 0.1973 0.5403 0.2753
H2E H 0.1433 0.5162 0.3710
C3E C 0.19634(13) 0.6160(2) 0.4847(3)
H3E H 0.1784 0.6058 0.5854
H4E H 0.2367 0.6206 0.5047
C4E C 0.17566(13) 0.7160(2) 0.4113(3)
H5E H 0.1837 0.7733 0.4835
H6E H 0.1351 0.7120 0.3952
C5E C 0.20203(12) 0.7382(2) 0.2574(3)
Cu1D Cu -0.205251(14) -0.20430(3) -0.44606(4)
Cu1E Cu 0.294749(14) 0.29570(3) 0.55394(4)
O3G O 0.17339(9) 0.21662(17) 0.6536(2)
O4B O 0.24955(9) 0.20961(16) 0.2571(2)
Cu1G Cu 0.294749(14) -0.29570(3) 1.05394(4)
Cu1B Cu 0.205251(14) -0.20430(3) 0.94606(4)
Cu1B_2 Cu 0.205251(14) 0.79570(3) -0.05394(4)
Cu1G_2 Cu 0.294749(14) 0.70430(3) 0.05394(4)
Cu1A Cu -0.294749(14) -0.29570(3) -0.55394(4)
O1D O -0.24332(9) -0.07640(15) -0.5073(2)
O2A O -0.18014(9) -0.34543(16) -0.4084(3)
O3C O -0.17339(9) -0.21662(17) -0.6536(2)
O4F O -0.24955(9) -0.20961(16) -0.2571(2)
O7 O 0.5147(8) 0.9178(12) 0.395(2)
O12 O 0.5519(6) 0.794(3) 0.632(2)
O5? O 0.4936(4) 0.8438(14) 0.6260(14)
O6? O 0.568(2) 0.833(6) 0.591(6)
O8? O 0.4521(7) 0.9358(16) 0.391(3)
O9? O 0.548(2) 0.768(4) 0.675(6)
O10? O 0.5000 0.9251(17) 0.2500
O11? O 0.5626(12) 0.907(2) 0.493(5)
loop_
_geom_bond_atom_site_label_1
_geom_bond_atom_site_label_2
_geom_bond_site_symmetry_1
_geom_bond_site_symmetry_2
Cu1 N1 1_555 1_555
N1 C6 1_555 1_555
O1 Cu1 1_555 1_555
O2 C1 1_555 1_555
O3 C5 1_555 1_555
O4 C5 1_555 1_555
C1 O1 1_555 1_555
C2 C1 1_555 1_555
H1 C2 1_555 1_555
H2 C2 1_555 1_555
C3 C2 1_555 1_555
H3 C3 1_555 1_555
H4 C3 1_555 1_555
C4 C3 1_555 1_555
H5 C4 1_555 1_555
H6 C4 1_555 1_555
C5 C4 1_555 1_555
C6 H7 1_555 1_555
C7 C6 1_555 1_555
H8 C7 1_555 1_555
C8 C7 1_555 1_555
C9 C8 1_555 1_555
H9 C9 1_555 1_555
C10 N1 1_555 1_555
H10 C10 1_555 1_555
C11 C8 1_555 1_555
H11 C11 1_555 1_555
H12 C11 1_555 1_555
C11D C11 1_555 1_555
C8D C11D 1_555 1_555
C7D C8D 1_555 1_555
C6D C7D 1_555 1_555
N1D C6D 1_555 1_555
C10D N1D 1_555 1_555
C9D C8D 1_555 1_555
H9D C9D 1_555 1_555
H10D C10D 1_555 1_555
H7D C6D 1_555 1_555
H8D C7D 1_555 1_555
H11D C11D 1_555 1_555
H12D C11D 1_555 1_555
O1E C1E 1_555 1_555
O2E Cu1 1_555 1_555
O3E C5E 1_555 1_555
O4E C5E 1_555 1_555
C1E O2E 1_555 1_555
C2E C1E 1_555 1_555
H1E C2E 1_555 1_555
H2E C2E 1_555 1_555
C3E C2E 1_555 1_555
H3E C3E 1_555 1_555
H4E C3E 1_555 1_555
C4E C3E 1_555 1_555
H5E C4E 1_555 1_555
H6E C4E 1_555 1_555
C5E C4E 1_555 1_555
Cu1D N1D 1_555 1_555
Cu1E Cu1 1_555 1_555
O3G Cu1 1_555 1_555
O4B Cu1 1_555 1_555
Cu1G O3 1_555 1_555
Cu1B O4 1_555 1_555
Cu1B_2 O3E 1_555 1_555
Cu1G_2 O4E 1_555 1_555
Cu1A Cu1D 1_555 1_555
O1D Cu1D 1_555 1_555
O2A Cu1D 1_555 1_555
O3C Cu1D 1_555 1_555
O4F Cu1D 1_555 1_555
O2 Cu1E 1_555 1_555
C9 C10 1_555 1_555
C10D C9D 1_555 1_555
O1E Cu1E 1_555 1_555
Cu1G Cu1B 1_555 1_555
Cu1B_2 Cu1G_2 1_555 1_555

#END
