
#######################################################################
#
#                 Cambridge Crystallographic Data Centre
#                                CCDC 
#
#######################################################################
#
# If this CIF has been generated from an entry in the Cambridge 
# Structural Database, then it will include bibliographic, chemical, 
# crystal, experimental, refinement or atomic coordinate data resulting 
# from the CCDC's data processing and validation procedures.
#
#######################################################################

data_MAGVOG13
_symmetry_cell_setting           monoclinic
_symmetry_space_group_name_H-M   'C 2/c'
_symmetry_Int_Tables_number      15
_space_group_name_Hall           '-C 2yn'
loop_
_symmetry_equiv_pos_site_id
_symmetry_equiv_pos_as_xyz
1 x,y,z
2 -x,y,1/2-z
3 1/2+x,1/2+y,z
4 1/2-x,1/2+y,1/2-z
5 -x,-y,-z
6 x,-y,1/2+z
7 1/2-x,1/2-y,-z
8 1/2+x,1/2-y,1/2+z
_cell_length_a                   20.264(8)
_cell_length_b                   19.640(7)
_cell_length_c                   5.9757(10)
_cell_angle_alpha                90
_cell_angle_beta                 113.84(2)
_cell_angle_gamma                90
_cell_volume                     2175.32
loop_
_atom_site_label
_atom_site_type_symbol
_atom_site_fract_x
_atom_site_fract_y
_atom_site_fract_z
Ag1 Ag 0.5000 0.0000 0.0000
Ag2 Ag 0.7500 0.2500 0.0000
Ag3 Ag 0.7500 0.2500 0.5000
Ag4 Ag 1.0000 0.0000 0.5000
N1 N 0.6033(6) 0.0441(8) 0.134(3)
H1 H 0.6170 0.0588 0.2890
H2 H 0.6366 0.0151 0.1256
N2 N 0.6400(4) 0.2091(8) -0.121(3)
H3 H 0.6100 0.2392 -0.0974
H4 H 0.6222 0.1965 -0.2789
N3 N 0.8518(12) 0.1998(6) 0.624(3)
H5 H 0.8859 0.2275 0.6131
H6 H 0.8659 0.1858 0.7796
N4 N 0.9015(9) 0.0516(6) 0.3769(19)
H7 H 0.8902 0.0683 0.2256
H8 H 0.8660 0.0233 0.3728
C1 C 0.5902(9) 0.1005(10) -0.037(3)
H9 H 0.5472 0.1248 -0.0496
H10 H 0.5820 0.0828 -0.1975
C2 C 0.6532(8) 0.1490(10) 0.045(3)
H11 H 0.6628 0.1648 0.2090
H12 H 0.6957 0.1250 0.0509
C3 C 0.8383(7) 0.1423(6) 0.458(2)
H13 H 0.8240 0.1572 0.2902
H14 H 0.8015 0.1125 0.4680
C4 C 0.9110(7) 0.1079(7) 0.554(2)
H15 H 0.9483 0.1392 0.5562
H16 H 0.9234 0.0904 0.7175
N1D N 0.3967(6) -0.0441(8) -0.134(3)
H1D H 0.3830 -0.0588 -0.2890
H2D H 0.3634 -0.0151 -0.1256
N2D N 0.3600(4) -0.2091(8) 0.121(3)
H3D H 0.3900 -0.2392 0.0974
H4D H 0.3778 -0.1965 0.2789
C1D C 0.4098(9) -0.1005(10) 0.037(3)
H9D H 0.4528 -0.1248 0.0496
H10D H 0.4180 -0.0828 0.1975
C2D C 0.3468(8) -0.1490(10) -0.045(3)
H11D H 0.3372 -0.1648 -0.2090
H12D H 0.3043 -0.1250 -0.0509
N3F N 0.6482(12) 0.3002(6) 0.376(3)
H5F H 0.6141 0.2725 0.3869
H6F H 0.6341 0.3142 0.2204
N4F N 0.5985(9) 0.4484(6) 0.6231(19)
H7F H 0.6098 0.4317 0.7744
H8F H 0.6340 0.4767 0.6272
C3F C 0.6617(7) 0.3577(6) 0.542(2)
H13F H 0.6760 0.3428 0.7098
H14F H 0.6985 0.3875 0.5320
C4F C 0.5890(7) 0.3921(7) 0.446(2)
H15F H 0.5517 0.3608 0.4438
H16F H 0.5766 0.4096 0.2825
Ag1A Ag 0.5000 0.0000 -0.5000
Ag1A_2 Ag 0.5000 0.0000 0.5000
Ag2_2 Ag 0.7500 0.2500 1.0000
Ag2B Ag 0.2500 -0.2500 0.0000
Ag3_2 Ag 0.7500 0.2500 -0.5000
Ag4A Ag 1.0000 0.0000 0.0000
Ag4A_2 Ag 1.0000 0.0000 1.0000
Ag4B Ag 0.5000 0.5000 0.5000
N2F N 0.8600(4) 0.2909(8) 0.121(3)
N4D N 1.0985(9) -0.0516(6) 0.6231(19)
N5 N 0.7365(13) 0.0618(8) 0.733(3)
O1 O 0.7853(12) 0.0985(11) 0.859(3)
O2 O 0.6884(15) 0.0848(11) 0.556(3)
O3 O 0.7440(17) 0.0010(8) 0.755(4)
N6 N 0.0000 0.3117(3) 0.7500
O4 O 0.0563(10) 0.3423(12) 0.9044(5)
O5 O 0.0000 0.2521(3) 0.7500
O4A O -0.0563(10) 0.3423(12) 0.5956(5)
N7 N 0.0000 0.8168(12) 0.7500
O6 O 0.0489(10) 0.8494(12) 0.897(4)
O7 O 0.0000 0.7534(12) 0.7500
O6A O -0.0489(10) 0.8494(12) 0.603(4)
loop_
_geom_bond_atom_site_label_1
_geom_bond_atom_site_label_2
_geom_bond_site_symmetry_1
_geom_bond_site_symmetry_2
Ag1 N1 1_555 1_555
Ag2 Ag3 1_555 1_555
Ag3 N3 1_555 1_555
Ag4 N4 1_555 1_555
N1 H1 1_555 1_555
H2 N1 1_555 1_555
N2 Ag2 1_555 1_555
H3 N2 1_555 1_555
H4 N2 1_555 1_555
N3 H5 1_555 1_555
H6 N3 1_555 1_555
N4 H7 1_555 1_555
H8 N4 1_555 1_555
C1 N1 1_555 1_555
H9 C1 1_555 1_555
H10 C1 1_555 1_555
C2 N2 1_555 1_555
H11 C2 1_555 1_555
H12 C2 1_555 1_555
C3 N3 1_555 1_555
H13 C3 1_555 1_555
H14 C3 1_555 1_555
C4 N4 1_555 1_555
H15 C4 1_555 1_555
H16 C4 1_555 1_555
N5 O1 1_555 1_555
O2 N5 1_555 1_555
O3 N5 1_555 1_555
N6 O4 1_555 1_555
O5 N6 1_555 1_555
N7 O6 1_555 1_555
O7 N7 1_555 1_555
N1D Ag1 1_555 1_555
H1D N1D 1_555 1_555
H2D N1D 1_555 1_555
N2D H3D 1_555 1_555
H4D N2D 1_555 1_555
C1D N1D 1_555 1_555
H9D C1D 1_555 1_555
H10D C1D 1_555 1_555
C2D N2D 1_555 1_555
H11D C2D 1_555 1_555
H12D C2D 1_555 1_555
N3F Ag3 1_555 1_555
H5F N3F 1_555 1_555
H6F N3F 1_555 1_555
N4F H7F 1_555 1_555
H8F N4F 1_555 1_555
C3F N3F 1_555 1_555
H13F C3F 1_555 1_555
H14F C3F 1_555 1_555
C4F N4F 1_555 1_555
H15F C4F 1_555 1_555
H16F C4F 1_555 1_555
Ag1A Ag1 1_555 1_555
Ag1A_2 Ag1 1_555 1_555
Ag2_2 Ag3 1_555 1_555
Ag2B N2D 1_555 1_555
Ag3_2 Ag2 1_555 1_555
Ag4A Ag4 1_555 1_555
Ag4A_2 Ag4 1_555 1_555
Ag4B N4F 1_555 1_555
N2F Ag2 1_555 1_555
N4D Ag4 1_555 1_555
O4A N6 1_555 1_555
O6A N7 1_555 1_555
C1 C2 1_555 1_555
C3 C4 1_555 1_555
C1D C2D 1_555 1_555
C3F C4F 1_555 1_555

#END
