
#######################################################################
#
#                 Cambridge Crystallographic Data Centre
#                                CCDC 
#
#######################################################################
#
# If this CIF has been generated from an entry in the Cambridge 
# Structural Database, then it will include bibliographic, chemical, 
# crystal, experimental, refinement or atomic coordinate data resulting 
# from the CCDC's data processing and validation procedures.
#
#######################################################################

data_MAGVOG33
_symmetry_cell_setting           monoclinic
_symmetry_space_group_name_H-M   'C 2/c'
_symmetry_Int_Tables_number      15
_space_group_name_Hall           '-C 2yn'
loop_
_symmetry_equiv_pos_site_id
_symmetry_equiv_pos_as_xyz
1 x,y,z
2 -x,y,1/2-z
3 1/2+x,1/2+y,z
4 1/2-x,1/2+y,1/2-z
5 -x,-y,-z
6 x,-y,1/2+z
7 1/2-x,1/2-y,-z
8 1/2+x,1/2-y,1/2+z
_cell_length_a                   10.4021(3)
_cell_length_b                   10.5410(2)
_cell_length_c                   6.2832(2)
_cell_angle_alpha                90
_cell_angle_beta                 115.060(4)
_cell_angle_gamma                90
_cell_volume                     624.09
loop_
_atom_site_label
_atom_site_type_symbol
_atom_site_fract_x
_atom_site_fract_y
_atom_site_fract_z
Ag1 Ag 0.5000 0.0000 0.5000
C1 C 0.3167(3) 0.2105(3) 0.5459(6)
H1 H 0.3975 0.2652 0.5755
H2 H 0.3295 0.1722 0.6939
N1 N 0.3123(3) 0.1102(3) 0.3808(5)
H3 H 0.2978 0.1460 0.2424
H4 H 0.2383 0.0588 0.3561
C1F C 0.1833(3) 0.2895(3) 0.4541(6)
H1F H 0.1025 0.2348 0.4245
H2F H 0.1705 0.3278 0.3061
N1F N 0.1877(3) 0.3898(3) 0.6192(5)
H3F H 0.2022 0.3540 0.7576
H4F H 0.2617 0.4412 0.6439
Ag1A Ag 0.5000 0.0000 0.0000
Ag1A_2 Ag 0.5000 0.0000 1.0000
Ag1B Ag 0.0000 0.5000 0.5000
N1D N 0.6877(3) -0.1102(3) 0.6192(5)
N2 N 0.0000 0.1077(5) 0.7500
O1 O 0.1114(4) 0.1637(5) 0.8594(6)
O2 O 0.0000 -0.0083(5) 0.7500
O1A O -0.1114(4) 0.1637(5) 0.6406(6)
loop_
_geom_bond_atom_site_label_1
_geom_bond_atom_site_label_2
_geom_bond_site_symmetry_1
_geom_bond_site_symmetry_2
Ag1 N1 1_555 1_555
C1 H1 1_555 1_555
H2 C1 1_555 1_555
N1 C1 1_555 1_555
H3 N1 1_555 1_555
H4 N1 1_555 1_555
N2 O1 1_555 1_555
O2 N2 1_555 1_555
C1F C1 1_555 1_555
H1F C1F 1_555 1_555
H2F C1F 1_555 1_555
N1F C1F 1_555 1_555
H3F N1F 1_555 1_555
H4F N1F 1_555 1_555
Ag1A Ag1 1_555 1_555
Ag1A_2 Ag1 1_555 1_555
Ag1B N1F 1_555 1_555
N1D Ag1 1_555 1_555
O1A N2 1_555 1_555

#END
