
#######################################################################
#
#                 Cambridge Crystallographic Data Centre
#                                CCDC 
#
#######################################################################
#
# If this CIF has been generated from an entry in the Cambridge 
# Structural Database, then it will include bibliographic, chemical, 
# crystal, experimental, refinement or atomic coordinate data resulting 
# from the CCDC's data processing and validation procedures.
#
#######################################################################

data_MAGVOG18
_symmetry_cell_setting           monoclinic
_symmetry_space_group_name_H-M   'C 2/c'
_symmetry_Int_Tables_number      15
_space_group_name_Hall           '-C 2yn'
loop_
_symmetry_equiv_pos_site_id
_symmetry_equiv_pos_as_xyz
1 x,y,z
2 -x,y,1/2-z
3 1/2+x,1/2+y,z
4 1/2-x,1/2+y,1/2-z
5 -x,-y,-z
6 x,-y,1/2+z
7 1/2-x,1/2-y,-z
8 1/2+x,1/2-y,1/2+z
_cell_length_a                   10.4618(3)
_cell_length_b                   10.4947(2)
_cell_length_c                   6.3130(2)
_cell_angle_alpha                90
_cell_angle_beta                 115.318(4)
_cell_angle_gamma                90
_cell_volume                     626.55
loop_
_atom_site_label
_atom_site_type_symbol
_atom_site_fract_x
_atom_site_fract_y
_atom_site_fract_z
Ag1 Ag 0.5000 0.0000 0.5000
C1 C 0.3154(3) 0.2100(2) 0.5462(4)
H1 H 0.3968 0.2646 0.5817
H2 H 0.3258 0.1700 0.6912
N1 N 0.3140(2) 0.1109(2) 0.3817(4)
H3 H 0.3007 0.1482 0.2454
H4 H 0.2400 0.0589 0.3530
C1F C 0.1846(3) 0.2900(2) 0.4538(4)
H1F H 0.1032 0.2354 0.4183
H2F H 0.1742 0.3300 0.3088
N1F N 0.1860(2) 0.3891(2) 0.6183(4)
H3F H 0.1993 0.3518 0.7546
H4F H 0.2600 0.4411 0.6470
Ag1A Ag 0.5000 0.0000 0.0000
Ag1A_2 Ag 0.5000 0.0000 1.0000
Ag1B Ag 0.0000 0.5000 0.5000
N1D N 0.6860(2) -0.1109(2) 0.6183(4)
N2 N 0.0000 0.1095(4) 0.7500
O1 O 0.1101(3) 0.1636(4) 0.8586(5)
O2 O 0.0000 -0.0062(4) 0.7500
O1A O -0.1101(3) 0.1636(4) 0.6414(5)
loop_
_geom_bond_atom_site_label_1
_geom_bond_atom_site_label_2
_geom_bond_site_symmetry_1
_geom_bond_site_symmetry_2
Ag1 N1 1_555 1_555
C1 H1 1_555 1_555
H2 C1 1_555 1_555
N1 C1 1_555 1_555
H3 N1 1_555 1_555
H4 N1 1_555 1_555
N2 O1 1_555 1_555
O2 N2 1_555 1_555
C1F C1 1_555 1_555
H1F C1F 1_555 1_555
H2F C1F 1_555 1_555
N1F C1F 1_555 1_555
H3F N1F 1_555 1_555
H4F N1F 1_555 1_555
Ag1A Ag1 1_555 1_555
Ag1A_2 Ag1 1_555 1_555
Ag1B N1F 1_555 1_555
N1D Ag1 1_555 1_555
O1A N2 1_555 1_555

#END
