
#######################################################################
#
#                 Cambridge Crystallographic Data Centre
#                                CCDC 
#
#######################################################################
#
# If this CIF has been generated from an entry in the Cambridge 
# Structural Database, then it will include bibliographic, chemical, 
# crystal, experimental, refinement or atomic coordinate data resulting 
# from the CCDC's data processing and validation procedures.
#
#######################################################################

data_MAGVOG03
_symmetry_cell_setting           monoclinic
_symmetry_space_group_name_H-M   'C 2/c'
_symmetry_Int_Tables_number      15
_space_group_name_Hall           '-C 2yn'
loop_
_symmetry_equiv_pos_site_id
_symmetry_equiv_pos_as_xyz
1 x,y,z
2 -x,y,1/2-z
3 1/2+x,1/2+y,z
4 1/2-x,1/2+y,1/2-z
5 -x,-y,-z
6 x,-y,1/2+z
7 1/2-x,1/2-y,-z
8 1/2+x,1/2-y,1/2+z
_cell_length_a                   10.521(11)
_cell_length_b                   10.426(12)
_cell_length_c                   6.202(5)
_cell_angle_alpha                90
_cell_angle_beta                 115.00(9)
_cell_angle_gamma                90
_cell_volume                     616.57
loop_
_atom_site_label
_atom_site_type_symbol
_atom_site_fract_x
_atom_site_fract_y
_atom_site_fract_z
Ag1 Ag 0.5000 0.0000 0.5000
C1 C 0.3144(18) 0.2098(15) 0.546(2)
H1 H 0.3954 0.2634 0.5745
H2 H 0.3269 0.1713 0.6961
N1 N 0.3050(17) 0.1083(9) 0.376(2)
H3 H 0.2871 0.1436 0.2333
H4 H 0.2338 0.0551 0.3573
C1F C 0.1856(18) 0.2902(15) 0.454(2)
H1F H 0.1046 0.2366 0.4255
H2F H 0.1731 0.3287 0.3039
N1F N 0.1950(17) 0.3917(9) 0.624(2)
H3F H 0.2129 0.3564 0.7667
H4F H 0.2662 0.4449 0.6427
Ag1A Ag 0.5000 0.0000 0.0000
Ag1A_2 Ag 0.5000 0.0000 1.0000
Ag1B Ag 0.0000 0.5000 0.5000
N1D N 0.6950(17) -0.1083(9) 0.624(2)
N2 N 0.0000 0.1056(16) 0.7500
O1 O 0.1104(12) 0.1621(17) 0.860(3)
O2 O 0.0000 -0.0109(16) 0.7500
O1A O -0.1104(12) 0.1621(17) 0.640(3)
loop_
_geom_bond_atom_site_label_1
_geom_bond_atom_site_label_2
_geom_bond_site_symmetry_1
_geom_bond_site_symmetry_2
Ag1 N1 1_555 1_555
C1 H1 1_555 1_555
H2 C1 1_555 1_555
N1 C1 1_555 1_555
H3 N1 1_555 1_555
H4 N1 1_555 1_555
N2 O1 1_555 1_555
O2 N2 1_555 1_555
C1F C1 1_555 1_555
H1F C1F 1_555 1_555
H2F C1F 1_555 1_555
N1F C1F 1_555 1_555
H3F N1F 1_555 1_555
H4F N1F 1_555 1_555
Ag1A Ag1 1_555 1_555
Ag1A_2 Ag1 1_555 1_555
Ag1B N1F 1_555 1_555
N1D Ag1 1_555 1_555
O1A N2 1_555 1_555

#END
