
#######################################################################
#
#                 Cambridge Crystallographic Data Centre
#                                CCDC 
#
#######################################################################
#
# If this CIF has been generated from an entry in the Cambridge 
# Structural Database, then it will include bibliographic, chemical, 
# crystal, experimental, refinement or atomic coordinate data resulting 
# from the CCDC's data processing and validation procedures.
#
#######################################################################

data_MAGVOG07
_symmetry_cell_setting           monoclinic
_symmetry_space_group_name_H-M   'C 2/c'
_symmetry_Int_Tables_number      15
_space_group_name_Hall           '-C 2yn'
loop_
_symmetry_equiv_pos_site_id
_symmetry_equiv_pos_as_xyz
1 x,y,z
2 -x,y,1/2-z
3 1/2+x,1/2+y,z
4 1/2-x,1/2+y,1/2-z
5 -x,-y,-z
6 x,-y,1/2+z
7 1/2-x,1/2-y,-z
8 1/2+x,1/2-y,1/2+z
_cell_length_a                   20.862(7)
_cell_length_b                   19.931(6)
_cell_length_c                   6.1895(17)
_cell_angle_alpha                90
_cell_angle_beta                 114.55(3)
_cell_angle_gamma                90
_cell_volume                     2340.94
loop_
_atom_site_label
_atom_site_type_symbol
_atom_site_fract_x
_atom_site_fract_y
_atom_site_fract_z
Ag1 Ag 0.5000 0.0000 0.0000
Ag2 Ag 0.7500 0.2500 0.0000
Ag3 Ag 0.7500 0.2500 0.5000
Ag4 Ag 1.0000 0.0000 0.5000
N1 N 0.5923(14) 0.0492(8) 0.104(3)
H1 H 0.6059 0.0639 0.2536
H2 H 0.6257 0.0211 0.1000
N2 N 0.6473(18) 0.2026(11) -0.135(4)
H3 H 0.6146 0.2319 -0.1338
H4 H 0.6349 0.1885 -0.2848
N3 N 0.8478(12) 0.1960(8) 0.617(3)
H5 H 0.8831 0.2236 0.6267
H6 H 0.8587 0.1776 0.7607
N4 N 0.9001(14) 0.0575(9) 0.358(4)
H7 H 0.8932 0.0766 0.2180
H8 H 0.8634 0.0304 0.3353
C1 C 0.5845(8) 0.1059(7) -0.054(3)
H9 H 0.5475 0.1352 -0.0533
H10 H 0.5709 0.0897 -0.2148
C2 C 0.6524(9) 0.1449(8) 0.023(3)
H11 H 0.6656 0.1612 0.1834
H12 H 0.6894 0.1150 0.0252
C3 C 0.8369(8) 0.1442(7) 0.440(2)
H13 H 0.8262 0.1635 0.2847
H14 H 0.7994 0.1138 0.4289
C4 C 0.9075(9) 0.1095(8) 0.538(3)
H15 H 0.9450 0.1407 0.5554
H16 H 0.9173 0.0893 0.6911
N1D N 0.4077(14) -0.0492(8) -0.104(3)
H1D H 0.3941 -0.0639 -0.2536
H2D H 0.3743 -0.0211 -0.1000
N2D N 0.3527(18) -0.2026(11) 0.135(4)
H3D H 0.3854 -0.2319 0.1338
H4D H 0.3651 -0.1885 0.2848
C1D C 0.4155(8) -0.1059(7) 0.054(3)
H9D H 0.4525 -0.1352 0.0533
H10D H 0.4291 -0.0897 0.2148
C2D C 0.3476(9) -0.1449(8) -0.023(3)
H11D H 0.3344 -0.1612 -0.1834
H12D H 0.3106 -0.1150 -0.0252
N3F N 0.6522(12) 0.3040(8) 0.383(3)
H5F H 0.6169 0.2764 0.3733
H6F H 0.6413 0.3224 0.2393
N4F N 0.5999(14) 0.4425(9) 0.642(4)
H7F H 0.6068 0.4234 0.7820
H8F H 0.6366 0.4696 0.6647
C3F C 0.6631(8) 0.3558(7) 0.560(2)
H13F H 0.6738 0.3365 0.7153
H14F H 0.7006 0.3862 0.5711
C4F C 0.5925(9) 0.3905(8) 0.462(3)
H15F H 0.5550 0.3593 0.4446
H16F H 0.5827 0.4107 0.3089
Ag1A Ag 0.5000 0.0000 -0.5000
Ag1A_2 Ag 0.5000 0.0000 0.5000
Ag2_2 Ag 0.7500 0.2500 1.0000
Ag2B Ag 0.2500 -0.2500 0.0000
Ag3_2 Ag 0.7500 0.2500 -0.5000
Ag4A Ag 1.0000 0.0000 0.0000
Ag4A_2 Ag 1.0000 0.0000 1.0000
Ag4B Ag 0.5000 0.5000 0.5000
N2F N 0.8527(18) 0.2974(11) 0.135(4)
N4D N 1.0999(14) -0.0575(9) 0.642(4)
N5 N 0.7512(9) 0.0702(8) 0.741(3)
O1 O 0.8053(9) 0.1009(11) 0.825(3)
O2 O 0.6958(9) 0.0984(11) 0.650(3)
O3 O 0.7527(14) 0.0092(8) 0.749(4)
N6 N 0.0000 0.3147(11) 0.7500
O4 O 0.0565(5) 0.3432(10) 0.823(3)
O5 O 0.0000 0.2540(10) 0.7500
O4A O -0.0565(5) 0.3432(10) 0.677(3)
N7 N 0.0000 0.8286(3) 0.7500
O6 O 0.0554(6) 0.8579(10) 0.8428(5)
O7 O 0.0000 0.7678(3) 0.7500
O6A O -0.0554(6) 0.8579(10) 0.6572(5)
loop_
_geom_bond_atom_site_label_1
_geom_bond_atom_site_label_2
_geom_bond_site_symmetry_1
_geom_bond_site_symmetry_2
Ag1 N1 1_555 1_555
Ag2 Ag3 1_555 1_555
Ag3 N3 1_555 1_555
Ag4 N4 1_555 1_555
N1 H1 1_555 1_555
H2 N1 1_555 1_555
N2 Ag2 1_555 1_555
H3 N2 1_555 1_555
H4 N2 1_555 1_555
N3 H5 1_555 1_555
H6 N3 1_555 1_555
N4 H7 1_555 1_555
H8 N4 1_555 1_555
C1 N1 1_555 1_555
H9 C1 1_555 1_555
H10 C1 1_555 1_555
C2 N2 1_555 1_555
H11 C2 1_555 1_555
H12 C2 1_555 1_555
C3 N3 1_555 1_555
H13 C3 1_555 1_555
H14 C3 1_555 1_555
C4 N4 1_555 1_555
H15 C4 1_555 1_555
H16 C4 1_555 1_555
N5 O1 1_555 1_555
O2 N5 1_555 1_555
O3 N5 1_555 1_555
N6 O4 1_555 1_555
O5 N6 1_555 1_555
N7 O6 1_555 1_555
O7 N7 1_555 1_555
N1D Ag1 1_555 1_555
H1D N1D 1_555 1_555
H2D N1D 1_555 1_555
N2D H3D 1_555 1_555
H4D N2D 1_555 1_555
C1D N1D 1_555 1_555
H9D C1D 1_555 1_555
H10D C1D 1_555 1_555
C2D N2D 1_555 1_555
H11D C2D 1_555 1_555
H12D C2D 1_555 1_555
N3F Ag3 1_555 1_555
H5F N3F 1_555 1_555
H6F N3F 1_555 1_555
N4F H7F 1_555 1_555
H8F N4F 1_555 1_555
C3F N3F 1_555 1_555
H13F C3F 1_555 1_555
H14F C3F 1_555 1_555
C4F N4F 1_555 1_555
H15F C4F 1_555 1_555
H16F C4F 1_555 1_555
Ag1A Ag1 1_555 1_555
Ag1A_2 Ag1 1_555 1_555
Ag2_2 Ag3 1_555 1_555
Ag2B N2D 1_555 1_555
Ag3_2 Ag2 1_555 1_555
Ag4A Ag4 1_555 1_555
Ag4A_2 Ag4 1_555 1_555
Ag4B N4F 1_555 1_555
N2F Ag2 1_555 1_555
N4D Ag4 1_555 1_555
O4A N6 1_555 1_555
O6A N7 1_555 1_555
C1 C2 1_555 1_555
C3 C4 1_555 1_555
C1D C2D 1_555 1_555
C3F C4F 1_555 1_555

#END
