
#######################################################################
#
#                 Cambridge Crystallographic Data Centre
#                                CCDC 
#
#######################################################################
#
# If this CIF has been generated from an entry in the Cambridge 
# Structural Database, then it will include bibliographic, chemical, 
# crystal, experimental, refinement or atomic coordinate data resulting 
# from the CCDC's data processing and validation procedures.
#
#######################################################################

data_MAGVOG28
_symmetry_cell_setting           monoclinic
_symmetry_space_group_name_H-M   'C 2/c'
_symmetry_Int_Tables_number      15
_space_group_name_Hall           '-C 2yn'
loop_
_symmetry_equiv_pos_site_id
_symmetry_equiv_pos_as_xyz
1 x,y,z
2 -x,y,1/2-z
3 1/2+x,1/2+y,z
4 1/2-x,1/2+y,1/2-z
5 -x,-y,-z
6 x,-y,1/2+z
7 1/2-x,1/2-y,-z
8 1/2+x,1/2-y,1/2+z
_cell_length_a                   10.2997(4)
_cell_length_b                   10.6107(3)
_cell_length_c                   6.2430(3)
_cell_angle_alpha                90
_cell_angle_beta                 114.713(5)
_cell_angle_gamma                90
_cell_volume                     619.791
loop_
_atom_site_label
_atom_site_type_symbol
_atom_site_fract_x
_atom_site_fract_y
_atom_site_fract_z
Ag1 Ag 0.5000 0.0000 0.5000
C1 C 0.3174(3) 0.2109(2) 0.5455(5)
H1 H 0.3993 0.2655 0.5712
H2 H 0.3319 0.1737 0.6975
N1 N 0.3112(2) 0.1095(2) 0.3803(4)
H3 H 0.2959 0.1442 0.2384
H4 H 0.2358 0.0583 0.3583
C1F C 0.1826(3) 0.2891(2) 0.4545(5)
H1F H 0.1007 0.2345 0.4288
H2F H 0.1681 0.3263 0.3025
N1F N 0.1888(2) 0.3905(2) 0.6197(4)
H3F H 0.2041 0.3558 0.7616
H4F H 0.2642 0.4417 0.6417
Ag1A Ag 0.5000 0.0000 0.0000
Ag1A_2 Ag 0.5000 0.0000 1.0000
Ag1B Ag 0.0000 0.5000 0.5000
N1D N 0.6888(2) -0.1095(2) 0.6197(4)
N2 N 0.0000 0.1069(4) 0.7500
O1 O 0.1127(3) 0.1648(4) 0.8594(5)
O2 O 0.0000 -0.0084(4) 0.7500
O1A O -0.1127(3) 0.1648(4) 0.6406(5)
loop_
_geom_bond_atom_site_label_1
_geom_bond_atom_site_label_2
_geom_bond_site_symmetry_1
_geom_bond_site_symmetry_2
Ag1 N1 1_555 1_555
C1 H1 1_555 1_555
H2 C1 1_555 1_555
N1 C1 1_555 1_555
H3 N1 1_555 1_555
H4 N1 1_555 1_555
N2 O1 1_555 1_555
O2 N2 1_555 1_555
C1F C1 1_555 1_555
H1F C1F 1_555 1_555
H2F C1F 1_555 1_555
N1F C1F 1_555 1_555
H3F N1F 1_555 1_555
H4F N1F 1_555 1_555
Ag1A Ag1 1_555 1_555
Ag1A_2 Ag1 1_555 1_555
Ag1B N1F 1_555 1_555
N1D Ag1 1_555 1_555
O1A N2 1_555 1_555

#END
