
#######################################################################
#
#                 Cambridge Crystallographic Data Centre
#                                CCDC 
#
#######################################################################
#
# If this CIF has been generated from an entry in the Cambridge 
# Structural Database, then it will include bibliographic, chemical, 
# crystal, experimental, refinement or atomic coordinate data resulting 
# from the CCDC's data processing and validation procedures.
#
#######################################################################

data_MAGVOG22
_symmetry_cell_setting           monoclinic
_symmetry_space_group_name_H-M   'C 2/c'
_symmetry_Int_Tables_number      15
_space_group_name_Hall           '-C 2yn'
loop_
_symmetry_equiv_pos_site_id
_symmetry_equiv_pos_as_xyz
1 x,y,z
2 -x,y,1/2-z
3 1/2+x,1/2+y,z
4 1/2-x,1/2+y,1/2-z
5 -x,-y,-z
6 x,-y,1/2+z
7 1/2-x,1/2-y,-z
8 1/2+x,1/2-y,1/2+z
_cell_length_a                   10.1645(8)
_cell_length_b                   10.7048(6)
_cell_length_c                   6.2049(6)
_cell_angle_alpha                90
_cell_angle_beta                 114.277(11)
_cell_angle_gamma                90
_cell_volume                     615.444
loop_
_atom_site_label
_atom_site_type_symbol
_atom_site_fract_x
_atom_site_fract_y
_atom_site_fract_z
Ag1 Ag 0.5000 0.0000 0.5000
C1 C 0.3180(5) 0.2113(5) 0.5440(10)
H1 H 0.4010 0.2658 0.5652
H2 H 0.3344 0.1755 0.7001
N1 N 0.3105(5) 0.1088(5) 0.3797(8)
H3 H 0.2948 0.1422 0.2345
H4 H 0.2333 0.0582 0.3603
C1F C 0.1820(5) 0.2887(5) 0.4560(10)
H1F H 0.0990 0.2342 0.4348
H2F H 0.1656 0.3245 0.2999
N1F N 0.1895(5) 0.3912(5) 0.6203(8)
H3F H 0.2052 0.3578 0.7655
H4F H 0.2667 0.4418 0.6397
Ag1A Ag 0.5000 0.0000 0.0000
Ag1A_2 Ag 0.5000 0.0000 1.0000
Ag1B Ag 0.0000 0.5000 0.5000
N1D N 0.6895(5) -0.1088(5) 0.6203(8)
N2 N 0.0000 0.1051(7) 0.7500
O1 O 0.1138(5) 0.1649(6) 0.8591(9)
O2 O 0.0000 -0.0097(7) 0.7500
O1A O -0.1138(5) 0.1649(6) 0.6409(9)
loop_
_geom_bond_atom_site_label_1
_geom_bond_atom_site_label_2
_geom_bond_site_symmetry_1
_geom_bond_site_symmetry_2
Ag1 N1 1_555 1_555
C1 H1 1_555 1_555
H2 C1 1_555 1_555
N1 C1 1_555 1_555
H3 N1 1_555 1_555
H4 N1 1_555 1_555
N2 O1 1_555 1_555
O2 N2 1_555 1_555
C1F C1 1_555 1_555
H1F C1F 1_555 1_555
H2F C1F 1_555 1_555
N1F C1F 1_555 1_555
H3F N1F 1_555 1_555
H4F N1F 1_555 1_555
Ag1A Ag1 1_555 1_555
Ag1A_2 Ag1 1_555 1_555
Ag1B N1F 1_555 1_555
N1D Ag1 1_555 1_555
O1A N2 1_555 1_555

#END
