
#######################################################################
#
#                 Cambridge Crystallographic Data Centre
#                                CCDC 
#
#######################################################################
#
# If this CIF has been generated from an entry in the Cambridge 
# Structural Database, then it will include bibliographic, chemical, 
# crystal, experimental, refinement or atomic coordinate data resulting 
# from the CCDC's data processing and validation procedures.
#
#######################################################################

data_MAGVOG10
_symmetry_cell_setting           monoclinic
_symmetry_space_group_name_H-M   'C 2/c'
_symmetry_Int_Tables_number      15
_space_group_name_Hall           '-C 2yn'
loop_
_symmetry_equiv_pos_site_id
_symmetry_equiv_pos_as_xyz
1 x,y,z
2 -x,y,1/2-z
3 1/2+x,1/2+y,z
4 1/2-x,1/2+y,1/2-z
5 -x,-y,-z
6 x,-y,1/2+z
7 1/2-x,1/2-y,-z
8 1/2+x,1/2-y,1/2+z
_cell_length_a                   20.855(5)
_cell_length_b                   19.600(5)
_cell_length_c                   6.0409(9)
_cell_angle_alpha                90
_cell_angle_beta                 114.215(18)
_cell_angle_gamma                90
_cell_volume                     2252
loop_
_atom_site_label
_atom_site_type_symbol
_atom_site_fract_x
_atom_site_fract_y
_atom_site_fract_z
Ag1 Ag 0.5000 0.0000 0.0000
Ag2 Ag 0.7500 0.2500 0.0000
Ag3 Ag 0.7500 0.2500 0.5000
Ag4 Ag 1.0000 0.0000 0.5000
N1 N 0.606(2) 0.0519(12) 0.122(5)
H1 H 0.6209 0.0654 0.2770
H2 H 0.6379 0.0228 0.1100
N2 N 0.659(3) 0.2085(18) -0.126(7)
H3 H 0.6264 0.2379 -0.1217
H4 H 0.6467 0.1950 -0.2809
N3 N 0.8522(6) 0.2000(10) 0.621(4)
H5 H 0.8847 0.2288 0.6124
H6 H 0.8665 0.1853 0.7754
N4 N 0.9030(7) 0.0504(11) 0.390(2)
H7 H 0.8886 0.0647 0.2355
H8 H 0.8703 0.0218 0.3985
C1 C 0.5974(17) 0.1105(11) -0.036(5)
H9 H 0.5621 0.1408 -0.0245
H10 H 0.5810 0.0952 -0.2028
C2 C 0.6656(19) 0.1489(15) 0.033(5)
H11 H 0.6815 0.1644 0.1995
H12 H 0.7009 0.1181 0.0247
C3 C 0.8407(7) 0.1429(9) 0.455(3)
H13 H 0.8270 0.1583 0.2897
H14 H 0.8051 0.1120 0.4617
C4 C 0.9121(7) 0.1098(11) 0.554(3)
H15 H 0.9475 0.1409 0.5474
H16 H 0.9257 0.0950 0.7200
N1D N 0.394(2) -0.0519(12) -0.122(5)
H1D H 0.3791 -0.0654 -0.2770
H2D H 0.3621 -0.0228 -0.1100
N2D N 0.341(3) -0.2085(18) 0.126(7)
H3D H 0.3736 -0.2379 0.1217
H4D H 0.3533 -0.1950 0.2809
C1D C 0.4026(17) -0.1105(11) 0.036(5)
H9D H 0.4379 -0.1408 0.0245
H10D H 0.4190 -0.0952 0.2028
C2D C 0.3344(19) -0.1489(15) -0.033(5)
H11D H 0.3185 -0.1644 -0.1995
H12D H 0.2991 -0.1181 -0.0247
N3F N 0.6478(6) 0.3000(10) 0.379(4)
H5F H 0.6153 0.2712 0.3876
H6F H 0.6335 0.3147 0.2246
N4F N 0.5970(7) 0.4496(11) 0.610(2)
H7F H 0.6114 0.4353 0.7645
H8F H 0.6297 0.4782 0.6015
C3F C 0.6593(7) 0.3571(9) 0.545(3)
H13F H 0.6730 0.3417 0.7103
H14F H 0.6949 0.3880 0.5383
C4F C 0.5879(7) 0.3902(11) 0.446(3)
H15F H 0.5525 0.3591 0.4526
H16F H 0.5743 0.4050 0.2800
Ag1A Ag 0.5000 0.0000 -0.5000
Ag1A_2 Ag 0.5000 0.0000 0.5000
Ag2_2 Ag 0.7500 0.2500 1.0000
Ag2B Ag 0.2500 -0.2500 0.0000
Ag3_2 Ag 0.7500 0.2500 -0.5000
Ag4A Ag 1.0000 0.0000 0.0000
Ag4A_2 Ag 1.0000 0.0000 1.0000
Ag4B Ag 0.5000 0.5000 0.5000
N2F N 0.841(3) 0.2915(18) 0.126(7)
N4D N 1.0970(7) -0.0504(11) 0.610(2)
N5 N 0.7522(9) 0.0672(6) 0.752(2)
O1 O 0.8052(9) 0.0972(7) 0.877(3)
O2 O 0.6986(10) 0.0984(11) 0.647(4)
O3 O 0.7515(13) 0.0058(6) 0.753(4)
N6 N 0.0000 0.3144(4) 0.7500
O4 O 0.0609(6) 0.3384(14) 0.8665(4)
O5 O 0.0000 0.2516(3) 0.7500
O4A O -0.0609(6) 0.3384(14) 0.6335(4)
N7 N 0.0000 0.8250(3) 0.7500
O6 O 0.0535(8) 0.8551(16) 0.8658(5)
O7 O 0.0000 0.7632(3) 0.7500
O6A O -0.0535(8) 0.8551(16) 0.6342(5)
loop_
_geom_bond_atom_site_label_1
_geom_bond_atom_site_label_2
_geom_bond_site_symmetry_1
_geom_bond_site_symmetry_2
Ag1 N1 1_555 1_555
Ag2 Ag3 1_555 1_555
Ag3 N3 1_555 1_555
Ag4 N4 1_555 1_555
N1 H1 1_555 1_555
H2 N1 1_555 1_555
N2 Ag2 1_555 1_555
H3 N2 1_555 1_555
H4 N2 1_555 1_555
N3 H5 1_555 1_555
H6 N3 1_555 1_555
N4 H7 1_555 1_555
H8 N4 1_555 1_555
C1 N1 1_555 1_555
H9 C1 1_555 1_555
H10 C1 1_555 1_555
C2 N2 1_555 1_555
H11 C2 1_555 1_555
H12 C2 1_555 1_555
C3 N3 1_555 1_555
H13 C3 1_555 1_555
H14 C3 1_555 1_555
C4 N4 1_555 1_555
H15 C4 1_555 1_555
H16 C4 1_555 1_555
N5 O1 1_555 1_555
O2 N5 1_555 1_555
O3 N5 1_555 1_555
N6 O4 1_555 1_555
O5 N6 1_555 1_555
N7 O6 1_555 1_555
O7 N7 1_555 1_555
N1D Ag1 1_555 1_555
H1D N1D 1_555 1_555
H2D N1D 1_555 1_555
N2D H3D 1_555 1_555
H4D N2D 1_555 1_555
C1D N1D 1_555 1_555
H9D C1D 1_555 1_555
H10D C1D 1_555 1_555
C2D N2D 1_555 1_555
H11D C2D 1_555 1_555
H12D C2D 1_555 1_555
N3F Ag3 1_555 1_555
H5F N3F 1_555 1_555
H6F N3F 1_555 1_555
N4F H7F 1_555 1_555
H8F N4F 1_555 1_555
C3F N3F 1_555 1_555
H13F C3F 1_555 1_555
H14F C3F 1_555 1_555
C4F N4F 1_555 1_555
H15F C4F 1_555 1_555
H16F C4F 1_555 1_555
Ag1A Ag1 1_555 1_555
Ag1A_2 Ag1 1_555 1_555
Ag2_2 Ag3 1_555 1_555
Ag2B N2D 1_555 1_555
Ag3_2 Ag2 1_555 1_555
Ag4A Ag4 1_555 1_555
Ag4A_2 Ag4 1_555 1_555
Ag4B N4F 1_555 1_555
N2F Ag2 1_555 1_555
N4D Ag4 1_555 1_555
O4A N6 1_555 1_555
O6A N7 1_555 1_555
C1 C2 1_555 1_555
C3 C4 1_555 1_555
C1D C2D 1_555 1_555
C3F C4F 1_555 1_555

#END
