
#######################################################################
#
#                 Cambridge Crystallographic Data Centre
#                                CCDC 
#
#######################################################################
#
# If this CIF has been generated from an entry in the Cambridge 
# Structural Database, then it will include bibliographic, chemical, 
# crystal, experimental, refinement or atomic coordinate data resulting 
# from the CCDC's data processing and validation procedures.
#
#######################################################################

data_MAHPOA
_symmetry_cell_setting           orthorhombic
_symmetry_space_group_name_H-M   'I m m m'
_symmetry_Int_Tables_number      71
_space_group_name_Hall           '-I 2 2'
loop_
_symmetry_equiv_pos_site_id
_symmetry_equiv_pos_as_xyz
1 x,y,z
2 -x,-y,z
3 x,-y,-z
4 -x,y,-z
5 1/2+x,1/2+y,1/2+z
6 1/2-x,1/2-y,1/2+z
7 1/2+x,1/2-y,1/2-z
8 1/2-x,1/2+y,1/2-z
9 -x,-y,-z
10 x,y,-z
11 -x,y,z
12 x,-y,z
13 1/2-x,1/2-y,1/2-z
14 1/2+x,1/2+y,1/2-z
15 1/2-x,1/2+y,1/2+z
16 1/2+x,1/2-y,1/2+z
_cell_length_a                   5.3030(11)
_cell_length_b                   10.955(2)
_cell_length_c                   11.257(2)
_cell_angle_alpha                90
_cell_angle_beta                 90
_cell_angle_gamma                90
_cell_volume                     653.968
loop_
_atom_site_label
_atom_site_type_symbol
_atom_site_fract_x
_atom_site_fract_y
_atom_site_fract_z
Ni1 Ni 0.0000 0.5000 0.5000
O1 O -0.2906(3) 0.62308(15) 0.5000
N1 N 0.0000 0.5000 0.3144(3)
C1 C -0.5000 0.5715(3) 0.5000
C2 C 0.0000 0.3979(3) 0.2521(4)
C3 C 0.0000 0.3941(3) 0.1306(3)
C4 C 0.0000 0.5000 0.0651(4)
O1A O 0.2906(3) 0.37692(15) 0.5000
O1B O -0.2906(3) 0.37692(15) 0.5000
O1C O 0.2906(3) 0.62308(15) 0.5000
N1B N 0.0000 0.5000 0.6856(3)
C2A C 0.0000 0.6021(3) 0.2521(4)
C1A C -0.5000 0.4285(3) 0.5000
O1C_2 O -0.7094(3) 0.62308(15) 0.5000
C4B C 0.0000 0.5000 -0.0651(4)
C3A C 0.0000 0.6059(3) 0.1306(3)
O1A_2 O -0.7094(3) 0.37692(15) 0.5000
Ni1_2 Ni -1.0000 0.5000 0.5000
C3B C 0.0000 0.6059(3) -0.1306(3)
C3C C 0.0000 0.3941(3) -0.1306(3)
C2B C 0.0000 0.6021(3) -0.2521(4)
C2C C 0.0000 0.3979(3) -0.2521(4)
N1B_2 N 0.0000 0.5000 -0.3144(3)
Ni1_3 Ni 0.0000 0.5000 -0.5000
loop_
_geom_bond_atom_site_label_1
_geom_bond_atom_site_label_2
_geom_bond_site_symmetry_1
_geom_bond_site_symmetry_2
Ni1 O1 1_555 1_555
O1 C1 1_555 1_555
N1 Ni1 1_555 1_555
C1 C1A 1_555 1_555
C2 N1 1_555 1_555
C3 C2 1_555 1_555
C4 C3 1_555 1_555
O1A Ni1 1_555 1_555
O1B Ni1 1_555 1_555
O1C Ni1 1_555 1_555
N1B Ni1 1_555 1_555
C2A N1 1_555 1_555
C1A O1B 1_555 1_555
O1C_2 C1 1_555 1_555
C4B C4 1_555 1_555
C3A C4 1_555 1_555
O1A_2 C1A 1_555 1_555
Ni1_2 O1C_2 1_555 1_555
C3B C4B 1_555 1_555
C3C C4B 1_555 1_555
C2B C3B 1_555 1_555
C2C C3C 1_555 1_555
N1B_2 C2B 1_555 1_555
Ni1_3 N1B_2 1_555 1_555
C2A C3A 1_555 1_555
O1A_2 Ni1_2 1_555 1_555
C2C N1B_2 1_555 1_555

#END
