
#######################################################################
#
#                 Cambridge Crystallographic Data Centre
#                                CCDC 
#
#######################################################################
#
# If this CIF has been generated from an entry in the Cambridge 
# Structural Database, then it will include bibliographic, chemical, 
# crystal, experimental, refinement or atomic coordinate data resulting 
# from the CCDC's data processing and validation procedures.
#
#######################################################################

data_MAKSUO
_symmetry_cell_setting           monoclinic
_symmetry_space_group_name_H-M   'C 2/c'
_symmetry_Int_Tables_number      15
_space_group_name_Hall           '-C 2yn'
loop_
_symmetry_equiv_pos_site_id
_symmetry_equiv_pos_as_xyz
1 x,y,z
2 -x,y,1/2-z
3 1/2+x,1/2+y,z
4 1/2-x,1/2+y,1/2-z
5 -x,-y,-z
6 x,-y,1/2+z
7 1/2-x,1/2-y,-z
8 1/2+x,1/2-y,1/2+z
_cell_length_a                   35.663(4)
_cell_length_b                   10.058(7)
_cell_length_c                   16.679(2)
_cell_angle_alpha                90
_cell_angle_beta                 106.879(9)
_cell_angle_gamma                90
_cell_volume                     5725
loop_
_atom_site_label
_atom_site_type_symbol
_atom_site_fract_x
_atom_site_fract_y
_atom_site_fract_z
Cd1 Cd 0.79081(2) 0.20175(8) 0.12243(5)
Cd2 Cd 1.15312(2) 0.96546(8) 0.21794(5)
C1 C 0.8889(4) 0.1521(14) 0.2022(7)
C2 C 0.9173(3) 0.2277(12) 0.1685(7)
C3 C 0.9107(3) 0.3636(13) 0.1465(7)
H1 H 0.8871 0.4036 0.1459
C4 C 0.9394(3) 0.4364(13) 0.1259(8)
C5 C 0.9740(4) 0.3779(14) 0.1244(8)
C6 C 0.9808(4) 0.2423(14) 0.1416(9)
H2 H 1.0035 0.2010 0.1376
C7 C 0.9521(4) 0.1723(13) 0.1651(8)
H3 H 0.9566 0.0831 0.1793
C8 C 0.9058(4) 0.6534(14) 0.1174(8)
H4 H 0.9143 0.7015 0.1700
H5 H 0.8832 0.5998 0.1173
C9 C 0.8959(3) 0.7479(13) 0.0453(8)
C10 C 0.8949(3) 0.8859(13) 0.0543(7)
H6 H 0.9014 0.9229 0.1076
C11 C 0.8844(4) 0.9671(13) -0.0142(7)
H7 H 0.8827 1.0582 -0.0063
C12 C 0.8770(4) 0.7877(13) -0.1016(8)
H8 H 0.8704 0.7530 -0.1556
C13 C 0.8868(3) 0.7025(12) -0.0353(7)
H9 H 0.8872 0.6116 -0.0451
C14 C 1.0404(4) 0.4266(13) 0.1287(10)
H10 H 1.0457 0.3723 0.0851
H11 H 1.0465 0.3747 0.1798
C15 C 1.0657(3) 0.5508(14) 0.1424(8)
C16 C 1.1047(4) 0.5398(13) 0.1812(8)
H12 H 1.1157 0.4569 0.1982
C17 C 1.1283(3) 0.6533(12) 0.1954(8)
H13 H 1.1552 0.6440 0.2198
C18 C 1.0742(4) 0.7829(14) 0.1390(9)
H14 H 1.0631 0.8667 0.1264
C19 C 1.0506(4) 0.6752(13) 0.1205(9)
H15 H 1.0240 0.6855 0.0930
C20 C 0.7887(3) 0.4239(12) -0.0011(7)
C21 C 0.7902(3) 0.5663(12) -0.0247(7)
C22 C 0.7986(3) 0.6629(12) 0.0377(7)
H16 H 0.8035 0.6378 0.0935
C23 C 0.7996(3) 0.7993(11) 0.0171(6)
C24 C 0.7924(3) 0.8352(11) -0.0658(7)
H17 H 0.7922 0.9247 -0.0799
C25 C 0.7857(3) 0.7407(12) -0.1282(7)
C26 C 0.7842(3) 0.6052(12) -0.1065(7)
H18 H 0.7792 0.5411 -0.1485
C27 C 0.8080(3) 0.9015(11) 0.0862(7)
C28 C 0.7838(3) 0.7751(12) -0.2165(6)
N1 N 1.1135(3) 0.7743(11) 0.1751(6)
N2 N 0.8766(3) 0.9199(11) -0.0917(6)
O1 O 0.8574(2) 0.2104(10) 0.2024(5)
O2 O 0.8986(3) 0.0383(10) 0.2320(6)
O3 O 0.9368(3) 0.5712(10) 0.1067(7)
O4 O 1.0008(2) 0.4635(9) 0.1051(6)
O5 O 0.8025(3) 0.3958(8) 0.0751(5)
O6 O 0.7752(2) 0.3370(8) -0.0570(5)
O7 O 0.8179(2) 0.8651(8) 0.1599(4)
O8 O 0.8038(2) 1.0220(8) 0.0615(5)
O9 O 0.7909(2) 0.8925(8) -0.2360(5)
O10 O 0.7753(2) 0.6864(8) -0.2718(5)
O11 O 1.1954(2) 0.8458(9) 0.1560(5)
Cd1F Cd 0.70919(2) 0.29825(8) -0.12243(5)
Cd1_2 Cd 0.79081(2) 1.20175(8) 0.12243(5)
Cd1E Cd 0.79081(2) 0.79825(8) -0.37757(5)
Cd2D Cd 0.84688(2) 1.03454(8) -0.21794(5)
Cd2A Cd 0.84688(2) -0.03454(8) 0.28206(5)
Cd2A_2 Cd 0.84688(2) 0.96546(8) 0.28206(5)
N2D N 1.1234(3) 1.0801(11) 0.0917(6)
O2A O 1.1014(3) 1.0383(10) 0.2680(6)
O6F O 0.7248(2) 0.1630(8) 0.0570(5)
O7A O 1.1821(2) 0.8651(8) 0.3401(4)
O8_2 O 0.8038(2) 0.0220(8) 0.0615(5)
O9E O 0.7909(2) 0.1075(8) 0.2640(5)
O9D O 1.2091(2) 1.1075(8) 0.2360(5)
O10E O 0.7753(2) 0.3136(8) 0.2282(5)
loop_
_geom_bond_atom_site_label_1
_geom_bond_atom_site_label_2
_geom_bond_site_symmetry_1
_geom_bond_site_symmetry_2
Cd1 O1 1_555 1_555
Cd2 N1 1_555 1_555
C1 C2 1_555 1_555
C2 C3 1_555 1_555
C3 H1 1_555 1_555
C4 C3 1_555 1_555
C5 C4 1_555 1_555
C6 C5 1_555 1_555
H2 C6 1_555 1_555
C7 C2 1_555 1_555
H3 C7 1_555 1_555
C8 H4 1_555 1_555
H5 C8 1_555 1_555
C9 C8 1_555 1_555
C10 C9 1_555 1_555
H6 C10 1_555 1_555
C11 C10 1_555 1_555
H7 C11 1_555 1_555
C12 H8 1_555 1_555
C13 C9 1_555 1_555
H9 C13 1_555 1_555
C14 H10 1_555 1_555
H11 C14 1_555 1_555
C15 C14 1_555 1_555
C16 C15 1_555 1_555
H12 C16 1_555 1_555
C17 C16 1_555 1_555
H13 C17 1_555 1_555
C18 H14 1_555 1_555
C19 C15 1_555 1_555
H15 C19 1_555 1_555
C20 C21 1_555 1_555
C21 C22 1_555 1_555
C22 H16 1_555 1_555
C23 C22 1_555 1_555
C24 C23 1_555 1_555
H17 C24 1_555 1_555
C25 C24 1_555 1_555
C26 C21 1_555 1_555
H18 C26 1_555 1_555
C27 C23 1_555 1_555
C28 C25 1_555 1_555
N1 C17 1_555 1_555
N2 C11 1_555 1_555
O1 C1 1_555 1_555
O2 C1 1_555 1_555
O3 C4 1_555 1_555
O4 C5 1_555 1_555
O5 Cd1 1_555 1_555
O6 C20 1_555 1_555
O7 C27 1_555 1_555
O8 C27 1_555 1_555
O9 C28 1_555 1_555
O10 C28 1_555 1_555
O11 Cd2 1_555 1_555
Cd1F O6 1_555 1_555
Cd1_2 O8 1_555 1_555
Cd1E O9 1_555 1_555
Cd2D N2 1_555 1_555
Cd2A O2 1_555 1_555
Cd2A_2 O7 1_555 1_555
N2D Cd2 1_555 1_555
O2A Cd2 1_555 1_555
O6F Cd1 1_555 1_555
O7A Cd2 1_555 1_555
O8_2 Cd1 1_555 1_555
O9E Cd1 1_555 1_555
O9D Cd2 1_555 1_555
O10E Cd1 1_555 1_555
C6 C7 1_555 1_555
C8 O3 1_555 1_555
C12 C13 1_555 1_555
C12 N2 1_555 1_555
C14 O4 1_555 1_555
C18 C19 1_555 1_555
C18 N1 1_555 1_555
C20 O5 1_555 1_555
C25 C26 1_555 1_555
O9 Cd2D 1_555 1_555
O10 Cd1E 1_555 1_555
Cd2A O9E 1_555 1_555

#END
