
#######################################################################
#
#                 Cambridge Crystallographic Data Centre
#                                CCDC 
#
#######################################################################
#
# If this CIF has been generated from an entry in the Cambridge 
# Structural Database, then it will include bibliographic, chemical, 
# crystal, experimental, refinement or atomic coordinate data resulting 
# from the CCDC's data processing and validation procedures.
#
#######################################################################

data_MALYOP
_symmetry_cell_setting           monoclinic
_symmetry_space_group_name_H-M   'P 21/c'
_symmetry_Int_Tables_number      14
_space_group_name_Hall           '-P 2ybc'
loop_
_symmetry_equiv_pos_site_id
_symmetry_equiv_pos_as_xyz
1 x,y,z
2 -x,1/2+y,1/2-z
3 -x,-y,-z
4 x,1/2-y,1/2+z
_cell_length_a                   15.4828(15)
_cell_length_b                   24.962(2)
_cell_length_c                   22.355(2)
_cell_angle_alpha                90
_cell_angle_beta                 99.575(6)
_cell_angle_gamma                90
_cell_volume                     8519.43
loop_
_atom_site_label
_atom_site_type_symbol
_atom_site_fract_x
_atom_site_fract_y
_atom_site_fract_z
C1 C 0.5922(14) 0.0170(6) -0.0894(9)
C2 C 0.5906(17) 0.0399(6) -0.1501(10)
C3 C 0.5125(14) 0.0467(7) -0.1904(13)
H1 H 0.4602 0.0352 -0.1794
C4 C 0.5117(17) 0.0704(7) -0.2466(11)
C5 C 0.590(2) 0.0876(7) -0.2605(10)
C6 C 0.6688(16) 0.0837(7) -0.2219(13)
C7 C 0.6666(15) 0.0585(8) -0.1662(10)
H2 H 0.7186 0.0543 -0.1391
C8 C 0.5755(10) 0.1653(11) -0.3244(9)
H3 H 0.5665 0.1893 -0.2943
C9 C 0.5993(11) 0.0906(7) -0.3705(12)
H4 H 0.6080 0.0546 -0.3782
C10 C 0.5949(11) 0.1327(11) -0.4112(8)
H5 H 0.6023 0.1305 -0.4515
C11 C 0.5679(16) 0.2287(5) -0.4094(5)
C12 C 0.4855(11) 0.2467(8) -0.4359(6)
C13 C 0.4747(9) 0.2990(9) -0.4573(5)
H6 H 0.4196 0.3110 -0.4750
C14 C 0.5464(15) 0.3332(5) -0.4522(5)
C15 C 0.6289(11) 0.3151(8) -0.4257(6)
H7 H 0.6768 0.3380 -0.4222
C16 C 0.6396(9) 0.2629(9) -0.4042(5)
C17 C 0.5315(16) 0.3926(7) -0.4738(7)
C18 C 0.4221(13) 0.0775(7) -0.2896(8)
H8 H 0.4344 0.0893 -0.3292
C19 C 0.3757(13) 0.0248(9) -0.2987(8)
H9 H 0.4108 -0.0001 -0.3168
H10 H 0.3204 0.0296 -0.3249
H11 H 0.3659 0.0112 -0.2602
C20 C 0.3683(11) 0.1235(8) -0.2638(8)
H12 H 0.3237 0.1365 -0.2956
H13 H 0.4070 0.1523 -0.2489
H14 H 0.3414 0.1095 -0.2313
C21 C 0.7508(17) 0.1084(10) -0.2369(9)
H15 H 0.7368 0.1210 -0.2789
C22 C 0.8222(17) 0.0705(12) -0.2350(13)
H16 H 0.8534 0.0680 -0.1942
H17 H 0.8613 0.0825 -0.2613
H18 H 0.7991 0.0360 -0.2481
C23 C 0.7752(17) 0.1598(13) -0.1963(14)
H19 H 0.7734 0.1511 -0.1546
H20 H 0.7339 0.1878 -0.2093
H21 H 0.8330 0.1715 -0.2002
C24 C 0.4062(13) 0.2094(7) -0.4383(9)
H22 H 0.4272 0.1753 -0.4197
C25 C 0.3635(13) 0.1980(8) -0.5042(11)
H23 H 0.3249 0.1678 -0.5051
H24 H 0.4081 0.1903 -0.5280
H25 H 0.3307 0.2289 -0.5206
C26 C 0.3401(13) 0.2342(9) -0.3993(11)
H26 H 0.3103 0.2640 -0.4205
H27 H 0.3717 0.2460 -0.3610
H28 H 0.2981 0.2075 -0.3926
C27 C 0.7364(14) 0.2460(7) -0.3754(10)
H29 H 0.7352 0.2077 -0.3660
C28 C 0.7548(14) 0.2749(9) -0.3170(12)
H30 H 0.8067 0.2605 -0.2928
H31 H 0.7062 0.2708 -0.2957
H32 H 0.7635 0.3122 -0.3244
C29 C 0.7958(14) 0.2529(10) -0.4207(12)
H33 H 0.8002 0.2902 -0.4300
H34 H 0.7726 0.2336 -0.4570
H35 H 0.8528 0.2392 -0.4044
C30 C 1.2503(13) -0.4643(6) 0.3639(9)
C31 C 1.1864(16) -0.4366(6) 0.3174(11)
C32 C 1.111(2) -0.4237(7) 0.3351(7)
H36 H 1.1021 -0.4315 0.3744
C33 C 1.0443(15) -0.3985(8) 0.2946(16)
C34 C 1.0597(17) -0.3871(7) 0.2380(15)
C35 C 1.135(2) -0.3978(7) 0.2175(9)
C36 C 1.2035(13) -0.4235(8) 0.2592(13)
H37 H 1.2574 -0.4312 0.2481
C37 C 0.9705(13) -0.3136(10) 0.1880(7)
C38 C 0.9385(17) -0.3964(8) 0.1487(11)
H38 H 0.9434 -0.4329 0.1420
C39 C 0.8794(13) -0.3604(13) 0.1193(9)
H39 H 0.8313 -0.3688 0.0901
C40 C 0.849(2) -0.2620(10) 0.1265(12)
C41 C 0.783(2) -0.2466(13) 0.1593(12)
C42 C 0.7428(12) -0.1967(9) 0.1386(10)
H40 H 0.6972 -0.1836 0.1568
C43 C 0.7702(13) -0.1674(7) 0.0917(9)
C44 C 0.8365(15) -0.1849(9) 0.0609(7)
H41 H 0.8517 -0.1647 0.0293
C45 C 0.8794(12) -0.2328(9) 0.0779(12)
C46 C 0.7214(14) -0.1130(8) 0.0803(9)
C47 C 0.9585(18) -0.3857(9) 0.3089(10)
H42 H 0.9245 -0.3688 0.2730
C48 C 0.9662(15) -0.3436(11) 0.3632(12)
H43 H 1.0132 -0.3538 0.3948
H44 H 0.9122 -0.3429 0.3791
H45 H 0.9777 -0.3086 0.3485
C49 C 0.9057(19) -0.4344(12) 0.3254(14)
H46 H 0.9339 -0.4668 0.3160
H47 H 0.8475 -0.4331 0.3025
H48 H 0.9029 -0.4336 0.3680
C50 C 1.1638(16) -0.3823(11) 0.1561(10)
H49 H 1.1093 -0.3791 0.1269
C51 C 1.209(2) -0.3270(13) 0.1558(12)
H50 H 1.1718 -0.2997 0.1672
H51 H 1.2216 -0.3197 0.1159
H52 H 1.2634 -0.3275 0.1841
C52 C 1.219(2) -0.4243(13) 0.1292(12)
H53 H 1.2761 -0.4262 0.1533
H54 H 1.2238 -0.4144 0.0884
H55 H 1.1909 -0.4587 0.1289
C53 C 0.7587(15) -0.2844(8) 0.2076(12)
H56 H 0.7944 -0.3169 0.2105
C54 C 0.6598(16) -0.2984(11) 0.1931(13)
H57 H 0.6259 -0.2660 0.1892
H58 H 0.6441 -0.3198 0.2253
H59 H 0.6483 -0.3182 0.1558
C55 C 0.7773(16) -0.2513(9) 0.2700(12)
H60 H 0.8312 -0.2318 0.2722
H61 H 0.7817 -0.2756 0.3036
H62 H 0.7301 -0.2266 0.2716
C56 C 0.9515(16) -0.2495(8) 0.0416(11)
H63 H 0.9760 -0.2835 0.0586
C57 C 0.9143(16) -0.2592(11) -0.0232(11)
H64 H 0.8997 -0.2255 -0.0431
H65 H 0.8625 -0.2807 -0.0257
H66 H 0.9567 -0.2775 -0.0425
C58 C 1.0259(18) -0.2086(13) 0.0498(14)
H67 H 1.0391 -0.1988 0.0108
H68 H 1.0769 -0.2239 0.0740
H69 H 1.0083 -0.1773 0.0697
Ce1 Ce 0.62493(5) -0.01760(3) 0.04276(3)
Cl1 Cl 1.0420(11) -0.1843(6) 0.2936(8)
Cu1 Cu 1.0099(4) -0.2510(3) 0.2397(3)
N1 N 0.5881(7) 0.1135(8) -0.3166(9)
N2 N 0.5777(8) 0.1778(6) -0.3812(11)
N3 N 0.9870(12) -0.3654(9) 0.1888(9)
N4 N 0.9023(10) -0.3114(9) 0.1397(8)
O1 O 0.6667(8) 0.0050(3) -0.0585(5)
O2 O 0.5236(8) 0.0097(3) -0.0701(4)
O3 O 0.5984(8) 0.4222(4) -0.4654(4)
O4 O 0.4525(9) 0.4040(4) -0.4969(5)
O5 O 1.3238(8) -0.4766(4) 0.3505(4)
O6 O 1.2314(7) -0.4749(4) 0.4148(6)
O7 O 0.7386(6) -0.0906(4) 0.0330(6)
O8 O 0.6703(8) -0.0968(4) 0.1125(5)
Ce1B Ce 0.37507(5) 0.01760(3) -0.04276(3)
Ce1C Ce 0.62493(5) 0.51760(3) -0.45724(3)
Ce1A Ce 0.37507(5) 0.48240(3) -0.54276(3)
Ce1A_2 Ce 1.37507(5) -0.51760(3) 0.45724(3)
O2B O 0.4764(8) -0.0097(3) 0.0701(4)
O3C O 0.5984(8) 0.0778(4) 0.0346(4)
O4A O 0.5475(9) -0.0960(4) -0.0031(5)
O5A O 0.6762(8) 0.0234(4) 0.1495(4)
O6A O 0.7686(7) 0.0251(4) 0.0852(6)
loop_
_geom_bond_atom_site_label_1
_geom_bond_atom_site_label_2
_geom_bond_site_symmetry_1
_geom_bond_site_symmetry_2
C1 C2 1_555 1_555
C2 C3 1_555 1_555
C3 H1 1_555 1_555
C4 C3 1_555 1_555
C5 C4 1_555 1_555
C6 C5 1_555 1_555
C7 C2 1_555 1_555
H2 C7 1_555 1_555
C8 H3 1_555 1_555
C9 H4 1_555 1_555
C10 C9 1_555 1_555
H5 C10 1_555 1_555
C11 C12 1_555 1_555
C12 C13 1_555 1_555
C13 H6 1_555 1_555
C14 C13 1_555 1_555
C15 C14 1_555 1_555
H7 C15 1_555 1_555
C16 C11 1_555 1_555
C17 C14 1_555 1_555
C18 C4 1_555 1_555
H8 C18 1_555 1_555
C19 C18 1_555 1_555
H9 C19 1_555 1_555
H10 C19 1_555 1_555
H11 C19 1_555 1_555
C20 C18 1_555 1_555
H12 C20 1_555 1_555
H13 C20 1_555 1_555
H14 C20 1_555 1_555
C21 C6 1_555 1_555
H15 C21 1_555 1_555
C22 C21 1_555 1_555
H16 C22 1_555 1_555
H17 C22 1_555 1_555
H18 C22 1_555 1_555
C23 C21 1_555 1_555
H19 C23 1_555 1_555
H20 C23 1_555 1_555
H21 C23 1_555 1_555
C24 C12 1_555 1_555
H22 C24 1_555 1_555
C25 C24 1_555 1_555
H23 C25 1_555 1_555
H24 C25 1_555 1_555
H25 C25 1_555 1_555
C26 C24 1_555 1_555
H26 C26 1_555 1_555
H27 C26 1_555 1_555
H28 C26 1_555 1_555
C27 C16 1_555 1_555
H29 C27 1_555 1_555
C28 C27 1_555 1_555
H30 C28 1_555 1_555
H31 C28 1_555 1_555
H32 C28 1_555 1_555
C29 C27 1_555 1_555
H33 C29 1_555 1_555
H34 C29 1_555 1_555
H35 C29 1_555 1_555
C30 C31 1_555 1_555
C31 C32 1_555 1_555
C32 H36 1_555 1_555
C33 C32 1_555 1_555
C34 C33 1_555 1_555
C35 C34 1_555 1_555
C36 C31 1_555 1_555
H37 C36 1_555 1_555
C37 Cu1 1_555 1_555
C38 H38 1_555 1_555
C39 C38 1_555 1_555
H39 C39 1_555 1_555
C40 C41 1_555 1_555
C41 C42 1_555 1_555
C42 H40 1_555 1_555
C43 C42 1_555 1_555
C44 C43 1_555 1_555
H41 C44 1_555 1_555
C45 C40 1_555 1_555
C46 C43 1_555 1_555
C47 C33 1_555 1_555
H42 C47 1_555 1_555
C48 C47 1_555 1_555
H43 C48 1_555 1_555
H44 C48 1_555 1_555
H45 C48 1_555 1_555
C49 C47 1_555 1_555
H46 C49 1_555 1_555
H47 C49 1_555 1_555
H48 C49 1_555 1_555
C50 C35 1_555 1_555
H49 C50 1_555 1_555
C51 C50 1_555 1_555
H50 C51 1_555 1_555
H51 C51 1_555 1_555
H52 C51 1_555 1_555
C52 C50 1_555 1_555
H53 C52 1_555 1_555
H54 C52 1_555 1_555
H55 C52 1_555 1_555
C53 C41 1_555 1_555
H56 C53 1_555 1_555
C54 C53 1_555 1_555
H57 C54 1_555 1_555
H58 C54 1_555 1_555
H59 C54 1_555 1_555
C55 C53 1_555 1_555
H60 C55 1_555 1_555
H61 C55 1_555 1_555
H62 C55 1_555 1_555
C56 C45 1_555 1_555
H63 C56 1_555 1_555
C57 C56 1_555 1_555
H64 C57 1_555 1_555
H65 C57 1_555 1_555
H66 C57 1_555 1_555
C58 C56 1_555 1_555
H67 C58 1_555 1_555
H68 C58 1_555 1_555
H69 C58 1_555 1_555
Ce1 O1 1_555 1_555
Cl1 Cu1 1_555 1_555
N1 C5 1_555 1_555
N2 C8 1_555 1_555
N3 C34 1_555 1_555
N4 C37 1_555 1_555
O1 C1 1_555 1_555
O2 C1 1_555 1_555
O3 C17 1_555 1_555
O4 C17 1_555 1_555
O5 C30 1_555 1_555
O6 C30 1_555 1_555
O7 C46 1_555 1_555
O8 C46 1_555 1_555
Ce1B O2 1_555 1_555
Ce1C O3 1_555 1_555
Ce1A O4 1_555 1_555
Ce1A_2 O5 1_555 1_555
O2B Ce1 1_555 1_555
O3C Ce1 1_555 1_555
O4A Ce1 1_555 1_555
O5A Ce1 1_555 1_555
O6A Ce1 1_555 1_555
C6 C7 1_555 1_555
C8 N1 1_555 1_555
C9 N1 1_555 1_555
C10 N2 1_555 1_555
C11 N2 1_555 1_555
C15 C16 1_555 1_555
C35 C36 1_555 1_555
C37 N3 1_555 1_555
C38 N3 1_555 1_555
C39 N4 1_555 1_555
C40 N4 1_555 1_555
C44 C45 1_555 1_555
Ce1 O7 1_555 1_555
Ce1 O8 1_555 1_555
O6 Ce1A_2 1_555 1_555

#END
