
#######################################################################
#
#                 Cambridge Crystallographic Data Centre
#                                CCDC 
#
#######################################################################
#
# If this CIF has been generated from an entry in the Cambridge 
# Structural Database, then it will include bibliographic, chemical, 
# crystal, experimental, refinement or atomic coordinate data resulting 
# from the CCDC's data processing and validation procedures.
#
#######################################################################

data_MASMIC
_symmetry_cell_setting           triclinic
_symmetry_space_group_name_H-M   'P -1'
_symmetry_Int_Tables_number      2
_space_group_name_Hall           '-P 1'
loop_
_symmetry_equiv_pos_site_id
_symmetry_equiv_pos_as_xyz
1 x,y,z
2 -x,-y,-z
_cell_length_a                   9.489(4)
_cell_length_b                   12.760(4)
_cell_length_c                   13.117(4)
_cell_angle_alpha                75.88(3)
_cell_angle_beta                 72.93(3)
_cell_angle_gamma                69.65(3)
_cell_volume                     1405.53
loop_
_atom_site_label
_atom_site_type_symbol
_atom_site_fract_x
_atom_site_fract_y
_atom_site_fract_z
N3 N 0.1120(13) -0.2994(12) 0.3121(12)
C11 C 0.0268(15) -0.1962(11) 0.3167(10)
H9 H 0.0567(15) -0.1508(11) 0.3469(10)
C12 C -0.1052(12) -0.1504(9) 0.2793(9)
H10 H -0.1618(12) -0.0755(9) 0.2860(9)
C13 C -0.1576(11) -0.2094(9) 0.2327(8)
C14 C -0.0643(15) -0.3183(11) 0.2240(11)
H11 H -0.0882(15) -0.3647(11) 0.1910(11)
C15 C 0.0657(19) -0.3569(14) 0.2656(16)
H12 H 0.1264(19) -0.4312(14) 0.2599(16)
N4 N -0.5757(12) -0.0813(10) 0.1224(10)
C16 C -0.2978(12) -0.1634(9) 0.1918(8)
C17 C -0.3958(11) -0.0581(9) 0.2038(8)
H13 H -0.3726(11) -0.0112(9) 0.2366(8)
C18 C -0.5306(13) -0.0208(9) 0.1671(9)
H14 H -0.5937(13) 0.0526(9) 0.1747(9)
C19 C -0.4773(17) -0.1823(12) 0.1121(12)
H15 H -0.5020(17) -0.2267(12) 0.0774(12)
C20 C -0.3422(14) -0.2299(10) 0.1467(11)
H16 H -0.2830(14) -0.3043(10) 0.1398(11)
N5 N 0.1935(12) -0.1361(10) 0.5158(9)
C21 C 0.1805(13) -0.1328(10) 0.6162(11)
H17 H 0.0821(13) -0.1086(10) 0.6598(11)
C22 C 0.3084(13) -0.1640(9) 0.6619(8)
H18 H 0.2936(13) -0.1685(9) 0.7360(8)
C23 C 0.4542(12) -0.1878(8) 0.5984(9)
C24 C 0.4713(12) -0.1907(10) 0.4904(9)
H19 H 0.5684(12) -0.2099(10) 0.4441(9)
C25 C 0.3342(15) -0.1632(10) 0.4532(9)
H20 H 0.3440(15) -0.1643(10) 0.3808(9)
C26 C 0.5941(12) -0.2161(9) 0.6417(9)
C27 C 0.6053(11) -0.2809(9) 0.7430(9)
H21 H 0.5253(11) -0.3093(9) 0.7860(9)
C28 C 0.7358(14) -0.3016(9) 0.7774(9)
H22 H 0.7419(14) -0.3460(9) 0.8446(9)
N6 N 0.8550(12) -0.2638(10) 0.7232(10)
C29 C 0.8419(14) -0.2041(14) 0.6269(11)
H23 H 0.9245(14) -0.1782(14) 0.5850(11)
C30 C 0.7154(13) -0.1774(11) 0.5838(9)
H24 H 0.7130(13) -0.1335(11) 0.5160(9)
Cu1 Cu 0.74626(14) -0.53715(11) 0.05426(10)
N1 N 0.3416(8) -0.4759(6) 0.7773(5)
C1 C 0.2541(10) -0.4372(7) 0.7057(8)
H1 H 0.1491(10) -0.4024(7) 0.7296(8)
C2 C 0.3119(9) -0.4461(8) 0.5969(7)
H2 H 0.2458(9) -0.4179(8) 0.5498(7)
C3 C 0.4655(10) -0.4961(8) 0.5589(6)
C4 C 0.5554(10) -0.5357(8) 0.6317(7)
H3 H 0.6610(10) -0.5701(8) 0.6097(7)
C5 C 0.4890(10) -0.5246(8) 0.7387(8)
H4 H 0.5530(10) -0.5537(8) 0.7871(8)
C6 C 0.9645(10) -0.9427(7) 0.0148(7)
C7 C 1.0359(9) -0.8942(7) 0.0594(7)
H5 H 0.8694(9) -1.0647(7) -0.0764(7)
C8 C 0.9658(10) -0.7834(8) 0.0788(7)
H6 H 0.9830(10) -1.2478(8) -0.1084(7)
N2 N 0.8300(8) -0.7190(6) 0.0579(6)
C9 C 1.2387(9) -1.2334(8) -0.0152(7)
H7 H 1.3346(9) -1.2756(8) -0.0007(7)
C10 C 1.1754(10) -1.1243(8) 0.0088(7)
H8 H 1.2271(10) -1.0961(8) 0.0408(7)
C31 C 0.5565(7) -0.5031(7) 0.0091(7)
N7 N 1.0612(7) -1.4963(7) -0.0124(7)
C3A C 0.5345(10) -0.5039(8) 0.4411(6)
C2A C 0.6881(9) -0.5539(8) 0.4031(7)
C1A C 0.7459(10) -0.5628(7) 0.2943(8)
N1A N 0.6584(8) -0.5241(6) 0.2227(5)
Cu1A Cu 0.25374(14) -0.46285(11) 0.94574(10)
C6A C 1.0355(10) -1.0573(7) -0.0148(7)
C7A C 0.9641(9) -1.1058(7) -0.0594(7)
C8A C 1.0342(10) -1.2166(8) -0.0788(7)
N2A N 1.1700(8) -1.2810(6) -0.0579(6)
Cu1A_2 Cu 1.25374(14) -1.46285(11) -0.05426(10)
N1_2 N 1.3416(8) -1.4759(6) -0.2227(5)
C31A C 1.4435(7) -1.4969(7) -0.0091(7)
C10A C 0.8246(10) -0.8757(8) -0.0088(7)
C9A C 0.7613(9) -0.7666(8) 0.0152(7)
H7A H 0.6654(9) -0.7244(8) 0.0007(7)
H8A H 0.7729(10) -0.9039(8) -0.0408(7)
H5A H 1.1306(9) -0.9353(7) 0.0764(7)
H6A H 1.0170(10) -0.7522(8) 0.1084(7)
N7A N 0.9388(7) -0.5037(7) 0.0124(7)
C5A C 0.5110(10) -0.4754(8) 0.2613(8)
C4A C 0.4446(10) -0.4643(8) 0.3683(7)
H3A H 0.3390(10) -0.4299(8) 0.3903(7)
H4A H 0.4470(10) -0.4463(8) 0.2129(8)
H1A H 0.8509(10) -0.5976(7) 0.2704(8)
H2A H 0.7542(9) -0.5821(8) 0.4502(7)
C31A_2 C 0.4435(7) -0.4969(7) -0.0091(7)
Cu1A_3 Cu 0.25374(14) -0.46285(11) -0.05426(10)
N7A_2 N 0.9388(7) -1.5037(7) 0.0124(7)
Cu1_2 Cu 0.74626(14) -1.53715(11) 0.05426(10)
loop_
_geom_bond_atom_site_label_1
_geom_bond_atom_site_label_2
_geom_bond_site_symmetry_1
_geom_bond_site_symmetry_2
Cu1 N2 1_555 1_555
N1 C1 1_555 1_555
C1 H1 1_555 1_555
C2 C1 1_555 1_555
H2 C2 1_555 1_555
C3 C2 1_555 1_555
C4 C3 1_555 1_555
H3 C4 1_555 1_555
C5 N1 1_555 1_555
H4 C5 1_555 1_555
C6 C7 1_555 1_555
C7 C8 1_555 1_555
H5 C7A 1_555 1_555
C8 N2 1_555 1_555
H6 C8A 1_555 1_555
N2 C9A 1_555 1_555
C9 H7 1_555 1_555
C10 C9 1_555 1_555
H8 C10 1_555 1_555
N3 C11 1_555 1_555
C11 H9 1_555 1_555
C12 C11 1_555 1_555
H10 C12 1_555 1_555
C13 C12 1_555 1_555
C14 C13 1_555 1_555
H11 C14 1_555 1_555
C15 N3 1_555 1_555
H12 C15 1_555 1_555
N4 C18 1_555 1_555
C16 C13 1_555 1_555
C17 C16 1_555 1_555
H13 C17 1_555 1_555
C18 C17 1_555 1_555
H14 C18 1_555 1_555
C19 N4 1_555 1_555
H15 C19 1_555 1_555
C20 C16 1_555 1_555
H16 C20 1_555 1_555
N5 C21 1_555 1_555
C21 H17 1_555 1_555
C22 C21 1_555 1_555
H18 C22 1_555 1_555
C23 C22 1_555 1_555
C24 C23 1_555 1_555
H19 C24 1_555 1_555
C25 N5 1_555 1_555
H20 C25 1_555 1_555
C26 C23 1_555 1_555
C27 C26 1_555 1_555
H21 C27 1_555 1_555
C28 C27 1_555 1_555
H22 C28 1_555 1_555
N6 C28 1_555 1_555
C29 N6 1_555 1_555
H23 C29 1_555 1_555
C30 C26 1_555 1_555
H24 C30 1_555 1_555
C31 Cu1 1_555 1_555
N7 Cu1A_2 1_555 1_555
C3A C3 1_555 1_555
C2A C3A 1_555 1_555
C1A C2A 1_555 1_555
N1A Cu1 1_555 1_555
Cu1A N1 1_555 1_555
C6A C6 1_555 1_555
C7A C6A 1_555 1_555
C8A C7A 1_555 1_555
N2A C9 1_555 1_555
Cu1A_2 N2A 1_555 1_555
N1_2 Cu1A_2 1_555 1_555
C31A Cu1A_2 1_555 1_555
C10A C6 1_555 1_555
C9A C10A 1_555 1_555
H7A C9A 1_555 1_555
H8A C10A 1_555 1_555
H5A C7 1_555 1_555
H6A C8 1_555 1_555
N7A Cu1 1_555 1_555
C5A N1A 1_555 1_555
C4A C3A 1_555 1_555
H3A C4A 1_555 1_555
H4A C5A 1_555 1_555
H1A C1A 1_555 1_555
H2A C2A 1_555 1_555
C31A_2 C31 1_555 1_555
Cu1A_3 C31A_2 1_555 1_555
N7A_2 N7 1_555 1_555
Cu1_2 N7A_2 1_555 1_555
C4 C5 1_555 1_555
C10 C6A 1_555 1_555
C14 C15 1_555 1_555
C19 C20 1_555 1_555
C24 C25 1_555 1_555
C29 C30 1_555 1_555
C1A N1A 1_555 1_555
C8A N2A 1_555 1_555
C5A C4A 1_555 1_555

#END
