
#######################################################################
#
#                 Cambridge Crystallographic Data Centre
#                                CCDC 
#
#######################################################################
#
# If this CIF has been generated from an entry in the Cambridge 
# Structural Database, then it will include bibliographic, chemical, 
# crystal, experimental, refinement or atomic coordinate data resulting 
# from the CCDC's data processing and validation procedures.
#
#######################################################################

data_MASZOX
_symmetry_cell_setting           monoclinic
_symmetry_space_group_name_H-M   'C 2/c'
_symmetry_Int_Tables_number      15
_space_group_name_Hall           '-C 2yn'
loop_
_symmetry_equiv_pos_site_id
_symmetry_equiv_pos_as_xyz
1 x,y,z
2 -x,y,1/2-z
3 1/2+x,1/2+y,z
4 1/2-x,1/2+y,1/2-z
5 -x,-y,-z
6 x,-y,1/2+z
7 1/2-x,1/2-y,-z
8 1/2+x,1/2-y,1/2+z
_cell_length_a                   21.186(5)
_cell_length_b                   21.293(5)
_cell_length_c                   17.947(4)
_cell_angle_alpha                90
_cell_angle_beta                 96.459(18)
_cell_angle_gamma                90
_cell_volume                     8044.74
loop_
_atom_site_label
_atom_site_type_symbol
_atom_site_fract_x
_atom_site_fract_y
_atom_site_fract_z
Mo1 Mo 0.21421(3) 1.01881(3) 0.49530(3)
I1 I 0.38208(5) 0.86426(4) 0.57039(5)
S1 S 0.21534(11) 0.94813(9) 0.58949(12)
S2 S 0.24031(11) 1.11506(9) 0.54490(11)
S3 S 0.29021(11) 0.99017(9) 0.42382(11)
O1 O 0.1414(3) 1.0203(3) 0.4443(4)
Cu1 Cu 0.28509(5) 0.91277(5) 0.51250(5)
Cu2 Cu 0.23751(5) 1.04542(5) 0.64081(5)
Cu3 Cu 0.31772(5) 1.08807(4) 0.47253(5)
N1 N 0.2412(4) 0.8397(3) 0.4394(3)
N2 N 0.1814(4) 0.6469(3) 0.1192(4)
N3 N 0.1530(3) 1.0590(3) 0.6900(4)
N4 N 0.3123(3) 1.0526(3) 0.7193(4)
N5 N 0.5924(4) 1.0856(3) 0.9717(4)
C1 C 0.1929(4) 0.8504(4) 0.3909(5)
H1 H 0.1688 0.8859 0.3983
C2 C 0.1736(5) 0.8138(4) 0.3289(5)
H2 H 0.1379 0.8243 0.2964
C3 C 0.2098(4) 0.7599(4) 0.3162(5)
C4 C 0.2626(5) 0.7474(5) 0.3693(5)
H3 H 0.2877 0.7121 0.3642
C5 C 0.2765(5) 0.7878(4) 0.4284(5)
H4 H 0.3117 0.7793 0.4626
C6 C 0.1726(6) 0.7090(4) 0.1162(5)
H5 H 0.1606 0.7275 0.0698
C7 C 0.1805(6) 0.7474(5) 0.1797(6)
H6 H 0.1757 0.7907 0.1750
C8 C 0.1952(4) 0.7212(4) 0.2481(4)
C9 C 0.2034(6) 0.6564(4) 0.2505(5)
H7 H 0.2144 0.6367 0.2964
C10 C 0.1958(6) 0.6219(4) 0.1875(6)
H8 H 0.2008 0.5786 0.1915
C11 C 0.1001(5) 1.0799(5) 0.6464(5)
H9 H 0.1049 1.0961 0.5992
C12 C 0.0438(4) 1.0783(5) 0.6672(5)
H10 H 0.0098 1.0931 0.6346
C13 C 0.0324(4) 1.0549(4) 0.7377(4)
C14 C 0.0843(4) 1.0344(4) 0.7830(4)
H11 H 0.0801 1.0194 0.8309
C15 C 0.1438(5) 1.0360(5) 0.7565(5)
H12 H 0.1786 1.0203 0.7870
C16 C 0.3204(5) 1.1025(4) 0.7664(5)
H13 H 0.2890 1.1332 0.7641
C17 C 0.3732(4) 1.1095(4) 0.8173(5)
H14 H 0.3761 1.1436 0.8499
C18 C 0.4213(4) 1.0667(4) 0.8205(5)
C19 C 0.4112(5) 1.0151(5) 0.7729(6)
H15 H 0.4405 0.9824 0.7770
C20 C 0.3610(4) 1.0113(4) 0.7220(5)
H16 H 0.3592 0.9790 0.6868
C21 C 0.5681(5) 1.0294(4) 0.9491(6)
H17 H 0.5896 0.9934 0.9671
C22 C 0.5148(5) 1.0224(4) 0.9023(6)
H18 H 0.5018 0.9822 0.8871
C23 C 0.4790(4) 1.0729(4) 0.8760(5)
C24 C 0.5027(5) 1.1320(4) 0.8998(6)
H19 H 0.4812 1.1685 0.8839
C25 C 0.5587(6) 1.1347(5) 0.9476(7)
H20 H 0.5735 1.1741 0.9636
Mo1A Mo -0.21421(3) 1.01881(3) 1.00470(3)
I1A I -0.38208(5) 0.86426(4) 0.92961(5)
S1A S -0.21534(11) 0.94813(9) 0.91051(12)
S2A S -0.24031(11) 1.11506(9) 0.95510(11)
S3A S -0.29021(11) 0.99017(9) 1.07618(11)
O1A O -0.1414(3) 1.0203(3) 1.0557(4)
Cu1A Cu -0.28509(5) 0.91277(5) 0.98750(5)
Cu2A Cu -0.23751(5) 1.04542(5) 0.85919(5)
Cu3C Cu 0.18228(5) 0.58807(4) 0.02747(5)
Cu3A Cu 0.68228(5) 1.08807(4) 1.02747(5)
Cu3A_2 Cu -0.31772(5) 1.08807(4) 1.02747(5)
Cu3_2 Cu -0.68228(5) 1.08807(4) 0.47253(5)
Cu3B Cu -0.18228(5) 0.58807(4) 1.47253(5)
N1A N -0.2412(4) 0.8397(3) 1.0606(3)
N2C N 0.3186(4) 1.1469(3) 0.3808(4)
N2B N -0.3186(4) 1.1469(3) 1.1192(4)
N2A N -0.1814(4) 0.6469(3) 1.3808(4)
N3A N -0.1530(3) 1.0590(3) 0.8100(4)
N4A N -0.3123(3) 1.0526(3) 0.7807(4)
N5A N 0.4076(4) 1.0856(3) 0.5283(4)
N5_2 N -0.4076(4) 1.0856(3) 0.9717(4)
N5A_2 N -0.5924(4) 1.0856(3) 0.5283(4)
C1A C -0.1929(4) 0.8504(4) 1.1091(5)
H1A H -0.1688 0.8859 1.1017
C2A C -0.1736(5) 0.8138(4) 1.1711(5)
H2A H -0.1379 0.8243 1.2036
C3A C -0.2098(4) 0.7599(4) 1.1838(5)
C4A C -0.2626(5) 0.7474(5) 1.1307(5)
H3A H -0.2877 0.7121 1.1358
C5A C -0.2765(5) 0.7878(4) 1.0716(5)
H4A H -0.3117 0.7793 1.0374
C6A C -0.1726(6) 0.7090(4) 1.3838(5)
H5A H -0.1606 0.7275 1.4302
C7A C -0.1805(6) 0.7474(5) 1.3203(6)
H6A H -0.1757 0.7907 1.3250
C8A C -0.1952(4) 0.7212(4) 1.2519(4)
C9A C -0.2034(6) 0.6564(4) 1.2495(5)
H7A H -0.2144 0.6367 1.2036
C10A C -0.1958(6) 0.6219(4) 1.3125(6)
H8A H -0.2008 0.5786 1.3085
C11A C -0.1001(5) 1.0799(5) 0.8536(5)
H9A H -0.1049 1.0961 0.9008
C12A C -0.0438(4) 1.0783(5) 0.8328(5)
H10A H -0.0098 1.0931 0.8654
C13A C -0.0324(4) 1.0549(4) 0.7623(4)
C14A C -0.0843(4) 1.0344(4) 0.7170(4)
H11A H -0.0801 1.0194 0.6691
C15A C -0.1438(5) 1.0360(5) 0.7435(5)
H12A H -0.1786 1.0203 0.7130
C16A C -0.3204(5) 1.1025(4) 0.7336(5)
H13A H -0.2890 1.1332 0.7359
C17A C -0.3732(4) 1.1095(4) 0.6827(5)
H14A H -0.3761 1.1436 0.6501
C18A C -0.4213(4) 1.0667(4) 0.6795(5)
C19A C -0.4112(5) 1.0151(5) 0.7271(6)
H15A H -0.4405 0.9824 0.7230
C20A C -0.3610(4) 1.0113(4) 0.7780(5)
H16A H -0.3592 0.9790 0.8132
C21A C -0.5681(5) 1.0294(4) 0.5509(6)
H17A H -0.5896 0.9934 0.5329
C22A C -0.5148(5) 1.0224(4) 0.5977(6)
H18A H -0.5018 0.9822 0.6129
C23A C -0.4790(4) 1.0729(4) 0.6240(5)
C24A C -0.5027(5) 1.1320(4) 0.6002(6)
H19A H -0.4812 1.1685 0.6161
C25A C -0.5587(6) 1.1347(5) 0.5524(7)
H20A H -0.5735 1.1741 0.5364
loop_
_geom_bond_atom_site_label_1
_geom_bond_atom_site_label_2
_geom_bond_site_symmetry_1
_geom_bond_site_symmetry_2
Mo1 S1 1_555 1_555
I1 Cu1 1_555 1_555
S1 Cu1 1_555 1_555
S2 Mo1 1_555 1_555
S3 Mo1 1_555 1_555
O1 Mo1 1_555 1_555
Cu1 Mo1 1_555 1_555
Cu2 Mo1 1_555 1_555
Cu3 Mo1 1_555 1_555
N1 Cu1 1_555 1_555
N2 C6 1_555 1_555
N3 Cu2 1_555 1_555
N4 Cu2 1_555 1_555
N5 C21 1_555 1_555
C1 N1 1_555 1_555
H1 C1 1_555 1_555
C2 C1 1_555 1_555
H2 C2 1_555 1_555
C3 C2 1_555 1_555
C4 C3 1_555 1_555
H3 C4 1_555 1_555
C5 N1 1_555 1_555
H4 C5 1_555 1_555
C6 H5 1_555 1_555
C7 C6 1_555 1_555
H6 C7 1_555 1_555
C8 C3 1_555 1_555
C9 C8 1_555 1_555
H7 C9 1_555 1_555
C10 N2 1_555 1_555
H8 C10 1_555 1_555
C11 N3 1_555 1_555
H9 C11 1_555 1_555
C12 C11 1_555 1_555
H10 C12 1_555 1_555
C13 C12 1_555 1_555
C14 C13 1_555 1_555
H11 C14 1_555 1_555
C15 N3 1_555 1_555
H12 C15 1_555 1_555
C16 N4 1_555 1_555
H13 C16 1_555 1_555
C17 C16 1_555 1_555
H14 C17 1_555 1_555
C18 C17 1_555 1_555
C19 C18 1_555 1_555
H15 C19 1_555 1_555
C20 N4 1_555 1_555
H16 C20 1_555 1_555
C21 H17 1_555 1_555
C22 C21 1_555 1_555
H18 C22 1_555 1_555
C23 C18 1_555 1_555
C24 C23 1_555 1_555
H19 C24 1_555 1_555
C25 N5 1_555 1_555
H20 C25 1_555 1_555
Mo1A S1A 1_555 1_555
I1A Cu1A 1_555 1_555
S1A Cu1A 1_555 1_555
S2A Mo1A 1_555 1_555
S3A Mo1A 1_555 1_555
O1A Mo1A 1_555 1_555
Cu1A Mo1A 1_555 1_555
Cu2A Mo1A 1_555 1_555
Cu3C N2 1_555 1_555
Cu3A N5 1_555 1_555
Cu3A_2 Mo1A 1_555 1_555
Cu3_2 N5A_2 1_555 1_555
Cu3B N2A 1_555 1_555
N1A Cu1A 1_555 1_555
N2C Cu3 1_555 1_555
N2B Cu3A_2 1_555 1_555
N2A C6A 1_555 1_555
N3A Cu2A 1_555 1_555
N4A Cu2A 1_555 1_555
N5A Cu3 1_555 1_555
N5_2 Cu3A_2 1_555 1_555
N5A_2 C21A 1_555 1_555
C1A N1A 1_555 1_555
H1A C1A 1_555 1_555
C2A C1A 1_555 1_555
H2A C2A 1_555 1_555
C3A C2A 1_555 1_555
C4A C3A 1_555 1_555
H3A C4A 1_555 1_555
C5A N1A 1_555 1_555
H4A C5A 1_555 1_555
C6A H5A 1_555 1_555
C7A C6A 1_555 1_555
H6A C7A 1_555 1_555
C8A C3A 1_555 1_555
C9A C8A 1_555 1_555
H7A C9A 1_555 1_555
C10A N2A 1_555 1_555
H8A C10A 1_555 1_555
C11A N3A 1_555 1_555
H9A C11A 1_555 1_555
C12A C11A 1_555 1_555
H10A C12A 1_555 1_555
C13A C13 1_555 1_555
C14A C13A 1_555 1_555
H11A C14A 1_555 1_555
C15A N3A 1_555 1_555
H12A C15A 1_555 1_555
C16A N4A 1_555 1_555
H13A C16A 1_555 1_555
C17A C16A 1_555 1_555
H14A C17A 1_555 1_555
C18A C17A 1_555 1_555
C19A C18A 1_555 1_555
H15A C19A 1_555 1_555
C20A N4A 1_555 1_555
H16A C20A 1_555 1_555
C21A H17A 1_555 1_555
C22A C21A 1_555 1_555
H18A C22A 1_555 1_555
C23A C18A 1_555 1_555
C24A C23A 1_555 1_555
H19A C24A 1_555 1_555
C25A N5A_2 1_555 1_555
H20A C25A 1_555 1_555
S1 Cu2 1_555 1_555
S2 Cu2 1_555 1_555
S2 Cu3 1_555 1_555
S3 Cu1 1_555 1_555
S3 Cu3 1_555 1_555
C4 C5 1_555 1_555
C7 C8 1_555 1_555
C9 C10 1_555 1_555
C14 C15 1_555 1_555
C19 C20 1_555 1_555
C22 C23 1_555 1_555
C24 C25 1_555 1_555
S1A Cu2A 1_555 1_555
S2A Cu2A 1_555 1_555
S2A Cu3A_2 1_555 1_555
S3A Cu1A 1_555 1_555
S3A Cu3A_2 1_555 1_555
C4A C5A 1_555 1_555
C7A C8A 1_555 1_555
C9A C10A 1_555 1_555
C12A C13A 1_555 1_555
C14A C15A 1_555 1_555
C19A C20A 1_555 1_555
C22A C23A 1_555 1_555
C24A C25A 1_555 1_555

#END
