
#######################################################################
#
#                 Cambridge Crystallographic Data Centre
#                                CCDC 
#
#######################################################################
#
# If this CIF has been generated from an entry in the Cambridge 
# Structural Database, then it will include bibliographic, chemical, 
# crystal, experimental, refinement or atomic coordinate data resulting 
# from the CCDC's data processing and validation procedures.
#
#######################################################################

data_MAVFEV
_symmetry_cell_setting           monoclinic
_symmetry_space_group_name_H-M   'P 21/n'
_symmetry_Int_Tables_number      14
_space_group_name_Hall           '-P 2yn'
loop_
_symmetry_equiv_pos_site_id
_symmetry_equiv_pos_as_xyz
1 x,y,z
2 1/2-x,1/2+y,1/2-z
3 -x,-y,-z
4 1/2+x,1/2-y,1/2+z
_cell_length_a                   9.6740(10)
_cell_length_b                   11.7610(10)
_cell_length_c                   12.315(2)
_cell_angle_alpha                90
_cell_angle_beta                 99.285(2)
_cell_angle_gamma                90
_cell_volume                     1382.79
loop_
_atom_site_label
_atom_site_type_symbol
_atom_site_fract_x
_atom_site_fract_y
_atom_site_fract_z
Eu1 Eu 0.71368(2) 0.515520(10) 0.330810(10)
O1 O 0.8070(3) 0.6409(2) 0.2055(2)
O2 O 0.8660(3) 0.8194(2) 0.1726(2)
O3 O 0.6396(3) 0.7159(2) 0.3435(2)
O4 O 0.6851(3) 0.8950(2) 0.3006(2)
O5 O 0.6813(3) 0.5115(2) 0.5224(2)
O6 O 0.5335(3) 0.4854(2) 0.6428(2)
O7 O 0.9160(3) 0.6182(2) 0.4341(2)
O8 O 1.1006(3) 0.6088(2) 0.5673(2)
O9 O 0.5452(3) 0.5236(3) 0.1537(2)
C1 C 0.8002(4) 0.7455(3) 0.2175(3)
C2 C 0.6990(4) 0.7897(3) 0.2946(3)
C3 C 0.5625(4) 0.4992(3) 0.5474(3)
C4 C 1.0046(4) 0.5657(3) 0.4997(3)
H1 H 0.514(5) 0.462(2) 0.122(3)
H2 H 0.572(4) 0.568(2) 0.107(2)
Eu1A Eu 0.78632(2) 0.015520(10) 0.169190(10)
Eu1A_2 Eu 0.78632(2) 1.015520(10) 0.169190(10)
Eu1B Eu 0.28632(2) 0.484480(10) 0.669190(10)
Eu1B_2 Eu 1.28632(2) 0.484480(10) 0.669190(10)
O1A O 0.6930(3) 0.1409(2) 0.2945(2)
O2A O 0.6340(3) 0.3194(2) 0.3274(2)
O2_2 O 0.8660(3) -0.1806(2) 0.1726(2)
O3A O 0.8604(3) 0.2159(2) 0.1565(2)
O4A O 0.8149(3) 0.3950(2) 0.1994(2)
O4_2 O 0.6851(3) -0.1050(2) 0.3006(2)
O5B O 0.3187(3) 0.4885(2) 0.4776(2)
O5A O 0.8187(3) 0.0115(2) -0.0224(2)
O6B O 0.4665(3) 0.5146(2) 0.3572(2)
O6C O 1.0335(3) 0.0146(2) 0.1428(2)
O7B O 1.0840(3) 0.3818(2) 0.5659(2)
O7A O 0.5840(3) 0.1182(2) 0.0659(2)
O8B O 0.8994(3) 0.3912(2) 0.4327(2)
O8C O 0.6006(3) -0.1088(2) 0.0673(2)
O9A O 0.9548(3) 0.0236(3) 0.3463(2)
C1A C 0.6998(4) 0.2455(3) 0.2825(3)
C2A C 0.8010(4) 0.2897(3) 0.2054(3)
C3B C 0.4375(4) 0.5008(3) 0.4526(3)
C4B C 0.9954(4) 0.4343(3) 0.5003(3)
H1A H 0.986(5) -0.038(2) 0.378(3)
H2A H 0.928(4) 0.068(2) 0.393(2)
O10 O 0.4196(5) 0.3424(3) 0.0340(3)
H3 H 0.334(2) 0.355(4) 0.014(5)
H4 H 0.435(5) 0.2730(10) 0.046(5)
O11 O 0.1705(6) 0.5038(4) 0.0076(3)
H5 H 0.160(6) 0.543(4) -0.051(3)
H6 H 0.121(6) 0.445(3) -0.001(5)
O12 O 0.0859(5) 0.2816(4) 0.0322(4)
H7 H 0.077(6) 0.253(5) -0.032(2)
H8 H 0.017(4) 0.262(5) 0.063(4)
N1 N 0.2682(5) 0.6312(4) 0.1956(4)
C5 C 0.1511(7) 0.6242(7) 0.2548(5)
C6 C 0.3064(8) 0.7458(6) 0.1680(5)
H9 H 0.252(5) 0.589(3) 0.139(2)
H10 H 0.338(4) 0.605(4) 0.240(3)
H11 H 0.1756 0.6599 0.3254
H12 H 0.1283 0.5459 0.2646
H13 H 0.0717 0.6623 0.2137
H14 H 0.2260 0.7835 0.1280
H15 H 0.3792 0.7424 0.1236
H16 H 0.3394 0.7871 0.2344
loop_
_geom_bond_atom_site_label_1
_geom_bond_atom_site_label_2
_geom_bond_site_symmetry_1
_geom_bond_site_symmetry_2
Eu1 O1 1_555 1_555
O1 C1 1_555 1_555
O2 C1 1_555 1_555
O3 Eu1 1_555 1_555
O4 C2 1_555 1_555
O5 Eu1 1_555 1_555
O6 C3 1_555 1_555
O7 Eu1 1_555 1_555
O8 C4 1_555 1_555
O9 Eu1 1_555 1_555
C1 C2 1_555 1_555
C2 O3 1_555 1_555
C3 O5 1_555 1_555
C4 O7 1_555 1_555
H1 O9 1_555 1_555
H2 O9 1_555 1_555
O10 H3 1_555 1_555
H4 O10 1_555 1_555
O11 H5 1_555 1_555
H6 O11 1_555 1_555
O12 H7 1_555 1_555
H8 O12 1_555 1_555
N1 C5 1_555 1_555
C5 H11 1_555 1_555
C6 N1 1_555 1_555
H9 N1 1_555 1_555
H10 N1 1_555 1_555
H12 C5 1_555 1_555
H13 C5 1_555 1_555
H14 C6 1_555 1_555
H15 C6 1_555 1_555
H16 C6 1_555 1_555
Eu1A O1A 1_555 1_555
Eu1A_2 O2 1_555 1_555
Eu1B O6 1_555 1_555
Eu1B_2 O8 1_555 1_555
O1A C1A 1_555 1_555
O2A Eu1 1_555 1_555
O2_2 Eu1A 1_555 1_555
O3A Eu1A 1_555 1_555
O4A Eu1 1_555 1_555
O4_2 Eu1A 1_555 1_555
O5B Eu1B 1_555 1_555
O5A Eu1A 1_555 1_555
O6B Eu1 1_555 1_555
O6C Eu1A 1_555 1_555
O7B Eu1B_2 1_555 1_555
O7A Eu1A 1_555 1_555
O8B Eu1 1_555 1_555
O8C Eu1A 1_555 1_555
O9A Eu1A 1_555 1_555
C1A O2A 1_555 1_555
C2A O3A 1_555 1_555
C3B C3 1_555 1_555
C4B C4 1_555 1_555
H1A O9A 1_555 1_555
H2A O9A 1_555 1_555
O4 Eu1A_2 1_555 1_555
O4A C2A 1_555 1_555
O5B C3B 1_555 1_555
O6B C3B 1_555 1_555
O7B C4B 1_555 1_555
O8B C4B 1_555 1_555
C1A C2A 1_555 1_555

#END
