
#######################################################################
#
#                 Cambridge Crystallographic Data Centre
#                                CCDC 
#
#######################################################################
#
# If this CIF has been generated from an entry in the Cambridge 
# Structural Database, then it will include bibliographic, chemical, 
# crystal, experimental, refinement or atomic coordinate data resulting 
# from the CCDC's data processing and validation procedures.
#
#######################################################################

data_MAWWAK01
_symmetry_cell_setting           monoclinic
_symmetry_space_group_name_H-M   'C 2/c'
_symmetry_Int_Tables_number      15
_space_group_name_Hall           '-C 2yn'
loop_
_symmetry_equiv_pos_site_id
_symmetry_equiv_pos_as_xyz
1 x,y,z
2 -x,y,1/2-z
3 1/2+x,1/2+y,z
4 1/2-x,1/2+y,1/2-z
5 -x,-y,-z
6 x,-y,1/2+z
7 1/2-x,1/2-y,-z
8 1/2+x,1/2-y,1/2+z
_cell_length_a                   8.66399(7)
_cell_length_b                   34.42204(13)
_cell_length_c                   11.42526(6)
_cell_angle_alpha                90
_cell_angle_beta                 114.9321(5)
_cell_angle_gamma                90
_cell_volume                     3089.84
loop_
_atom_site_label
_atom_site_type_symbol
_atom_site_fract_x
_atom_site_fract_y
_atom_site_fract_z
Sc1 Sc 0.00000 0.36307(8) 0.25000
Sc2 Sc -0.50000 0.38336(9) 0.25000
O1 O -0.2326(5) 0.36563(19) 0.0869(4)
O2 O -0.4856(6) 0.38276(16) 0.06989(35)
O3 O 0.0649(6) 0.40552(12) 0.1502(5)
O4 O 0.3100(7) 0.42587(14) 0.1661(6)
O5 O -0.0797(6) 0.31938(13) 0.3399(5)
O6 O -0.3284(5) 0.33792(13) 0.3128(5)
C1 C -0.3902(6) 0.36967(30) 0.02146(34)
C2 C -0.4452(4) 0.3733(4) -0.11631(17)
C3 C -0.32560(24) 0.3743(4) -0.16821(26)
C4 C -0.61889(30) 0.3753(4) -0.19738(27)
N1 N -0.7425(5) 0.37632(17) -0.1436(4)
C5 C 0.1618(6) 0.43304(13) 0.1432(7)
C6 C 0.0823(4) 0.46602(9) 0.0615(6)
C7 C -0.09591(33) 0.46888(9) 0.0115(6)
C8 C 0.17695(22) 0.49631(11) 0.0454(6)
N2 N 0.35527(29) 0.49105(17) 0.0661(5)
C9 C -0.1972(5) 0.31736(11) 0.3780(5)
C10 C -0.2242(4) 0.28180(10) 0.4342(4)
C11 C -0.09284(29) 0.25556(12) 0.4964(5)
N3 N 0.0719(4) 0.25931(17) 0.4932(5)
C12 C -0.38114(33) 0.27696(10) 0.4394(5)
O7 O -0.8024(13) 0.34475(21) -0.1297(11)
O8 O -0.8169(12) 0.40723(20) -0.1451(11)
O9 O 0.3496(12) 0.46908(26) -0.0268(7)
O10 O 0.4495(11) 0.51153(26) 0.1636(7)
O11 O 0.0884(12) 0.23655(26) 0.4133(7)
O12 O 0.1787(10) 0.27704(29) 0.5893(8)
Sc1_2 Sc -1.00000 0.36307(8) -0.75000
Sc1F Sc -0.50000 0.13693(8) 0.75000
Sc1D Sc 0.00000 0.63693(8) -0.25000
Sc2_2 Sc 0.50000 0.38336(9) 0.25000
Sc2_3 Sc -0.50000 0.38336(9) -0.75000
Sc2F Sc 0.00000 0.11664(9) 0.75000
Sc2D Sc -0.50000 0.61664(9) -0.25000
O1A O 0.2326(5) 0.36563(19) 0.4131(4)
O1A_2 O -0.7674(5) 0.36563(19) -0.5869(4)
O2A O -0.5144(6) 0.38276(16) 0.43011(35)
O2A_2 O -0.5144(6) 0.38276(16) -0.56989(35)
O3A O -0.0649(6) 0.40552(12) 0.3498(5)
O3D O -0.0649(6) 0.59448(12) -0.1502(5)
O4A O -0.3100(7) 0.42587(14) 0.3339(6)
O4_2 O -0.6900(7) 0.42587(14) 0.1661(6)
O4D O -0.3100(7) 0.57413(14) -0.1661(6)
O5A O 0.0797(6) 0.31938(13) 0.1601(5)
O5F O -0.4203(6) 0.18062(13) 0.6601(5)
O6A O -0.6716(5) 0.33792(13) 0.1872(5)
O6F O -0.1716(5) 0.16208(13) 0.6872(5)
C1A C -0.6098(6) 0.36967(30) -0.52146(34)
C2A C -0.5548(4) 0.3733(4) -0.38369(17)
C3A C -0.67440(24) 0.3743(4) -0.33179(26)
C4A C -0.38111(30) 0.3753(4) -0.30262(27)
N1A N -0.2575(5) 0.37632(17) -0.3564(4)
C5D C -0.1618(6) 0.56696(13) -0.1432(7)
C6D C -0.0823(4) 0.53398(9) -0.0615(6)
C7D C 0.09591(33) 0.53112(9) -0.0115(6)
C8D C -0.17695(22) 0.50369(11) -0.0454(6)
N2D N -0.35527(29) 0.50895(17) -0.0661(5)
C9F C -0.3028(5) 0.18264(11) 0.6220(5)
C10F C -0.2758(4) 0.21820(10) 0.5658(4)
C11F C -0.40716(29) 0.24444(12) 0.5036(5)
N3F N -0.5719(4) 0.24069(17) 0.5068(5)
C12F C -0.11886(33) 0.22304(10) 0.5606(5)
O7A O -0.1976(13) 0.34475(21) -0.3703(11)
O8A O -0.1831(12) 0.40723(20) -0.3549(11)
O9D O -0.3496(12) 0.53092(26) 0.0268(7)
O10D O -0.4495(11) 0.48847(26) -0.1636(7)
O11F O -0.5884(12) 0.26345(26) 0.5867(7)
O12F O -0.6787(10) 0.22296(29) 0.4107(8)
loop_
_geom_bond_atom_site_label_1
_geom_bond_atom_site_label_2
_geom_bond_site_symmetry_1
_geom_bond_site_symmetry_2
Sc1 O1 1_555 1_555
Sc2 O2 1_555 1_555
O1 C1 1_555 1_555
O2 C1 1_555 1_555
O3 Sc1 1_555 1_555
O4 C5 1_555 1_555
O5 Sc1 1_555 1_555
O6 Sc2 1_555 1_555
C1 C2 1_555 1_555
C2 C3 1_555 1_555
C3 C4A 1_555 1_555
C4 C2 1_555 1_555
N1 C4 1_555 1_555
C5 O3 1_555 1_555
C6 C5 1_555 1_555
C7 C6 1_555 1_555
C8 C6 1_555 1_555
N2 C8 1_555 1_555
C9 O5 1_555 1_555
C10 C9 1_555 1_555
C11 C10 1_555 1_555
N3 C11 1_555 1_555
C12 C10 1_555 1_555
O7 N1 1_555 1_555
O8 N1 1_555 1_555
O9 N2 1_555 1_555
O10 N2 1_555 1_555
O11 N3 1_555 1_555
O12 N3 1_555 1_555
Sc1_2 O1A_2 1_555 1_555
Sc1F O5F 1_555 1_555
Sc1D O3D 1_555 1_555
Sc2_2 O4 1_555 1_555
Sc2_3 O2A_2 1_555 1_555
Sc2F O6F 1_555 1_555
Sc2D O4D 1_555 1_555
O1A Sc1 1_555 1_555
O1A_2 C1A 1_555 1_555
O2A Sc2 1_555 1_555
O2A_2 C1A 1_555 1_555
O3A Sc1 1_555 1_555
O3D C5D 1_555 1_555
O4A Sc2 1_555 1_555
O4_2 Sc2 1_555 1_555
O4D C5D 1_555 1_555
O5A Sc1 1_555 1_555
O5F C9F 1_555 1_555
O6A Sc2 1_555 1_555
O6F C9F 1_555 1_555
C1A C2A 1_555 1_555
C2A C3A 1_555 1_555
C3A C4 1_555 1_555
C4A C2A 1_555 1_555
N1A C4A 1_555 1_555
C5D C6D 1_555 1_555
C6D C7D 1_555 1_555
C7D C8 1_555 1_555
C8D C7 1_555 1_555
N2D C8D 1_555 1_555
C9F C10F 1_555 1_555
C10F C11F 1_555 1_555
C11F C12 1_555 1_555
N3F C11F 1_555 1_555
C12F C11 1_555 1_555
O7A N1A 1_555 1_555
O8A N1A 1_555 1_555
O9D N2D 1_555 1_555
O10D N2D 1_555 1_555
O11F N3F 1_555 1_555
O12F N3F 1_555 1_555
O6 C9 1_555 1_555
C6D C8D 1_555 1_555
C10F C12F 1_555 1_555

#END
