
#######################################################################
#
#                 Cambridge Crystallographic Data Centre
#                                CCDC 
#
#######################################################################
#
# If this CIF has been generated from an entry in the Cambridge 
# Structural Database, then it will include bibliographic, chemical, 
# crystal, experimental, refinement or atomic coordinate data resulting 
# from the CCDC's data processing and validation procedures.
#
#######################################################################

data_MAYFOJ
_symmetry_cell_setting           orthorhombic
_symmetry_space_group_name_H-M   'P b c a'
_symmetry_Int_Tables_number      61
_space_group_name_Hall           '-P 2ac 2ab'
loop_
_symmetry_equiv_pos_site_id
_symmetry_equiv_pos_as_xyz
1 x,y,z
2 1/2+x,1/2-y,-z
3 -x,1/2+y,1/2-z
4 1/2-x,-y,1/2+z
5 -x,-y,-z
6 1/2-x,1/2+y,z
7 x,1/2-y,1/2+z
8 1/2+x,y,1/2-z
_cell_length_a                   11.7933(8)
_cell_length_b                   10.9709(7)
_cell_length_c                   15.6524(9)
_cell_angle_alpha                90
_cell_angle_beta                 90
_cell_angle_gamma                90
_cell_volume                     2025.16
loop_
_atom_site_label
_atom_site_type_symbol
_atom_site_fract_x
_atom_site_fract_y
_atom_site_fract_z
Ni1 Ni 0.072997(14) 0.907125(14) 0.350933(10)
O1 O -0.01429(9) 1.06331(9) 0.37538(7)
O2 O -0.08124(10) 0.81446(11) 0.34891(7)
O3 O 0.10860(8) 0.86921(8) 0.47714(6)
O4 O 0.21068(8) 0.74608(9) 0.56170(6)
O5 O 0.05778(8) 0.93860(9) 0.22446(6)
O6 O -0.06069(9) 0.79256(9) 0.17941(6)
N1 N 0.15959(9) 0.74360(10) 0.33890(7)
N2 N 0.28275(10) 0.52779(10) 0.34730(7)
C1 C 0.17136(10) 0.77646(11) 0.49181(8)
C2 C 0.19777(11) 0.70030(11) 0.41381(8)
C3 C 0.17936(11) 0.67751(12) 0.26892(8)
H1 H 0.1525 0.7045 0.2164
C4 C 0.23981(12) 0.56860(12) 0.27362(8)
H2 H 0.2506 0.5231 0.2242
C5 C 0.25986(11) 0.59331(11) 0.41781(8)
H3 H 0.2863 0.5662 0.4705
C6 C -0.00117(11) 0.88614(11) 0.16760(8)
C7 C 0.00064(11) 0.94421(11) 0.08047(8)
C8 C -0.05943(11) 0.89246(12) 0.01311(9)
H4 H -0.0991 0.8202 0.0215
C9 C 0.06038(12) 1.05188(12) 0.06648(8)
H5 H 0.1013 1.0868 0.1109
H6 H 0.0093(17) 1.1236(18) 0.3589(12)
H7 H -0.0447(18) 1.0775(16) 0.4204(13)
H8 H -0.1380(18) 0.8125(16) 0.3758(12)
H9 H -0.0943(16) 0.7990(17) 0.3011(13)
Ni1E Ni 0.427003(14) 1.407125(14) 0.350933(10)
Ni1E_2 Ni 0.427003(14) 0.407125(14) 0.350933(10)
Ni1D Ni -0.072997(14) 1.092875(14) -0.350933(10)
O1E O 0.51429(9) 1.56331(9) 0.37538(7)
O2E O 0.58124(10) 1.31446(11) 0.34891(7)
O3E O 0.39140(8) 1.36921(8) 0.47714(6)
O4E O 0.28932(8) 1.24608(9) 0.56170(6)
O5D O -0.05778(8) 1.06140(9) -0.22446(6)
O5E O 0.44222(8) 1.43860(9) 0.22446(6)
O6D O 0.06069(9) 1.20744(9) -0.17941(6)
N1E N 0.34041(9) 1.24360(10) 0.33890(7)
N2E N 0.21725(10) 1.02779(10) 0.34730(7)
N2_2 N 0.28275(10) 1.52779(10) 0.34730(7)
C1E C 0.32864(10) 1.27646(11) 0.49181(8)
C2E C 0.30223(11) 1.20030(11) 0.41381(8)
C3E C 0.32064(11) 1.17751(12) 0.26892(8)
H1E H 0.3475 1.2045 0.2164
C4E C 0.26019(12) 1.06860(12) 0.27362(8)
H2E H 0.2494 1.0231 0.2242
C5E C 0.24014(11) 1.09331(11) 0.41781(8)
H3E H 0.2137 1.0662 0.4705
C6D C 0.00117(11) 1.11386(11) -0.16760(8)
C7D C -0.00064(11) 1.05579(11) -0.08047(8)
C8D C 0.05943(11) 1.10754(12) -0.01311(9)
H4D H 0.0991 1.1798 -0.0215
C9D C -0.06038(12) 0.94812(12) -0.06648(8)
H5D H -0.1013 0.9132 -0.1109
H6E H 0.4907(17) 1.6236(18) 0.3589(12)
H7E H 0.5447(18) 1.5775(16) 0.4204(13)
H8E H 0.6380(18) 1.3125(16) 0.3758(12)
H9E H 0.5943(16) 1.2990(17) 0.3011(13)
loop_
_geom_bond_atom_site_label_1
_geom_bond_atom_site_label_2
_geom_bond_site_symmetry_1
_geom_bond_site_symmetry_2
Ni1 O1 1_555 1_555
O1 H6 1_555 1_555
O2 Ni1 1_555 1_555
O3 Ni1 1_555 1_555
O4 C1 1_555 1_555
O5 Ni1 1_555 1_555
O6 C6 1_555 1_555
N1 Ni1 1_555 1_555
N2 C4 1_555 1_555
C1 O3 1_555 1_555
C2 N1 1_555 1_555
C3 N1 1_555 1_555
H1 C3 1_555 1_555
C4 C3 1_555 1_555
H2 C4 1_555 1_555
C5 N2 1_555 1_555
H3 C5 1_555 1_555
C6 O5 1_555 1_555
C7 C6 1_555 1_555
C8 C7 1_555 1_555
H4 C8 1_555 1_555
C9 C7 1_555 1_555
H5 C9 1_555 1_555
H7 O1 1_555 1_555
H8 O2 1_555 1_555
H9 O2 1_555 1_555
Ni1E O1E 1_555 1_555
Ni1E_2 N2 1_555 1_555
Ni1D O5D 1_555 1_555
O1E H6E 1_555 1_555
O2E Ni1E 1_555 1_555
O3E Ni1E 1_555 1_555
O4E C1E 1_555 1_555
O5D C6D 1_555 1_555
O5E Ni1E 1_555 1_555
O6D C6D 1_555 1_555
N1E Ni1E 1_555 1_555
N2E Ni1 1_555 1_555
N2_2 Ni1E 1_555 1_555
C1E O3E 1_555 1_555
C2E N1E 1_555 1_555
C3E N1E 1_555 1_555
H1E C3E 1_555 1_555
C4E N2E 1_555 1_555
H2E C4E 1_555 1_555
C5E N2E 1_555 1_555
H3E C5E 1_555 1_555
C6D C7D 1_555 1_555
C7D C8D 1_555 1_555
C8D C9 1_555 1_555
H4D C8D 1_555 1_555
C9D C8 1_555 1_555
H5D C9D 1_555 1_555
H7E O1E 1_555 1_555
H8E O2E 1_555 1_555
H9E O2E 1_555 1_555
C1 C2 1_555 1_555
C2 C5 1_555 1_555
C1E C2E 1_555 1_555
C2E C5E 1_555 1_555
C3E C4E 1_555 1_555
C7D C9D 1_555 1_555

#END
