
#######################################################################
#
#                 Cambridge Crystallographic Data Centre
#                                CCDC 
#
#######################################################################
#
# If this CIF has been generated from an entry in the Cambridge 
# Structural Database, then it will include bibliographic, chemical, 
# crystal, experimental, refinement or atomic coordinate data resulting 
# from the CCDC's data processing and validation procedures.
#
#######################################################################

data_MAZGUQ
_symmetry_cell_setting           monoclinic
_symmetry_space_group_name_H-M   'P 21/n'
_symmetry_Int_Tables_number      14
_space_group_name_Hall           '-P 2yn'
loop_
_symmetry_equiv_pos_site_id
_symmetry_equiv_pos_as_xyz
1 x,y,z
2 1/2-x,1/2+y,1/2-z
3 -x,-y,-z
4 1/2+x,1/2-y,1/2+z
_cell_length_a                   10.429(5)
_cell_length_b                   19.863(10)
_cell_length_c                   11.165(7)
_cell_angle_alpha                90
_cell_angle_beta                 94.82(4)
_cell_angle_gamma                90
_cell_volume                     2304.66
loop_
_atom_site_label
_atom_site_type_symbol
_atom_site_fract_x
_atom_site_fract_y
_atom_site_fract_z
Mn1 Mn 0.0000 0.0000 0.0000
S1 S 0.31019(5) -0.04308(3) 0.33671(5)
N1 N 0.09278(14) -0.01776(7) 0.17997(15)
N2 N 0.16079(15) 0.22420(8) 0.25808(15)
N3 N 1.21458(15) 0.11715(8) 0.60422(16)
N4 N -0.08459(14) 0.09808(7) 0.05624(14)
N5 N 1.19172(14) 0.05050(7) 0.94948(15)
C1 C 0.18235(18) -0.02880(9) 0.24641(18)
C2 C 0.63731(17) 0.19212(9) 0.37579(16)
C3 C 0.53416(18) 0.14725(10) 0.36303(18)
H1 H 0.5491 0.1006 0.3770
C4 C 0.41105(18) 0.16949(10) 0.33049(18)
H2 H 0.3419 0.1382 0.3234
C5 C 0.38715(18) 0.23767(9) 0.30791(18)
C6 C 0.48938(18) 0.28243(10) 0.32235(17)
H3 H 0.4745 0.3291 0.3090
C7 C 0.61248(18) 0.26005(9) 0.35578(17)
H4 H 0.6811 0.2915 0.3652
C8 C 0.25754(19) 0.26228(10) 0.26845(18)
H5 H 0.2464 0.3087 0.2500
C9 C 0.03762(17) 0.25476(9) 0.21842(19)
H6 H 0.0526 0.2944 0.1676
H7 H -0.0043 0.2707 0.2895
C10 C 0.76978(18) 0.16778(9) 0.40834(17)
C11 C 0.85502(18) 0.20455(9) 0.48562(18)
H8 H 0.8292 0.2470 0.5146
C12 C 0.97655(18) 0.18030(9) 0.52079(18)
H9 H 1.0326 0.2059 0.5746
C13 C 1.01777(18) 0.11873(9) 0.47826(18)
C14 C 0.93480(18) 0.08323(9) 0.39830(17)
H10 H 0.9624 0.0418 0.3665
C15 C 0.81217(19) 0.10681(10) 0.36372(18)
H11 H 0.7566 0.0813 0.3093
C16 C 1.14146(18) 0.08942(10) 0.52277(19)
H12 H 1.1676 0.0482 0.4893
C17 C 1.32881(17) 0.08007(9) 0.65279(18)
H13 H 1.4077 0.1045 0.6350
H14 H 1.3305 0.0349 0.6154
C18 C -0.01036(17) 0.14314(9) 0.11763(17)
H15 H 0.0760 0.1308 0.1417
C19 C -0.05083(17) 0.20660(9) 0.14846(17)
C20 C -0.17672(18) 0.22402(9) 0.11275(18)
H16 H -0.2087 0.2672 0.1318
C21 C -0.25526(18) 0.17846(10) 0.04954(18)
H17 H -0.3420 0.1896 0.0247
C22 C -0.20613(17) 0.11663(9) 0.02296(18)
H18 H -0.2608 0.0855 -0.0211
C23 C 1.20825(17) 0.05567(8) 0.83264(18)
H19 H 1.1363 0.0466 0.7771
C24 C 1.32369(18) 0.07340(9) 0.78616(19)
C25 C 1.42747(18) 0.08614(10) 0.8684(2)
H20 H 1.5086 0.0976 0.8412
C26 C 1.41303(18) 0.08216(10) 0.9901(2)
H21 H 1.4833 0.0915 1.0475
C27 C 1.29482(18) 0.06433(9) 1.0266(2)
H22 H 1.2854 0.0616 1.1104
Mn1_2 Mn 1.0000 0.0000 1.0000
Mn1_3 Mn -1.0000 0.0000 -1.0000
S1B S -0.31019(5) 0.04308(3) -0.33671(5)
N1B N -0.09278(14) 0.01776(7) -0.17997(15)
N2B N -0.16079(15) -0.22420(8) -0.25808(15)
N3B N -1.21458(15) -0.11715(8) -0.60422(16)
N4B N 0.08459(14) -0.09808(7) -0.05624(14)
N5B N -1.19172(14) -0.05050(7) -0.94948(15)
N5_2 N 0.19172(14) 0.05050(7) -0.05052(15)
N5B_2 N -0.19172(14) -0.05050(7) 0.05052(15)
C1B C -0.18235(18) 0.02880(9) -0.24641(18)
C2B C -0.63731(17) -0.19212(9) -0.37579(16)
C3B C -0.53416(18) -0.14725(10) -0.36303(18)
H1B H -0.5491 -0.1006 -0.3770
C4B C -0.41105(18) -0.16949(10) -0.33049(18)
H2B H -0.3419 -0.1382 -0.3234
C5B C -0.38715(18) -0.23767(9) -0.30791(18)
C6B C -0.48938(18) -0.28243(10) -0.32235(17)
H3B H -0.4745 -0.3291 -0.3090
C7B C -0.61248(18) -0.26005(9) -0.35578(17)
H4B H -0.6811 -0.2915 -0.3652
C8B C -0.25754(19) -0.26228(10) -0.26845(18)
H5B H -0.2464 -0.3087 -0.2500
C9B C -0.03762(17) -0.25476(9) -0.21842(19)
H6B H -0.0526 -0.2944 -0.1676
H7B H 0.0043 -0.2707 -0.2895
C10B C -0.76978(18) -0.16778(9) -0.40834(17)
C11B C -0.85502(18) -0.20455(9) -0.48562(18)
H8B H -0.8292 -0.2470 -0.5146
C12B C -0.97655(18) -0.18030(9) -0.52079(18)
H9B H -1.0326 -0.2059 -0.5746
C13B C -1.01777(18) -0.11873(9) -0.47826(18)
C14B C -0.93480(18) -0.08323(9) -0.39830(17)
H10B H -0.9624 -0.0418 -0.3665
C15B C -0.81217(19) -0.10681(10) -0.36372(18)
H11B H -0.7566 -0.0813 -0.3093
C16B C -1.14146(18) -0.08942(10) -0.52277(19)
H12B H -1.1676 -0.0482 -0.4893
C17B C -1.32881(17) -0.08007(9) -0.65279(18)
H13B H -1.4077 -0.1045 -0.6350
H14B H -1.3305 -0.0349 -0.6154
C18B C 0.01036(17) -0.14314(9) -0.11763(17)
H15B H -0.0760 -0.1308 -0.1417
C19B C 0.05083(17) -0.20660(9) -0.14846(17)
C20B C 0.17672(18) -0.22402(9) -0.11275(18)
H16B H 0.2087 -0.2672 -0.1318
C21B C 0.25526(18) -0.17846(10) -0.04954(18)
H17B H 0.3420 -0.1896 -0.0247
C22B C 0.20613(17) -0.11663(9) -0.02296(18)
H18B H 0.2608 -0.0855 0.0211
C23B C -1.20825(17) -0.05567(8) -0.83264(18)
H19B H -1.1363 -0.0466 -0.7771
C24B C -1.32369(18) -0.07340(9) -0.78616(19)
C25B C -1.42747(18) -0.08614(10) -0.8684(2)
H20B H -1.5086 -0.0976 -0.8412
C26B C -1.41303(18) -0.08216(10) -0.9901(2)
H21B H -1.4833 -0.0915 -1.0475
C27B C -1.29482(18) -0.06433(9) -1.0266(2)
H22B H -1.2854 -0.0616 -1.1104
loop_
_geom_bond_atom_site_label_1
_geom_bond_atom_site_label_2
_geom_bond_site_symmetry_1
_geom_bond_site_symmetry_2
Mn1 N1 1_555 1_555
S1 C1 1_555 1_555
N1 C1 1_555 1_555
N2 C8 1_555 1_555
N3 C16 1_555 1_555
N4 Mn1 1_555 1_555
N5 C23 1_555 1_555
C2 C3 1_555 1_555
C3 H1 1_555 1_555
C4 C3 1_555 1_555
H2 C4 1_555 1_555
C5 C4 1_555 1_555
C6 C5 1_555 1_555
H3 C6 1_555 1_555
C7 C2 1_555 1_555
H4 C7 1_555 1_555
C8 C5 1_555 1_555
H5 C8 1_555 1_555
C9 N2 1_555 1_555
H6 C9 1_555 1_555
H7 C9 1_555 1_555
C10 C2 1_555 1_555
C11 C10 1_555 1_555
H8 C11 1_555 1_555
C12 C11 1_555 1_555
H9 C12 1_555 1_555
C13 C12 1_555 1_555
C14 C13 1_555 1_555
H10 C14 1_555 1_555
C15 C10 1_555 1_555
H11 C15 1_555 1_555
C16 C13 1_555 1_555
H12 C16 1_555 1_555
C17 N3 1_555 1_555
H13 C17 1_555 1_555
H14 C17 1_555 1_555
C18 N4 1_555 1_555
H15 C18 1_555 1_555
C19 C9 1_555 1_555
C20 C19 1_555 1_555
H16 C20 1_555 1_555
C21 C20 1_555 1_555
H17 C21 1_555 1_555
C22 N4 1_555 1_555
H18 C22 1_555 1_555
C23 H19 1_555 1_555
C24 C17 1_555 1_555
C25 C24 1_555 1_555
H20 C25 1_555 1_555
C26 C25 1_555 1_555
H21 C26 1_555 1_555
C27 N5 1_555 1_555
H22 C27 1_555 1_555
Mn1_2 N5 1_555 1_555
Mn1_3 N5B 1_555 1_555
S1B C1B 1_555 1_555
N1B Mn1 1_555 1_555
N2B C8B 1_555 1_555
N3B C16B 1_555 1_555
N4B Mn1 1_555 1_555
N5B C23B 1_555 1_555
N5_2 Mn1 1_555 1_555
N5B_2 Mn1 1_555 1_555
C1B N1B 1_555 1_555
C2B C3B 1_555 1_555
C3B H1B 1_555 1_555
C4B C3B 1_555 1_555
H2B C4B 1_555 1_555
C5B C4B 1_555 1_555
C6B C5B 1_555 1_555
H3B C6B 1_555 1_555
C7B C2B 1_555 1_555
H4B C7B 1_555 1_555
C8B C5B 1_555 1_555
H5B C8B 1_555 1_555
C9B N2B 1_555 1_555
H6B C9B 1_555 1_555
H7B C9B 1_555 1_555
C10B C2B 1_555 1_555
C11B C10B 1_555 1_555
H8B C11B 1_555 1_555
C12B C11B 1_555 1_555
H9B C12B 1_555 1_555
C13B C12B 1_555 1_555
C14B C13B 1_555 1_555
H10B C14B 1_555 1_555
C15B C10B 1_555 1_555
H11B C15B 1_555 1_555
C16B C13B 1_555 1_555
H12B C16B 1_555 1_555
C17B N3B 1_555 1_555
H13B C17B 1_555 1_555
H14B C17B 1_555 1_555
C18B N4B 1_555 1_555
H15B C18B 1_555 1_555
C19B C9B 1_555 1_555
C20B C19B 1_555 1_555
H16B C20B 1_555 1_555
C21B C20B 1_555 1_555
H17B C21B 1_555 1_555
C22B N4B 1_555 1_555
H18B C22B 1_555 1_555
C23B H19B 1_555 1_555
C24B C17B 1_555 1_555
C25B C24B 1_555 1_555
H20B C25B 1_555 1_555
C26B C25B 1_555 1_555
H21B C26B 1_555 1_555
C27B N5B 1_555 1_555
H22B C27B 1_555 1_555
C6 C7 1_555 1_555
C14 C15 1_555 1_555
C18 C19 1_555 1_555
C21 C22 1_555 1_555
C23 C24 1_555 1_555
C26 C27 1_555 1_555
C6B C7B 1_555 1_555
C14B C15B 1_555 1_555
C18B C19B 1_555 1_555
C21B C22B 1_555 1_555
C23B C24B 1_555 1_555
C26B C27B 1_555 1_555

#END
