
#######################################################################
#
#                 Cambridge Crystallographic Data Centre
#                                CCDC 
#
#######################################################################
#
# If this CIF has been generated from an entry in the Cambridge 
# Structural Database, then it will include bibliographic, chemical, 
# crystal, experimental, refinement or atomic coordinate data resulting 
# from the CCDC's data processing and validation procedures.
#
#######################################################################

data_MAZSOX
_symmetry_cell_setting           monoclinic
_symmetry_space_group_name_H-M   'C 2/m'
_symmetry_Int_Tables_number      12
_space_group_name_Hall           '-C 2y'
loop_
_symmetry_equiv_pos_site_id
_symmetry_equiv_pos_as_xyz
1 x,y,z
2 -x,y,-z
3 1/2+x,1/2+y,z
4 1/2-x,1/2+y,-z
5 -x,-y,-z
6 x,-y,z
7 1/2-x,1/2-y,-z
8 1/2+x,1/2-y,z
_cell_length_a                   14.6607(6)
_cell_length_b                   17.0094(6)
_cell_length_c                   9.2069(4)
_cell_angle_alpha                90
_cell_angle_beta                 100.892(4)
_cell_angle_gamma                90
_cell_volume                     2254.56
loop_
_atom_site_label
_atom_site_type_symbol
_atom_site_fract_x
_atom_site_fract_y
_atom_site_fract_z
O3 O 0.5000 0.0000 0.0000
O4 O 0.0000 0.1213(15) 0.5000
Zn1 Zn 0.5000 -0.5000 0.0000
Zn2 Zn 0.58810(10) -0.493(2) -0.33789(15)
N1 N 0.4516(6) -0.5000 -0.3320(9)
O1 O 0.3406(5) -0.4104(4) 0.2448(7)
O2 O 0.4172(6) -0.4099(5) 0.0606(8)
N2 N 0.4153(6) -0.5000 -0.2132(10)
C1 C 0.3570(6) -0.3836(5) 0.1256(9)
C2 C 0.3022(6) -0.3143(5) 0.0620(9)
N3 N 0.3892(7) -0.5000 -0.4550(11)
C3 C 0.3172(11) -0.2794(9) -0.0649(14)
H1 H 0.3649 -0.2977 -0.1096
C4 C 0.3225(10) -0.5000 -0.2605(15)
C5 C 0.2362(10) -0.2817(8) 0.1274(14)
H2 H 0.2270 -0.3016 0.2176
C6 C 0.3047(10) -0.5000 -0.4144(16)
C7 C 0.2466(11) -0.5000 -0.1835(19)
H3 H 0.2559 -0.5000 -0.0808
C8 C 0.1634(13) -0.5000 -0.265(2)
H4 H 0.1130 -0.5000 -0.2175
C9 C 0.2178(12) -0.5000 -0.498(2)
H5 H 0.2081 -0.5000 -0.6008
C10 C 0.1448(12) -0.5000 -0.423(3)
H6 H 0.0839 -0.5000 -0.4753
Zn1B Zn 0.0000 0.0000 0.0000
Zn1B_2 Zn 1.0000 0.0000 0.0000
Zn2A Zn 0.41190(10) -0.493(2) 0.33789(15)
Zn2G Zn 0.08810(10) -0.007(2) -0.33789(15)
Zn2F Zn 0.91190(10) -0.007(2) 0.33789(15)
Zn2E Zn 0.58810(10) -0.507(2) -0.33789(15)
Zn2D Zn 0.41190(10) -0.507(2) 0.33789(15)
Zn2A_2 Zn 0.41190(10) -0.493(2) -0.66211(15)
Zn2D_2 Zn 0.41190(10) -0.507(2) -0.66211(15)
Zn2B Zn 0.08810(10) 0.007(2) -0.33789(15)
Zn2C Zn 0.91190(10) 0.007(2) 0.33789(15)
Zn2_2 Zn 0.58810(10) -0.493(2) 0.66211(15)
Zn2E_2 Zn 0.58810(10) -0.507(2) 0.66211(15)
N1A N 0.5484(6) -0.5000 0.3320(9)
N1B N -0.0484(6) 0.0000 -0.3320(9)
N1C N 1.0484(6) 0.0000 0.3320(9)
O1F O 0.1594(5) -0.0896(4) -0.2448(7)
O1A O 0.6594(5) -0.4104(4) -0.2448(7)
O1G O 0.8406(5) -0.0896(4) 0.2448(7)
O1D O 0.6594(5) -0.5896(4) -0.2448(7)
O1E O 0.3406(5) -0.5896(4) 0.2448(7)
O1C O 0.1594(5) 0.0896(4) -0.2448(7)
O1B O 0.8406(5) 0.0896(4) 0.2448(7)
O2F O 0.0828(6) -0.0901(5) -0.0606(8)
O2A O 0.5828(6) -0.4099(5) -0.0606(8)
O2G O 0.9172(6) -0.0901(5) 0.0606(8)
O2D O 0.5828(6) -0.5901(5) -0.0606(8)
O2E O 0.4172(6) -0.5901(5) 0.0606(8)
N2A N 0.5847(6) -0.5000 0.2132(10)
C1F C 0.1430(6) -0.1164(5) -0.1256(9)
C1A C 0.6430(6) -0.3836(5) -0.1256(9)
C1G C 0.8570(6) -0.1164(5) 0.1256(9)
C2F C 0.1978(6) -0.1857(5) -0.0620(9)
C2A C 0.6978(6) -0.3143(5) -0.0620(9)
C2G C 0.8022(6) -0.1857(5) 0.0620(9)
N3A N 0.6108(7) -0.5000 0.4550(11)
N3A_2 N 0.6108(7) -0.5000 -0.5450(11)
N3_2 N 0.3892(7) -0.5000 0.5450(11)
N3C N 0.1108(7) 0.0000 -0.5450(11)
N3B N 0.8892(7) 0.0000 0.5450(11)
C3F C 0.1828(11) -0.2206(9) 0.0649(14)
C3A C 0.6828(11) -0.2794(9) 0.0649(14)
C3G C 0.8172(11) -0.2206(9) -0.0649(14)
H1F H 0.1351 -0.2023 0.1096
H1A H 0.6351 -0.2977 0.1096
H1G H 0.8649 -0.2023 -0.1096
C4A C 0.6775(10) -0.5000 0.2605(15)
C5F C 0.2638(10) -0.2183(8) -0.1274(14)
C5A C 0.7638(10) -0.2817(8) -0.1274(14)
C5G C 0.7362(10) -0.2183(8) 0.1274(14)
H2F H 0.2730 -0.1984 -0.2176
H2A H 0.7730 -0.3016 -0.2176
H2G H 0.7270 -0.1984 0.2176
C6A C 0.6953(10) -0.5000 0.4144(16)
C7A C 0.7534(11) -0.5000 0.1835(19)
H3A H 0.7441 -0.5000 0.0808
C8A C 0.8366(13) -0.5000 0.265(2)
H4A H 0.8870 -0.5000 0.2175
C9A C 0.7822(12) -0.5000 0.498(2)
H5A H 0.7919 -0.5000 0.6008
C10A C 0.8552(12) -0.5000 0.423(3)
H6A H 0.9161 -0.5000 0.4753
loop_
_geom_bond_atom_site_label_1
_geom_bond_atom_site_label_2
_geom_bond_site_symmetry_1
_geom_bond_site_symmetry_2
Zn1 O2 1_555 1_555
Zn2 N1 1_555 1_555
N1 N2 1_555 1_555
O1 C1 1_555 1_555
O2 C1 1_555 1_555
N2 Zn1 1_555 1_555
C1 C2 1_555 1_555
C2 C3 1_555 1_555
N3 N1 1_555 1_555
C3 H1 1_555 1_555
C4 N2 1_555 1_555
C5 C2 1_555 1_555
H2 C5 1_555 1_555
C6 N3 1_555 1_555
C7 C4 1_555 1_555
H3 C7 1_555 1_555
C8 C7 1_555 1_555
H4 C8 1_555 1_555
C9 C6 1_555 1_555
H5 C9 1_555 1_555
C10 C8 1_555 1_555
H6 C10 1_555 1_555
Zn1B O2F 1_555 1_555
Zn1B_2 O2G 1_555 1_555
Zn2A O1 1_555 1_555
Zn2G Zn2B 1_555 1_555
Zn2F Zn2C 1_555 1_555
Zn2E Zn2 1_555 1_555
Zn2D O1 1_555 1_555
Zn2A_2 N3 1_555 1_555
Zn2D_2 N3 1_555 1_555
Zn2B N1B 1_555 1_555
Zn2C N1C 1_555 1_555
Zn2_2 Zn2E_2 1_555 1_555
Zn2E_2 N3A 1_555 1_555
N1A Zn2A 1_555 1_555
N1B Zn2G 1_555 1_555
N1C Zn2F 1_555 1_555
O1F Zn2G 1_555 1_555
O1A Zn2 1_555 1_555
O1G Zn2F 1_555 1_555
O1D Zn2 1_555 1_555
O1E Zn2A 1_555 1_555
O1C Zn2G 1_555 1_555
O1B Zn2F 1_555 1_555
O2F C1F 1_555 1_555
O2A Zn1 1_555 1_555
O2G C1G 1_555 1_555
O2D Zn1 1_555 1_555
O2E Zn1 1_555 1_555
N2A Zn1 1_555 1_555
C1F O1F 1_555 1_555
C1A O1A 1_555 1_555
C1G O1G 1_555 1_555
C2F C1F 1_555 1_555
C2A C1A 1_555 1_555
C2G C1G 1_555 1_555
N3A Zn2_2 1_555 1_555
N3A_2 Zn2 1_555 1_555
N3_2 Zn2A 1_555 1_555
N3C Zn2G 1_555 1_555
N3B Zn2F 1_555 1_555
C3F C5 1_555 1_555
C3A C2A 1_555 1_555
C3G C2G 1_555 1_555
H1F C3F 1_555 1_555
H1A C3A 1_555 1_555
H1G C3G 1_555 1_555
C4A N2A 1_555 1_555
C5F C3 1_555 1_555
C5A C2A 1_555 1_555
C5G C2G 1_555 1_555
H2F C5F 1_555 1_555
H2A C5A 1_555 1_555
H2G C5G 1_555 1_555
C6A N3A 1_555 1_555
C7A C4A 1_555 1_555
H3A C7A 1_555 1_555
C8A C7A 1_555 1_555
H4A C8A 1_555 1_555
C9A C6A 1_555 1_555
H5A C9A 1_555 1_555
C10A C8A 1_555 1_555
H6A C10A 1_555 1_555
N1 Zn2E 1_555 1_555
C4 C6 1_555 1_555
C9 C10 1_555 1_555
Zn2A Zn2D 1_555 1_555
Zn2E O1A 1_555 1_555
Zn2E O1D 1_555 1_555
Zn2E N3A_2 1_555 1_555
Zn2D N1A 1_555 1_555
Zn2D O1E 1_555 1_555
Zn2D N3_2 1_555 1_555
Zn2A_2 Zn2D_2 1_555 1_555
Zn2B O1F 1_555 1_555
Zn2B O1C 1_555 1_555
Zn2B N3C 1_555 1_555
Zn2C O1G 1_555 1_555
Zn2C O1B 1_555 1_555
Zn2C N3B 1_555 1_555
N1A N2A 1_555 1_555
N1A N3A 1_555 1_555
O2A C1A 1_555 1_555
C2F C3F 1_555 1_555
C2F C5F 1_555 1_555
C3A C5G 1_555 1_555
C3G C5A 1_555 1_555
C4A C6A 1_555 1_555
C9A C10A 1_555 1_555

#END
