
#######################################################################
#
#                 Cambridge Crystallographic Data Centre
#                                CCDC 
#
#######################################################################
#
# If this CIF has been generated from an entry in the Cambridge 
# Structural Database, then it will include bibliographic, chemical, 
# crystal, experimental, refinement or atomic coordinate data resulting 
# from the CCDC's data processing and validation procedures.
#
#######################################################################

data_MEJZOS
_symmetry_cell_setting           triclinic
_symmetry_space_group_name_H-M   'P -1'
_symmetry_Int_Tables_number      2
_space_group_name_Hall           '-P 1'
loop_
_symmetry_equiv_pos_site_id
_symmetry_equiv_pos_as_xyz
1 x,y,z
2 -x,-y,-z
_cell_length_a                   15.122(3)
_cell_length_b                   15.167(4)
_cell_length_c                   15.242(3)
_cell_angle_alpha                106.199(4)
_cell_angle_beta                 103.350(4)
_cell_angle_gamma                116.990(4)
_cell_volume                     2717.83
loop_
_atom_site_label
_atom_site_type_symbol
_atom_site_fract_x
_atom_site_fract_y
_atom_site_fract_z
Pr1 Pr 0.18107(8) -0.11428(8) 0.31789(8)
Pr2 Pr 0.44289(8) 0.13416(8) 0.30236(8)
Pr3 Pr 0.58479(8) -0.06337(8) 0.35524(8)
P1 P 0.3833(4) -0.1424(4) 0.4764(4)
P2 P 0.3051(4) -0.1742(4) 0.1963(3)
P3 P 0.3747(4) 0.1916(4) 0.4815(4)
O1 O 0.4418(9) -0.0983(9) 0.5887(8)
O2 O 0.4548(9) -0.1263(9) 0.4202(9)
O3 O 0.3175(9) -0.0914(10) 0.4625(8)
O4 O 0.0734(16) -0.6076(18) -0.0338(13)
O5 O 0.226(2) -0.603(2) -0.0014(17)
H1 H 0.2009 -0.6269 -0.0653
O6 O 0.2207(9) -0.2485(9) 0.2260(8)
O7 O 0.3285(9) -0.0579(9) 0.2479(8)
O8 O 0.4075(9) -0.1743(10) 0.2134(8)
O9 O 0.5020(10) -0.0500(9) -0.1811(9)
O10 O 0.3718(12) -0.0264(12) -0.2436(10)
O11 O 0.3866(10) 0.1837(9) 0.5787(8)
O12 O 0.3121(8) 0.0777(9) 0.3899(8)
O13 O 0.4764(8) 0.2642(9) 0.4702(8)
O14 O -0.2135(10) 0.0381(11) 0.4029(9)
O15 O -0.1357(10) 0.0396(10) 0.5456(9)
O16 O 0.0858(10) -0.2746(10) 0.3623(9)
O17 O -0.0213(11) -0.2908(11) 0.2256(10)
O18 O -0.3512(10) -0.7176(11) 0.3585(10)
O19 O -0.4647(11) -0.6943(11) 0.2643(11)
O20 O 0.0582(11) -0.0532(11) 0.2553(9)
O21 O 0.0979(11) -0.1358(12) 0.1457(10)
O22 O -0.3012(10) -0.1794(11) -0.2411(10)
O23 O -0.3183(11) -0.0725(12) -0.1260(10)
O24 O 0.5959(13) -0.1954(13) 0.2221(11)
H2 H 0.6572 -0.1606 0.2180
H3 H 0.5908 -0.2473 0.2376
N1 N 0.2547(14) -0.3586(14) 0.3227(12)
H18 H 0.2487 -0.3191 0.2889
N2 N 0.2873(11) -0.1654(12) 0.0132(10)
H19 H 0.3417 -0.0967 0.0608
N3 N 0.1779(12) 0.1775(12) 0.4591(11)
H20 H 0.1606 0.1082 0.4442
C1 C 0.2915(14) -0.2898(14) 0.4322(12)
H21 H 0.3269 -0.3145 0.4716
H22 H 0.2266 -0.3043 0.4431
C2 C 0.1468(16) -0.4656(17) 0.2762(15)
H23 H 0.1539 -0.5124 0.3059
H24 H 0.0937 -0.4529 0.2909
C3 C 0.1047(19) -0.5259(19) 0.1631(16)
H25 H 0.0343 -0.5949 0.1346
H26 H 0.0959 -0.4799 0.1332
C4 C 0.1930(19) -0.5443(19) 0.1371(18)
H27 H 0.1952 -0.5973 0.1599
C5 C 0.3056(17) -0.4362(17) 0.1934(15)
H28 H 0.3588 -0.4515 0.1831
H29 H 0.3060 -0.3861 0.1651
C6 C 0.3380(16) -0.3817(17) 0.3057(15)
H30 H 0.4108 -0.3147 0.3401
H31 H 0.3378 -0.4323 0.3333
C7 C 0.158(3) -0.589(2) 0.024(2)
C8 C 0.2253(14) -0.2270(16) 0.0608(12)
H32 H 0.1626 -0.2217 0.0521
H33 H 0.1982 -0.3036 0.0273
C9 C 0.3395(15) -0.2191(15) -0.0313(13)
H34 H 0.2820 -0.2932 -0.0809
H35 H 0.3861 -0.2230 0.0213
C10 C 0.4073(15) -0.1533(15) -0.0758(13)
H36 H 0.4343 -0.1935 -0.1074
H37 H 0.4702 -0.0827 -0.0244
C11 C 0.3421(14) -0.1347(15) -0.1518(13)
H38 H 0.2859 -0.2063 -0.2062
C12 C 0.2835(14) -0.0881(15) -0.1096(13)
H39 H 0.2338 -0.0882 -0.1632
H40 H 0.3372 -0.0127 -0.0607
C13 C 0.2218(14) -0.1519(16) -0.0617(13)
H41 H 0.1901 -0.1163 -0.0322
H42 H 0.1625 -0.2250 -0.1119
C14 C 0.4087(15) -0.0676(15) -0.1953(13)
C15 C 0.2906(14) 0.2464(15) 0.4601(15)
H43 H 0.3297 0.3193 0.5136
H44 H 0.2811 0.2529 0.3975
C16 C 0.0950(14) 0.1716(16) 0.3817(14)
H45 H 0.1124 0.2454 0.3998
H46 H 0.0954 0.1456 0.3168
C17 C -0.0174(16) 0.1027(16) 0.3777(14)
H47 H -0.0714 0.1024 0.3281
H48 H -0.0362 0.0283 0.3582
C18 C -0.0197(14) 0.1416(15) 0.4795(13)
H49 H -0.0055 0.2141 0.4951
C19 C 0.0737(14) 0.1551(16) 0.5613(14)
H50 H 0.0765 0.1885 0.6262
H51 H 0.0580 0.0828 0.5503
C20 C 0.1810(16) 0.2232(16) 0.5600(14)
H52 H 0.2377 0.2269 0.6098
H53 H 0.1993 0.2970 0.5757
C21 C -0.1303(16) 0.0674(16) 0.4772(15)
C22 C 0.0451(17) -0.0971(18) 0.1661(16)
C23 C -0.0411(16) -0.1088(17) 0.0798(14)
C24 C -0.0477(15) -0.1426(16) -0.0162(14)
H54 H -0.0002 -0.1655 -0.0291
C25 C -0.1250(15) -0.1515(16) -0.0908(14)
H55 H -0.1288 -0.1750 -0.1578
C26 C -0.1965(16) -0.1204(17) -0.0715(14)
C27 C -0.1912(16) -0.0899(17) 0.0258(14)
H56 H -0.2406 -0.0697 0.0384
C28 C -0.1122(17) -0.0808(18) 0.1061(15)
H57 H -0.0618 -0.0052 0.1218
C29 C -0.2771(15) -0.1231(16) -0.1489(15)
C30 C -0.0085(15) -0.3229(15) 0.2922(14)
C31 C -0.1028(16) -0.4157(16) 0.2951(14)
C32 C -0.0858(17) -0.4476(16) 0.3669(15)
H58 H -0.0119 -0.4106 0.4169
C33 C -0.1693(15) -0.5271(16) 0.3749(14)
H59 H -0.1577 -0.5502 0.4275
C34 C -0.2767(15) -0.5802(15) 0.3043(13)
C35 C -0.2957(15) -0.5442(16) 0.2312(14)
H60 H -0.3694 -0.5784 0.1821
C36 C -0.2066(15) -0.4631(15) 0.2267(14)
H61 H -0.2169 -0.4440 0.1711
C37 C -0.3703(16) -0.6685(16) 0.3106(14)
Pr1A Pr -0.18107(8) 0.11428(8) 0.68211(8)
Pr2A Pr 0.55711(8) -0.13416(8) -0.30236(8)
Pr2A_2 Pr 0.55711(8) -0.13416(8) 0.69764(8)
Pr2_2 Pr -0.55711(8) -0.86584(8) 0.30236(8)
Pr2A_3 Pr -0.44289(8) -0.13416(8) -0.30236(8)
Pr3A Pr 0.41521(8) 0.06337(8) 0.64476(8)
Pr3A_2 Pr 0.41521(8) 0.06337(8) -0.35524(8)
Pr3_2 Pr -0.41521(8) -0.06337(8) 0.35524(8)
O1A O 0.5582(9) 0.0983(9) 0.4113(8)
O3A O 0.6825(9) 0.0914(10) 0.5375(8)
O9A O 0.4980(10) 0.0500(9) 0.1811(9)
O10A O 0.6282(12) 0.0264(12) 0.2436(10)
O11A O 0.6134(10) -0.1837(9) 0.4213(8)
O14_2 O 0.7865(10) 0.0381(11) 0.4029(9)
O15A O 0.1357(10) -0.0396(10) 0.4544(9)
O18_2 O 0.6488(10) 0.2824(11) 0.3585(10)
O19_2 O 0.5353(11) 0.3057(11) 0.2643(11)
O22A O 0.3012(10) 0.1794(11) 0.2411(10)
O23A O 0.3183(11) 0.0725(12) 0.1260(10)
O25 O 0.8326(13) -0.7424(13) 0.4024(13)
H4 H 0.8297 -0.7621 0.4500
H5 H 0.8016 -0.7992 0.3471
O26 O 0.401(2) -0.4808(17) 0.490(2)
H6 H 0.4708 -0.4455 0.5112
H7 H 0.3823 -0.4925 0.5366
O27 O 0.659(3) -0.392(3) 0.696(3)
H8 H 0.7265 -0.3493 0.7095
H9 H 0.6362 -0.4574 0.6568
O28 O 0.583(4) -0.389(3) 0.206(3)
H10 H 0.5968 -0.4120 0.2495
H11 H 0.5475 -0.4424 0.1470
O29 O 0.795(8) -0.224(8) 0.198(7)
H12 H 0.8301 -0.1795 0.1768
H13 H 0.7619 -0.2901 0.1539
O30 O 0.028(3) -0.323(3) 0.685(3)
H14 H -0.0047 -0.2964 0.7087
H15 H -0.0148 -0.3934 0.6560
O31 O 0.493(4) -0.529(3) 0.288(3)
H16 H 0.4836 -0.5603 0.3266
H17 H 0.4612 -0.5771 0.2270
loop_
_geom_bond_atom_site_label_1
_geom_bond_atom_site_label_2
_geom_bond_site_symmetry_1
_geom_bond_site_symmetry_2
Pr1 O3 1_555 1_555
Pr2 O7 1_555 1_555
Pr3 O2 1_555 1_555
P1 O1 1_555 1_555
P2 O6 1_555 1_555
P3 O11 1_555 1_555
O1 Pr2A_2 1_555 1_555
O2 P1 1_555 1_555
O3 P1 1_555 1_555
O4 C7 1_555 1_555
O5 H1 1_555 1_555
O6 Pr1 1_555 1_555
O7 Pr1 1_555 1_555
O8 Pr3 1_555 1_555
O9 C14 1_555 1_555
O10 C14 1_555 1_555
O11 Pr3A 1_555 1_555
O12 Pr1 1_555 1_555
O13 Pr2 1_555 1_555
O14 C21 1_555 1_555
O15 C21 1_555 1_555
O16 Pr1 1_555 1_555
O17 Pr1 1_555 1_555
O18 C37 1_555 1_555
O19 C37 1_555 1_555
O20 Pr1 1_555 1_555
O21 Pr1 1_555 1_555
O22 C29 1_555 1_555
O23 C29 1_555 1_555
O24 Pr3 1_555 1_555
H2 O24 1_555 1_555
H3 O24 1_555 1_555
O25 H4 1_555 1_555
H5 O25 1_555 1_555
O26 H6 1_555 1_555
H7 O26 1_555 1_555
O27 H8 1_555 1_555
H9 O27 1_555 1_555
O28 H10 1_555 1_555
H11 O28 1_555 1_555
O29 H12 1_555 1_555
H13 O29 1_555 1_555
O30 H14 1_555 1_555
H15 O30 1_555 1_555
O31 H16 1_555 1_555
H17 O31 1_555 1_555
N1 H18 1_555 1_555
N2 H19 1_555 1_555
N3 H20 1_555 1_555
C1 P1 1_555 1_555
H21 C1 1_555 1_555
H22 C1 1_555 1_555
C2 N1 1_555 1_555
H23 C2 1_555 1_555
H24 C2 1_555 1_555
C3 C2 1_555 1_555
H25 C3 1_555 1_555
H26 C3 1_555 1_555
C4 C3 1_555 1_555
H27 C4 1_555 1_555
C5 C4 1_555 1_555
H28 C5 1_555 1_555
H29 C5 1_555 1_555
C6 N1 1_555 1_555
H30 C6 1_555 1_555
H31 C6 1_555 1_555
C7 O5 1_555 1_555
C8 P2 1_555 1_555
H32 C8 1_555 1_555
H33 C8 1_555 1_555
C9 N2 1_555 1_555
H34 C9 1_555 1_555
H35 C9 1_555 1_555
C10 C9 1_555 1_555
H36 C10 1_555 1_555
H37 C10 1_555 1_555
C11 C10 1_555 1_555
H38 C11 1_555 1_555
C12 C11 1_555 1_555
H39 C12 1_555 1_555
H40 C12 1_555 1_555
C13 N2 1_555 1_555
H41 C13 1_555 1_555
H42 C13 1_555 1_555
C14 C11 1_555 1_555
C15 P3 1_555 1_555
H43 C15 1_555 1_555
H44 C15 1_555 1_555
C16 N3 1_555 1_555
H45 C16 1_555 1_555
H46 C16 1_555 1_555
C17 C16 1_555 1_555
H47 C17 1_555 1_555
H48 C17 1_555 1_555
C18 C17 1_555 1_555
H49 C18 1_555 1_555
C19 C18 1_555 1_555
H50 C19 1_555 1_555
H51 C19 1_555 1_555
C20 N3 1_555 1_555
H52 C20 1_555 1_555
H53 C20 1_555 1_555
C21 C18 1_555 1_555
C22 O20 1_555 1_555
C23 C22 1_555 1_555
C24 C23 1_555 1_555
H54 C24 1_555 1_555
C25 C24 1_555 1_555
H55 C25 1_555 1_555
C26 C25 1_555 1_555
C27 C26 1_555 1_555
H56 C27 1_555 1_555
C28 C23 1_555 1_555
H57 C28 1_555 1_555
C29 C26 1_555 1_555
C30 O16 1_555 1_555
C31 C30 1_555 1_555
C32 C31 1_555 1_555
H58 C32 1_555 1_555
C33 C32 1_555 1_555
H59 C33 1_555 1_555
C34 C33 1_555 1_555
C35 C34 1_555 1_555
H60 C35 1_555 1_555
C36 C31 1_555 1_555
H61 C36 1_555 1_555
C37 C34 1_555 1_555
Pr1A O15 1_555 1_555
Pr2A O9 1_555 1_555
Pr2_2 O18 1_555 1_555
Pr2A_3 O22 1_555 1_555
Pr3A O1 1_555 1_555
Pr3A_2 O10 1_555 1_555
Pr3_2 O14 1_555 1_555
O1A Pr2 1_555 1_555
O3A Pr3 1_555 1_555
O9A Pr2 1_555 1_555
O10A Pr3 1_555 1_555
O11A Pr3 1_555 1_555
O14_2 Pr3 1_555 1_555
O15A Pr1 1_555 1_555
O18_2 Pr2 1_555 1_555
O19_2 Pr2 1_555 1_555
O22A Pr2 1_555 1_555
O23A Pr2 1_555 1_555
Pr2 O12 1_555 1_555
Pr3 O1A 1_555 1_555
P2 O7 1_555 1_555
P2 O8 1_555 1_555
P3 O12 1_555 1_555
P3 O13 1_555 1_555
O3 Pr3A 1_555 1_555
O17 C30 1_555 1_555
O19 Pr2_2 1_555 1_555
O21 C22 1_555 1_555
O23 Pr2A_3 1_555 1_555
N1 C1 1_555 1_555
N2 C8 1_555 1_555
N3 C15 1_555 1_555
C4 C7 1_555 1_555
C5 C6 1_555 1_555
C12 C13 1_555 1_555
C19 C20 1_555 1_555
C27 C28 1_555 1_555
C35 C36 1_555 1_555

#END
