
#######################################################################
#
#                 Cambridge Crystallographic Data Centre
#                                CCDC 
#
#######################################################################
#
# If this CIF has been generated from an entry in the Cambridge 
# Structural Database, then it will include bibliographic, chemical, 
# crystal, experimental, refinement or atomic coordinate data resulting 
# from the CCDC's data processing and validation procedures.
#
#######################################################################

data_MIBMER
_symmetry_cell_setting           tetragonal
_symmetry_space_group_name_H-M   'P 43 21 2'
_symmetry_Int_Tables_number      96
_space_group_name_Hall           'P 4nw 2abw'
loop_
_symmetry_equiv_pos_site_id
_symmetry_equiv_pos_as_xyz
1 x,y,z
2 -x,-y,1/2+z
3 1/2-y,1/2+x,3/4+z
4 1/2+y,1/2-x,1/4+z
5 1/2-x,1/2+y,3/4-z
6 1/2+x,1/2-y,1/4-z
7 y,x,-z
8 -y,-x,1/2-z
_cell_length_a                   21.800(3)
_cell_length_b                   21.800(3)
_cell_length_c                   35.407(7)
_cell_angle_alpha                90
_cell_angle_beta                 90
_cell_angle_gamma                90
_cell_volume                     16826.8
loop_
_atom_site_label
_atom_site_type_symbol
_atom_site_fract_x
_atom_site_fract_y
_atom_site_fract_z
Fe1 Fe 0.28091(7) 0.00020(8) 0.09865(4)
Fe2 Fe 0.34289(7) -0.00270(7) 0.01349(4)
Fe3 Fe 0.19267(7) 0.00724(7) 0.02319(4)
O1 O 0.3524(4) 0.0609(4) 0.0976(2)
O2 O 0.3853(4) 0.0686(4) 0.0373(2)
C1 C 0.3848(6) 0.0847(5) 0.0717(4)
C2 C 0.4279(6) 0.1349(6) 0.0817(4)
C3 C 0.4475(6) 0.1425(6) 0.1197(4)
H1 H 0.4337 0.1147 0.1386
C4 C 0.4856(6) 0.1892(7) 0.1292(4)
H2 H 0.4967 0.1948 0.1549
C5 C 0.5092(7) 0.2297(6) 0.1016(4)
C6 C 0.4926(8) 0.2196(7) 0.0654(4)
H3 H 0.5084 0.2457 0.0463
C7 C 0.4519(8) 0.1708(7) 0.0550(4)
H4 H 0.4421 0.1641 0.0292
C8 C 0.5480(6) 0.2824(7) 0.1129(4)
C9 C 0.5336(7) 0.3146(6) 0.1450(4)
H5 H 0.4964 0.3068 0.1580
C10 C 0.5744(6) 0.3586(6) 0.1580(3)
H6 H 0.5658 0.3785 0.1813
C11 C 0.6263(5) 0.3746(6) 0.1388(4)
C12 C 0.6377(6) 0.3448(7) 0.1064(4)
H7 H 0.6735 0.3547 0.0924
C13 C 0.5987(7) 0.2999(7) 0.0931(4)
H8 H 0.6074 0.2808 0.0696
C14 C 0.6699(6) 0.4187(5) 0.1562(4)
O3 O 0.6558(4) 0.4409(4) 0.1872(2)
O4 O 0.7210(4) 0.4312(4) 0.1390(2)
O5 O 0.1616(4) -0.0678(4) 0.0502(2)
O6 O 0.2111(4) -0.0625(4) 0.1055(2)
C15 C 0.1720(6) -0.0845(6) 0.0831(4)
C16 C 0.1332(9) -0.1359(8) 0.0982(5)
C17 C 0.0867(9) -0.1608(9) 0.0767(5)
H9 H 0.0789 -0.1434 0.0526
C18 C 0.0517(9) -0.2080(9) 0.0877(5)
H10 H 0.0267 -0.2279 0.0695
C19 C 0.0506(10) -0.2282(9) 0.1235(5)
C20 C 0.0994(9) -0.2070(9) 0.1443(5)
H11 H 0.1084 -0.2266 0.1676
C21 C 0.1382(9) -0.1561(9) 0.1327(5)
H12 H 0.1665 -0.1380 0.1498
C22 C 0.0088(10) -0.2754(9) 0.1371(5)
C23 C -0.0394(9) -0.2916(9) 0.1159(6)
H13 H -0.0453 -0.2707 0.0926
C24 C -0.0830(8) -0.3384(8) 0.1260(5)
H14 H -0.1163 -0.3492 0.1101
C25 C -0.0731(8) -0.3665(8) 0.1604(5)
C26 C -0.0183(8) -0.3559(8) 0.1784(5)
H15 H -0.0069 -0.3807 0.1994
C27 C 0.0202(9) -0.3099(9) 0.1667(6)
H16 H 0.0569 -0.3028 0.1805
C28 C -0.1176(7) -0.4151(7) 0.1733(4)
O7 O -0.1078(4) -0.4367(4) 0.2047(2)
O8 O -0.1572(4) -0.4301(4) 0.1512(2)
O9 O 0.2096(3) -0.0487(3) -0.0204(2)
O10 O 0.3101(4) -0.0728(3) -0.0166(2)
C29 C 0.2574(6) -0.0788(5) -0.0301(3)
C30 C 0.2484(6) -0.1263(5) -0.0608(4)
C31 C 0.3004(6) -0.1561(6) -0.0741(4)
H17 H 0.3393 -0.1490 -0.0629
C32 C 0.2946(6) -0.1959(7) -0.1036(4)
H18 H 0.3305 -0.2149 -0.1133
C33 C 0.2407(6) -0.2093(6) -0.1196(4)
C34 C 0.1883(6) -0.1793(6) -0.1053(4)
H19 H 0.1492 -0.1884 -0.1157
C35 C 0.1929(6) -0.1375(6) -0.0768(4)
H20 H 0.1575 -0.1163 -0.0683
C36 C 0.2355(6) -0.2546(6) -0.1487(4)
C37 C 0.2812(6) -0.2592(6) -0.1752(4)
H21 H 0.3123 -0.2288 -0.1767
C38 C 0.2815(5) -0.3104(5) -0.2006(3)
H22 H 0.3150 -0.3156 -0.2175
C39 C 0.2334(6) -0.3528(5) -0.2010(3)
C40 C 0.1864(6) -0.3447(6) -0.1761(4)
H23 H 0.1535 -0.3733 -0.1758
C41 C 0.1854(7) -0.2960(6) -0.1512(4)
H24 H 0.1506 -0.2901 -0.1354
C42 C 0.2356(5) -0.4073(4) -0.2254(3)
O11 O 0.1897(3) -0.4420(3) -0.2251(2)
O12 O 0.2840(3) -0.4159(3) -0.2439(2)
O13 O 0.2732(3) 0.0023(3) 0.04486(18)
O14 O 0.4192(4) -0.0086(4) -0.0234(2)
O15 O 0.1030(4) 0.0170(5) -0.0006(2)
O16 O 0.2926(4) -0.0009(4) 0.1562(2)
Fe1E Fe -0.21909(7) -0.50020(8) 0.15135(4)
Fe1E_2 Fe 0.78091(7) 0.49980(8) 0.15135(4)
Fe2D Fe 0.15711(7) -0.50270(7) -0.26349(4)
Fe2E Fe -0.15711(7) -0.49730(7) 0.23651(4)
Fe3D Fe 0.30733(7) -0.49276(7) -0.27319(4)
Fe3E Fe 0.69267(7) 0.49276(7) 0.22681(4)
O3E O 0.1558(4) 0.0591(4) 0.0628(2)
O4E O 0.2210(4) 0.0688(4) 0.1110(2)
O7E O 0.3922(4) -0.0633(4) 0.0453(2)
O8E O 0.3428(4) -0.0699(4) 0.0988(2)
O11D O 0.3103(3) 0.0580(3) -0.0249(2)
O12D O 0.2160(3) 0.0841(3) -0.0061(2)
loop_
_geom_bond_atom_site_label_1
_geom_bond_atom_site_label_2
_geom_bond_site_symmetry_1
_geom_bond_site_symmetry_2
Fe1 O1 1_555 1_555
Fe2 O2 1_555 1_555
Fe3 O5 1_555 1_555
O1 C1 1_555 1_555
O2 C1 1_555 1_555
C1 C2 1_555 1_555
C2 C3 1_555 1_555
C3 H1 1_555 1_555
C4 C3 1_555 1_555
H2 C4 1_555 1_555
C5 C4 1_555 1_555
C6 C5 1_555 1_555
H3 C6 1_555 1_555
C7 C2 1_555 1_555
H4 C7 1_555 1_555
C8 C5 1_555 1_555
C9 C8 1_555 1_555
H5 C9 1_555 1_555
C10 C9 1_555 1_555
H6 C10 1_555 1_555
C11 C10 1_555 1_555
C12 C11 1_555 1_555
H7 C12 1_555 1_555
C13 C8 1_555 1_555
H8 C13 1_555 1_555
C14 C11 1_555 1_555
O3 C14 1_555 1_555
O4 C14 1_555 1_555
O5 C15 1_555 1_555
O6 Fe1 1_555 1_555
C15 O6 1_555 1_555
C16 C15 1_555 1_555
C17 C16 1_555 1_555
H9 C17 1_555 1_555
C18 C17 1_555 1_555
H10 C18 1_555 1_555
C19 C18 1_555 1_555
C20 C19 1_555 1_555
H11 C20 1_555 1_555
C21 C16 1_555 1_555
H12 C21 1_555 1_555
C22 C19 1_555 1_555
C23 C22 1_555 1_555
H13 C23 1_555 1_555
C24 C23 1_555 1_555
H14 C24 1_555 1_555
C25 C24 1_555 1_555
C26 C25 1_555 1_555
H15 C26 1_555 1_555
C27 C22 1_555 1_555
H16 C27 1_555 1_555
C28 C25 1_555 1_555
O7 C28 1_555 1_555
O8 C28 1_555 1_555
O9 Fe3 1_555 1_555
O10 Fe2 1_555 1_555
C29 O9 1_555 1_555
C30 C29 1_555 1_555
C31 C30 1_555 1_555
H17 C31 1_555 1_555
C32 C31 1_555 1_555
H18 C32 1_555 1_555
C33 C32 1_555 1_555
C34 C33 1_555 1_555
H19 C34 1_555 1_555
C35 C30 1_555 1_555
H20 C35 1_555 1_555
C36 C33 1_555 1_555
C37 C36 1_555 1_555
H21 C37 1_555 1_555
C38 C37 1_555 1_555
H22 C38 1_555 1_555
C39 C38 1_555 1_555
C40 C39 1_555 1_555
H23 C40 1_555 1_555
C41 C36 1_555 1_555
H24 C41 1_555 1_555
C42 C39 1_555 1_555
O11 C42 1_555 1_555
O12 C42 1_555 1_555
O13 Fe1 1_555 1_555
O14 Fe2 1_555 1_555
O15 Fe3 1_555 1_555
O16 Fe1 1_555 1_555
Fe1E O8 1_555 1_555
Fe1E_2 O4 1_555 1_555
Fe2D O11 1_555 1_555
Fe2E O7 1_555 1_555
Fe3D O12 1_555 1_555
Fe3E O3 1_555 1_555
O3E Fe3 1_555 1_555
O4E Fe1 1_555 1_555
O7E Fe2 1_555 1_555
O8E Fe1 1_555 1_555
O11D Fe2 1_555 1_555
O12D Fe3 1_555 1_555
Fe2 O13 1_555 1_555
Fe3 O13 1_555 1_555
C6 C7 1_555 1_555
C12 C13 1_555 1_555
C20 C21 1_555 1_555
C26 C27 1_555 1_555
O10 C29 1_555 1_555
C34 C35 1_555 1_555
C40 C41 1_555 1_555

#END
