
#######################################################################
#
#                 Cambridge Crystallographic Data Centre
#                                CCDC 
#
#######################################################################
#
# If this CIF has been generated from an entry in the Cambridge 
# Structural Database, then it will include bibliographic, chemical, 
# crystal, experimental, refinement or atomic coordinate data resulting 
# from the CCDC's data processing and validation procedures.
#
#######################################################################

data_MIFSAX
_symmetry_cell_setting           tetragonal
_symmetry_space_group_name_H-M   'I 41/a'
_symmetry_Int_Tables_number      88
_space_group_name_Hall           '-I 4ad'
loop_
_symmetry_equiv_pos_site_id
_symmetry_equiv_pos_as_xyz
1 x,y,z
2 3/4-y,1/4+x,1/4+z
3 -x,1/2-y,z
4 1/4+y,1/4-x,1/4+z
5 1/2+x,1/2+y,1/2+z
6 1/4-y,3/4+x,3/4+z
7 1/2-x,-y,1/2+z
8 3/4+y,3/4-x,3/4+z
9 -x,-y,-z
10 1/4+y,3/4-x,3/4-z
11 x,1/2+y,-z
12 3/4-y,3/4+x,3/4-z
13 1/2-x,1/2-y,1/2-z
14 3/4+y,1/4-x,1/4-z
15 1/2+x,y,1/2-z
16 1/4-y,1/4+x,1/4-z
_cell_length_a                   45.9420(13)
_cell_length_b                   45.9420(13)
_cell_length_c                   11.2367(4)
_cell_angle_alpha                90
_cell_angle_beta                 90
_cell_angle_gamma                90
_cell_volume                     23716.9
loop_
_atom_site_label
_atom_site_type_symbol
_atom_site_fract_x
_atom_site_fract_y
_atom_site_fract_z
H1 H 0.6528(8) 0.455(4) 0.753(10)
H2 H 0.627(2) 0.455(3) 0.817(6)
C1 C 0.5526(3) 0.4295(3) 0.3603(10)
C2 C 0.5198(3) 0.4307(3) 0.3762(10)
C3 C 0.5088(3) 0.4509(3) 0.4564(11)
H3 H 0.5214 0.4621 0.5023
C4 C 0.4791(3) 0.4542(3) 0.4675(12)
H4 H 0.4711 0.4650 0.5293
C5 C 0.4612(4) 0.4404(4) 0.3811(13)
H5 H 0.4415 0.4448 0.3787
C6 C 0.5007(3) 0.4159(3) 0.3048(10)
C7 C 0.5079(3) 0.3916(3) 0.2171(10)
C8 C 0.4966(3) 0.3730(3) 0.0316(11)
H6 H 0.4864 0.3747 -0.0397
C9 C 0.5140(3) 0.3501(3) 0.0476(10)
H7 H 0.5159 0.3359 -0.0112
C10 C 0.5293(3) 0.3477(3) 0.1546(10)
H8 H 0.5415 0.3318 0.1667
C11 C 0.5267(3) 0.3684(2) 0.2420(9)
C12 C 0.5433(3) 0.3656(3) 0.3552(11)
C13 C 0.5961(3) 0.4826(3) 0.9813(13)
C14 C 0.6018(3) 0.5121(3) 0.9239(12)
C15 C 0.6298(3) 0.5237(3) 0.9291(12)
H9 H 0.6452 0.5125 0.9571
C16 C 0.6346(3) 0.5514(3) 0.8930(13)
H10 H 0.6531 0.5595 0.8960
C17 C 0.6108(3) 0.5680(3) 0.8507(13)
H11 H 0.6139 0.5872 0.8280
C18 C 0.5793(3) 0.5291(3) 0.8726(12)
C19 C 0.5493(3) 0.5193(3) 0.8543(11)
C20 C 0.5013(3) 0.5320(3) 0.8864(10)
H12 H 0.4875 0.5457 0.9098
C21 C 0.4916(3) 0.5046(3) 0.8453(11)
H13 H 0.4720 0.4997 0.8470
C22 C 0.5121(3) 0.4857(3) 0.8030(11)
H14 H 0.5060 0.4680 0.7707
C23 C 0.5420(3) 0.4920(3) 0.8069(12)
C24 C 0.5635(3) 0.4730(3) 0.7436(11)
C25 C 0.5757(3) 0.3450(3) 0.8530(10)
C26 C 0.5874(3) 0.3325(3) 0.7377(10)
C27 C 0.5679(3) 0.3251(3) 0.6491(10)
H15 H 0.5481 0.3283 0.6613
C28 C 0.5770(3) 0.3131(3) 0.5427(11)
H16 H 0.5638 0.3081 0.4835
C29 C 0.6066(3) 0.3087(3) 0.5278(10)
H17 H 0.6132 0.3002 0.4577
C30 C 0.6163(3) 0.3282(3) 0.7122(10)
C31 C 0.6407(3) 0.3349(3) 0.7964(10)
C32 C 0.6838(3) 0.3164(3) 0.8780(12)
H18 H 0.6983 0.3022 0.8784
C33 C 0.6852(4) 0.3384(4) 0.9595(14)
H19 H 0.6992 0.3382 1.0194
C34 C 0.6656(3) 0.3611(3) 0.9518(12)
H20 H 0.6674 0.3771 1.0019
C35 C 0.6434(3) 0.3600(3) 0.8701(10)
C36 C 0.6244(2) 0.3867(3) 0.8516(10)
C37 C 0.6824(3) 0.4086(4) 1.2955(12)
C38 C 0.6909(3) 0.3788(4) 1.2951(13)
H21 H 0.6785 0.3650 1.2629
C39 C 0.7165(4) 0.3705(4) 1.3403(13)
H22 H 0.7232 0.3514 1.3358
C40 C 0.7316(4) 0.3915(4) 1.3919(13)
H23 H 0.7489 0.3856 1.4279
C41 C 0.7003(3) 0.4297(4) 1.3480(13)
C42 C 0.6933(4) 0.4607(4) 1.3417(13)
C43 C 0.7081(4) 0.5054(4) 1.2766(14)
H24 H 0.7231 0.5172 1.2490
C44 C 0.6813(4) 0.5188(4) 1.2969(15)
H25 H 0.6770 0.5375 1.2702
C45 C 0.6619(4) 0.5023(4) 1.3591(14)
H26 H 0.6444 0.5104 1.3834
C46 C 0.6685(4) 0.4719(4) 1.3882(14)
C47 C 0.6462(4) 0.4544(4) 1.4636(14)
C48 C 0.6549(3) 0.4161(3) 1.2285(12)
N1 N 0.4718(2) 0.4214(2) 0.3041(9)
N2 N 0.4931(2) 0.3941(2) 0.1150(8)
N3 N 0.5293(2) 0.5391(2) 0.8928(9)
N4 N 0.5844(2) 0.5572(2) 0.8425(10)
N5 N 0.6259(2) 0.3163(2) 0.6105(8)
N6 N 0.6621(2) 0.3144(2) 0.7968(9)
N7 N 0.7260(3) 0.4206(3) 1.4006(11)
N8 N 0.7145(3) 0.4775(3) 1.2924(11)
O1 O 0.61809(19) 0.46468(18) 0.9761(7)
O2 O 0.5736(2) 0.4771(2) 1.0324(9)
O3 O 0.5755(2) 0.48180(19) 0.6508(8)
O4 O 0.5668(2) 0.44713(18) 0.7827(7)
O5 O 0.56762(19) 0.43568(18) 0.4478(7)
O6 O 0.56138(18) 0.42348(18) 0.2572(7)
O7 O 0.53026(19) 0.36971(19) 0.4519(7)
O8 O 0.56942(19) 0.35856(19) 0.3468(7)
O9 O 0.55708(18) 0.36523(18) 0.8432(6)
O10 O 0.58571(18) 0.33562(18) 0.9488(7)
O11 O 0.61619(18) 0.39098(17) 0.7470(7)
O12 O 0.61986(18) 0.40251(17) 0.9396(7)
O13 O 0.6317(2) 0.4082(2) 1.2745(8)
O14 O 0.6557(2) 0.4297(2) 1.1339(7)
O15 O 0.6223(2) 0.4645(3) 1.4706(9)
O16 O 0.6553(2) 0.4337(3) 1.5273(9)
O17 O 0.59356(18) 0.37308(18) 1.1346(7)
H27 H 0.5846 0.3686 1.2035
H28 H 0.5828 0.3653 1.0756
O18 O 0.55577(17) 0.41549(18) 0.9821(7)
H29 H 0.5548 0.4275 0.9175
H30 H 0.5558 0.3969 0.9533
O19 O 0.6072(2) 0.4690(2) 1.2477(9)
H31 H 0.6238 0.4801 1.2287
H32 H 0.5916 0.4822 1.2462
O20 O 0.6347(2) 0.4514(2) 0.7503(8)
O21 O 0.55684(18) 0.39591(19) 0.6362(7)
H33 H 0.5583 0.3802 0.5896
H34 H 0.5551 0.3896 0.7112
O22 O 0.61220(19) 0.38610(19) 0.4815(7)
H35 H 0.5960 0.3765 0.4570
H36 H 0.6219 0.3917 0.4148
Co1 Co 0.54626(4) 0.58267(4) 0.87140(15)
Pr1 Pr 0.599979(15) 0.428642(15) 0.61218(6)
Pr2 Pr 0.599534(15) 0.426388(15) 1.10952(6)
N1H N 0.5282(2) 0.5786(2) 0.6959(9)
N2H N 0.5069(2) 0.6059(2) 0.8850(8)
N5C N 0.5663(2) 0.6241(2) 0.8605(8)
N6C N 0.5644(2) 0.5879(2) 1.0468(9)
O6_2 O 0.56138(18) 0.42348(18) 1.2572(7)
O15_2 O 0.6223(2) 0.4645(3) 0.4706(9)
O16_2 O 0.6553(2) 0.4337(3) 0.5273(9)
Co1E Co 0.66733(4) 0.29626(4) 0.62140(15)
Co1H Co 0.45374(4) 0.41733(4) 0.12860(15)
Pr1_2 Pr 0.599979(15) 0.428642(15) 1.61218(6)
Pr2_2 Pr 0.599534(15) 0.426388(15) 0.10952(6)
O23 O 0.7287(7) 0.5682(7) 1.261(3)
O24 O 0.6027(4) 0.2764(4) 0.2481(14)
O25 O 0.6947(3) 0.4558(4) 0.7669(13)
O26 O 0.4704(4) 0.3555(4) -0.2534(15)
O27 O 0.4472(10) 0.4353(10) 0.627(4)
O28 O 0.6389(5) 0.3291(5) 1.231(2)
O29 O 0.5671(2) 0.5039(2) 1.3802(10)
O30 O 0.7680(3) 0.5277(3) 1.0892(10)
O31 O 0.4979(4) 0.4136(4) 0.7402(14)
loop_
_geom_bond_atom_site_label_1
_geom_bond_atom_site_label_2
_geom_bond_site_symmetry_1
_geom_bond_site_symmetry_2
H1 O20 1_555 1_555
H2 O20 1_555 1_555
C1 C2 1_555 1_555
C2 C3 1_555 1_555
C3 H3 1_555 1_555
C4 C3 1_555 1_555
H4 C4 1_555 1_555
C5 C4 1_555 1_555
H5 C5 1_555 1_555
C6 C2 1_555 1_555
C7 C6 1_555 1_555
C8 H6 1_555 1_555
C9 C8 1_555 1_555
H7 C9 1_555 1_555
C10 C9 1_555 1_555
H8 C10 1_555 1_555
C11 C7 1_555 1_555
C12 C11 1_555 1_555
C13 C14 1_555 1_555
C14 C15 1_555 1_555
C15 H9 1_555 1_555
C16 C15 1_555 1_555
H10 C16 1_555 1_555
C17 C16 1_555 1_555
H11 C17 1_555 1_555
C18 C14 1_555 1_555
C19 C18 1_555 1_555
C20 H12 1_555 1_555
C21 C20 1_555 1_555
H13 C21 1_555 1_555
C22 C21 1_555 1_555
H14 C22 1_555 1_555
C23 C19 1_555 1_555
C24 C23 1_555 1_555
C25 C26 1_555 1_555
C26 C27 1_555 1_555
C27 H15 1_555 1_555
C28 C27 1_555 1_555
H16 C28 1_555 1_555
C29 C28 1_555 1_555
H17 C29 1_555 1_555
C30 C26 1_555 1_555
C31 C30 1_555 1_555
C32 H18 1_555 1_555
C33 C32 1_555 1_555
H19 C33 1_555 1_555
C34 C33 1_555 1_555
H20 C34 1_555 1_555
C35 C31 1_555 1_555
C36 C35 1_555 1_555
C37 C38 1_555 1_555
C38 H21 1_555 1_555
C39 C38 1_555 1_555
H22 C39 1_555 1_555
C40 C39 1_555 1_555
H23 C40 1_555 1_555
C41 C37 1_555 1_555
C42 C41 1_555 1_555
C43 H24 1_555 1_555
C44 C43 1_555 1_555
H25 C44 1_555 1_555
C45 C44 1_555 1_555
H26 C45 1_555 1_555
C46 C42 1_555 1_555
C47 C46 1_555 1_555
C48 C37 1_555 1_555
N1 C5 1_555 1_555
N2 C7 1_555 1_555
N3 C19 1_555 1_555
N4 C17 1_555 1_555
N5 C29 1_555 1_555
N6 C31 1_555 1_555
N7 C40 1_555 1_555
N8 C42 1_555 1_555
O1 C13 1_555 1_555
O2 C13 1_555 1_555
O3 C24 1_555 1_555
O4 C24 1_555 1_555
O5 C1 1_555 1_555
O6 C1 1_555 1_555
O7 C12 1_555 1_555
O8 C12 1_555 1_555
O9 C25 1_555 1_555
O10 C25 1_555 1_555
O11 C36 1_555 1_555
O12 C36 1_555 1_555
O13 C48 1_555 1_555
O14 C48 1_555 1_555
O15 C47 1_555 1_555
O16 C47 1_555 1_555
O17 H27 1_555 1_555
H28 O17 1_555 1_555
O18 H29 1_555 1_555
H30 O18 1_555 1_555
O19 H31 1_555 1_555
H32 O19 1_555 1_555
O20 Pr1 1_555 1_555
O21 H33 1_555 1_555
H34 O21 1_555 1_555
O22 H35 1_555 1_555
H36 O22 1_555 1_555
Co1 N3 1_555 1_555
Pr1 O3 1_555 1_555
Pr2 O1 1_555 1_555
N1H Co1 1_555 1_555
N2H Co1 1_555 1_555
N5C Co1 1_555 1_555
N6C Co1 1_555 1_555
O6_2 Pr2 1_555 1_555
O15_2 Pr1 1_555 1_555
O16_2 Pr1 1_555 1_555
Co1E N5 1_555 1_555
Co1H N1 1_555 1_555
Pr1_2 O15 1_555 1_555
Pr2_2 O6 1_555 1_555
C6 N1 1_555 1_555
C8 N2 1_555 1_555
C10 C11 1_555 1_555
C18 N4 1_555 1_555
C20 N3 1_555 1_555
C22 C23 1_555 1_555
C30 N5 1_555 1_555
C32 N6 1_555 1_555
C34 C35 1_555 1_555
C41 N7 1_555 1_555
C43 N8 1_555 1_555
C45 C46 1_555 1_555
N2 Co1H 1_555 1_555
N4 Co1 1_555 1_555
N6 Co1E 1_555 1_555
O2 Pr2 1_555 1_555
O4 Pr1 1_555 1_555
O5 Pr1 1_555 1_555
O11 Pr1 1_555 1_555
O12 Pr2 1_555 1_555
O13 Pr2 1_555 1_555
O14 Pr2 1_555 1_555
O16 Pr1_2 1_555 1_555
O17 Pr2 1_555 1_555
O18 Pr2 1_555 1_555
O19 Pr2 1_555 1_555
O21 Pr1 1_555 1_555
O22 Pr1 1_555 1_555

#END
