
#######################################################################
#
#                 Cambridge Crystallographic Data Centre
#                                CCDC 
#
#######################################################################
#
# If this CIF has been generated from an entry in the Cambridge 
# Structural Database, then it will include bibliographic, chemical, 
# crystal, experimental, refinement or atomic coordinate data resulting 
# from the CCDC's data processing and validation procedures.
#
#######################################################################

data_MIFTIG
_symmetry_cell_setting           tetragonal
_symmetry_space_group_name_H-M   'I 41/a'
_symmetry_Int_Tables_number      88
_space_group_name_Hall           '-I 4ad'
loop_
_symmetry_equiv_pos_site_id
_symmetry_equiv_pos_as_xyz
1 x,y,z
2 3/4-y,1/4+x,1/4+z
3 -x,1/2-y,z
4 1/4+y,1/4-x,1/4+z
5 1/2+x,1/2+y,1/2+z
6 1/4-y,3/4+x,3/4+z
7 1/2-x,-y,1/2+z
8 3/4+y,3/4-x,3/4+z
9 -x,-y,-z
10 1/4+y,3/4-x,3/4-z
11 x,1/2+y,-z
12 3/4-y,3/4+x,3/4-z
13 1/2-x,1/2-y,1/2-z
14 3/4+y,1/4-x,1/4-z
15 1/2+x,y,1/2-z
16 1/4-y,1/4+x,1/4-z
_cell_length_a                   45.8777(7)
_cell_length_b                   45.8777(7)
_cell_length_c                   11.10616(20)
_cell_angle_alpha                90
_cell_angle_beta                 90
_cell_angle_gamma                90
_cell_volume                     23375.8
loop_
_atom_site_label
_atom_site_type_symbol
_atom_site_fract_x
_atom_site_fract_y
_atom_site_fract_z
C1 C -0.2323(2) -0.1542(2) -0.7357(9)
C2 C -0.26117(19) -0.14871(19) -0.6770(9)
C3 C -0.2731(2) -0.1204(2) -0.6837(11)
H1 H -0.2618 -0.1051 -0.7129
C4 C -0.3012(2) -0.1152(2) -0.6477(10)
H2 H -0.3092 -0.0966 -0.6517
C5 C -0.31751(19) -0.13867(19) -0.6047(9)
H3 H -0.3368 -0.1355 -0.5825
C6 C -0.27843(19) -0.17026(19) -0.6254(9)
C7 C -0.26841(18) -0.20058(19) -0.6069(8)
C8 C -0.28146(19) -0.24914(18) -0.6345(8)
H4 H -0.2950 -0.2630 -0.6595
C9 C -0.25470(19) -0.25833(19) -0.5916(8)
H5 H -0.2500 -0.2780 -0.5911
C10 C -0.23511(19) -0.23806(19) -0.5496(8)
H6 H -0.2173 -0.2441 -0.5185
C11 C -0.24198(19) -0.20822(19) -0.5538(8)
C12 C -0.22205(17) -0.18680(18) -0.4914(8)
C13 C -0.17954(17) -0.19696(17) -0.1095(7)
C14 C -0.18088(18) -0.22956(18) -0.1261(7)
C15 C -0.2002(2) -0.2406(2) -0.2109(8)
H7 H -0.2102 -0.2279 -0.2613
C16 C -0.2047(2) -0.2706(2) -0.2210(10)
H8 H -0.2165 -0.2785 -0.2809
C17 C -0.1908(2) -0.2882(2) -0.1375(9)
H9 H -0.1949 -0.3080 -0.1378
C18 C -0.16567(18) -0.24922(18) -0.0540(7)
C19 C -0.14178(17) -0.24205(17) 0.0332(7)
C20 C -0.12297(18) -0.25372(18) 0.2201(7)
H10 H -0.1247 -0.2638 0.2923
C21 C -0.09956(19) -0.23595(18) 0.2047(8)
H11 H -0.0855 -0.2340 0.2646
C22 C -0.09715(19) -0.22067(19) 0.0970(8)
H12 H -0.0812 -0.2086 0.0834
C23 C -0.11868(18) -0.22353(18) 0.0099(7)
C24 C -0.11572(18) -0.20638(19) -0.1061(7)
C25 C -0.13699(17) -0.12587(16) -0.6028(7)
C26 C -0.11018(18) -0.10697(18) -0.6217(7)
C27 C -0.1112(2) -0.08456(19) -0.7057(8)
H13 H -0.1272 -0.0829 -0.7566
C28 C -0.0890(2) -0.0649(2) -0.7145(10)
H14 H -0.0890 -0.0507 -0.7743
C29 C -0.0665(2) -0.0666(2) -0.6325(9)
H15 H -0.0522 -0.0523 -0.6333
C30 C -0.08528(17) -0.10913(17) -0.5495(7)
C31 C -0.07872(17) -0.13307(18) -0.4636(8)
C32 C -0.05868(18) -0.14364(19) -0.2763(7)
H16 H -0.0504 -0.1371 -0.2049
C33 C -0.06251(18) -0.17289(19) -0.2917(8)
H17 H -0.0571 -0.1861 -0.2321
C34 C -0.07474(18) -0.18241(19) -0.3988(8)
H18 H -0.0773 -0.2022 -0.4120
C35 C -0.08307(17) -0.16274(17) -0.4858(7)
C36 C -0.09589(18) -0.17397(17) -0.6042(7)
C37 C -0.1653(2) -0.0953(2) 0.0209(8)
C38 C -0.1578(2) -0.0678(2) -0.0438(9)
C39 C -0.1282(3) -0.0596(3) -0.0412(11)
H19 H -0.1147 -0.0724 -0.0081
C40 C -0.1187(3) -0.0340(3) -0.0843(12)
H20 H -0.0995 -0.0276 -0.0762
C41 C -0.1385(3) -0.0194(3) -0.1374(12)
H21 H -0.1317 -0.0027 -0.1753
C42 C -0.1780(3) -0.0503(3) -0.0967(10)
C43 C -0.2100(3) -0.0570(3) -0.0913(11)
C44 C -0.2558(3) -0.0432(3) -0.0239(13)
H22 H -0.2677 -0.0285 0.0062
C45 C -0.2687(3) -0.0697(3) -0.0448(13)
H23 H -0.2871 -0.0747 -0.0170
C46 C -0.2509(3) -0.0882(3) -0.1126(13)
H24 H -0.2587 -0.1056 -0.1408
C47 C -0.2209(3) -0.0813(3) -0.1408(12)
C48 C -0.2033(3) -0.1035(3) -0.2214(12)
N1 N -0.2274(3) -0.0365(2) -0.0429(10)
N2 N -0.1684(3) -0.0237(2) -0.1497(10)
N3 N -0.06638(14) -0.12383(15) -0.3597(6)
N4 N -0.06447(16) -0.08827(16) -0.5510(7)
N5 N -0.28834(16) -0.22080(16) -0.6410(7)
N6 N -0.30657(16) -0.16540(15) -0.5943(7)
N7 N -0.17190(16) -0.27799(15) -0.0568(7)
N8 N -0.14363(15) -0.25740(14) 0.1368(6)
O1 O -0.08581(13) -0.16439(13) -0.7001(5)
O2 O -0.11596(13) -0.19243(12) -0.5944(5)
O3 O -0.12386(13) -0.15679(14) -0.8841(5)
H25 H -0.1157 -0.1670 -0.8205
H26 H -0.1188 -0.1671 -0.9528
O4 O -0.16600(13) -0.19296(12) -0.7363(5)
H27 H -0.1725 -0.1902 -0.6629
H28 H -0.1746 -0.2084 -0.7660
O5 O -0.2170(2) -0.14166(17) -0.9995(8)
H29 H -0.2290 -0.1573 -1.0039
H30 H -0.2281 -0.1265 -0.9749
O6 O -0.22751(14) -0.17705(14) -0.7898(7)
O7 O -0.21382(13) -0.13300(14) -0.7307(6)
O8 O -0.15279(12) -0.13054(13) -0.6907(5)
O9 O -0.14164(12) -0.13373(12) -0.4958(5)
O10 O -0.14667(14) -0.19238(13) -0.3891(5)
H31 H -0.1333 -0.1894 -0.4494
H32 H -0.1360 -0.1965 -0.3212
O11 O -0.13688(12) -0.13836(12) -0.2343(5)
H33 H -0.1241 -0.1524 -0.2357
H34 H -0.1284 -0.1224 -0.2592
O12 O -0.20212(13) -0.11714(12) -0.5000(5)
O13 O -0.23084(14) -0.17501(14) -0.3966(6)
O14 O -0.19699(12) -0.18235(14) -0.5325(5)
O15 O -0.18225(18) -0.09499(18) -0.2836(7)
O16 O -0.2124(2) -0.12732(18) -0.2245(7)
O17 O -0.18570(12) -0.18156(12) -0.1982(5)
O18 O -0.17368(13) -0.18827(13) -0.0055(5)
O19 O -0.10907(13) -0.18003(13) -0.0981(5)
O20 O -0.12010(13) -0.21977(13) -0.2035(5)
O21 O -0.15758(18) -0.11904(15) -0.0256(6)
O22 O -0.17902(14) -0.09458(13) 0.1168(5)
Co1 Co -0.33242(2) -0.20372(2) -0.62196(10)
Eu1 Eu -0.178321(9) -0.150416(9) -0.36330(4)
Eu2 Eu -0.175830(9) -0.150262(9) -0.86171(4)
H35 H -0.1999 -0.0990 -0.4979
H36 H -0.2054 -0.1231 -0.5707
N3G N -0.37383(15) -0.18362(14) -0.6097(6)
N4G N -0.33827(16) -0.18553(16) -0.8010(7)
N7L N -0.32810(16) -0.22201(15) -0.4432(7)
N8L N -0.35637(15) -0.24260(14) -0.6368(6)
O18_2 O -0.17368(13) -0.18827(13) -1.0055(5)
O21_2 O -0.15758(18) -0.11904(15) -1.0256(6)
O22_2 O -0.17902(14) -0.09458(13) -0.8832(5)
Co1A Co -0.04628(2) -0.08242(2) -0.37196(10)
Co1L Co -0.16758(2) -0.29628(2) 0.12196(10)
Eu2_2 Eu -0.175830(9) -0.150262(9) 0.13829(4)
O23 O -0.0789(6) -0.1119(6) 0.019(3)
O24 O -0.2285(5) -0.0688(5) -0.758(2)
O25 O -0.1636(4) -0.2521(3) -0.4885(15)
O26 O -0.25355(17) -0.18266(18) -1.1275(8)
O27 O -0.2054(3) -0.0576(3) -0.5170(12)
O28 O -0.2767(3) 0.0190(2) 0.1568(10)
O29 O -0.0248(3) -0.1499(3) -0.0054(12)
O30 O -0.1040(4) -0.2794(3) 0.4997(12)
loop_
_geom_bond_atom_site_label_1
_geom_bond_atom_site_label_2
_geom_bond_site_symmetry_1
_geom_bond_site_symmetry_2
C1 C2 1_555 1_555
C2 C3 1_555 1_555
C3 H1 1_555 1_555
C4 C3 1_555 1_555
H2 C4 1_555 1_555
C5 C4 1_555 1_555
H3 C5 1_555 1_555
C6 C2 1_555 1_555
C7 C6 1_555 1_555
C8 H4 1_555 1_555
C9 C8 1_555 1_555
H5 C9 1_555 1_555
C10 C9 1_555 1_555
H6 C10 1_555 1_555
C11 C7 1_555 1_555
C12 C11 1_555 1_555
C13 C14 1_555 1_555
C14 C15 1_555 1_555
C15 H7 1_555 1_555
C16 C15 1_555 1_555
H8 C16 1_555 1_555
C17 C16 1_555 1_555
H9 C17 1_555 1_555
C18 C14 1_555 1_555
C19 C18 1_555 1_555
C20 H10 1_555 1_555
C21 C20 1_555 1_555
H11 C21 1_555 1_555
C22 C21 1_555 1_555
H12 C22 1_555 1_555
C23 C19 1_555 1_555
C24 C23 1_555 1_555
C25 C26 1_555 1_555
C26 C27 1_555 1_555
C27 H13 1_555 1_555
C28 C27 1_555 1_555
H14 C28 1_555 1_555
C29 C28 1_555 1_555
H15 C29 1_555 1_555
C30 C26 1_555 1_555
C31 C30 1_555 1_555
C32 H16 1_555 1_555
C33 C32 1_555 1_555
H17 C33 1_555 1_555
C34 C33 1_555 1_555
H18 C34 1_555 1_555
C35 C31 1_555 1_555
C36 C35 1_555 1_555
C37 C38 1_555 1_555
C38 C39 1_555 1_555
C39 H19 1_555 1_555
C40 C39 1_555 1_555
H20 C40 1_555 1_555
C41 C40 1_555 1_555
H21 C41 1_555 1_555
C42 C38 1_555 1_555
C43 C42 1_555 1_555
C44 H22 1_555 1_555
C45 C44 1_555 1_555
H23 C45 1_555 1_555
C46 C45 1_555 1_555
H24 C46 1_555 1_555
C47 C43 1_555 1_555
C48 C47 1_555 1_555
N1 C43 1_555 1_555
N2 C41 1_555 1_555
N3 C31 1_555 1_555
N4 C29 1_555 1_555
N5 C7 1_555 1_555
N6 C5 1_555 1_555
N7 C17 1_555 1_555
N8 C19 1_555 1_555
O1 C36 1_555 1_555
O2 C36 1_555 1_555
O3 H25 1_555 1_555
H26 O3 1_555 1_555
O4 H27 1_555 1_555
H28 O4 1_555 1_555
O5 H29 1_555 1_555
H30 O5 1_555 1_555
O6 C1 1_555 1_555
O7 C1 1_555 1_555
O8 C25 1_555 1_555
O9 C25 1_555 1_555
O10 H31 1_555 1_555
H32 O10 1_555 1_555
O11 H33 1_555 1_555
H34 O11 1_555 1_555
O12 Eu1 1_555 1_555
O13 C12 1_555 1_555
O14 C12 1_555 1_555
O15 C48 1_555 1_555
O16 C48 1_555 1_555
O17 C13 1_555 1_555
O18 C13 1_555 1_555
O19 C24 1_555 1_555
O20 C24 1_555 1_555
O21 C37 1_555 1_555
O22 C37 1_555 1_555
Co1 N5 1_555 1_555
Eu1 O9 1_555 1_555
Eu2 O3 1_555 1_555
H35 O12 1_555 1_555
H36 O12 1_555 1_555
N3G Co1 1_555 1_555
N4G Co1 1_555 1_555
N7L Co1 1_555 1_555
N8L Co1 1_555 1_555
O18_2 Eu2 1_555 1_555
O21_2 Eu2 1_555 1_555
O22_2 Eu2 1_555 1_555
Co1A N3 1_555 1_555
Co1L N7 1_555 1_555
Eu2_2 O18 1_555 1_555
C6 N6 1_555 1_555
C8 N5 1_555 1_555
C10 C11 1_555 1_555
C18 N7 1_555 1_555
C20 N8 1_555 1_555
C22 C23 1_555 1_555
C30 N4 1_555 1_555
C32 N3 1_555 1_555
C34 C35 1_555 1_555
C42 N2 1_555 1_555
C44 N1 1_555 1_555
C46 C47 1_555 1_555
N4 Co1A 1_555 1_555
N6 Co1 1_555 1_555
N8 Co1L 1_555 1_555
O4 Eu2 1_555 1_555
O5 Eu2 1_555 1_555
O6 Eu2 1_555 1_555
O7 Eu2 1_555 1_555
O8 Eu2 1_555 1_555
O10 Eu1 1_555 1_555
O11 Eu1 1_555 1_555
O13 Eu1 1_555 1_555
O14 Eu1 1_555 1_555
O15 Eu1 1_555 1_555
O16 Eu1 1_555 1_555
O17 Eu1 1_555 1_555
O21 Eu2_2 1_555 1_555
O22 Eu2_2 1_555 1_555

#END
