
#######################################################################
#
#                 Cambridge Crystallographic Data Centre
#                                CCDC 
#
#######################################################################
#
# If this CIF has been generated from an entry in the Cambridge 
# Structural Database, then it will include bibliographic, chemical, 
# crystal, experimental, refinement or atomic coordinate data resulting 
# from the CCDC's data processing and validation procedures.
#
#######################################################################

data_MIFVEE
_symmetry_cell_setting           tetragonal
_symmetry_space_group_name_H-M   'I 41/a'
_symmetry_Int_Tables_number      88
_space_group_name_Hall           '-I 4ad'
loop_
_symmetry_equiv_pos_site_id
_symmetry_equiv_pos_as_xyz
1 x,y,z
2 3/4-y,1/4+x,1/4+z
3 -x,1/2-y,z
4 1/4+y,1/4-x,1/4+z
5 1/2+x,1/2+y,1/2+z
6 1/4-y,3/4+x,3/4+z
7 1/2-x,-y,1/2+z
8 3/4+y,3/4-x,3/4+z
9 -x,-y,-z
10 1/4+y,3/4-x,3/4-z
11 x,1/2+y,-z
12 3/4-y,3/4+x,3/4-z
13 1/2-x,1/2-y,1/2-z
14 3/4+y,1/4-x,1/4-z
15 1/2+x,y,1/2-z
16 1/4-y,1/4+x,1/4-z
_cell_length_a                   45.8220(7)
_cell_length_b                   45.8220(7)
_cell_length_c                   11.0046(3)
_cell_angle_alpha                90
_cell_angle_beta                 90
_cell_angle_gamma                90
_cell_volume                     23105.9
loop_
_atom_site_label
_atom_site_type_symbol
_atom_site_fract_x
_atom_site_fract_y
_atom_site_fract_z
H1 H 0.797(2) 0.8743(14) -0.071(3)
H2 H 0.798(2) 0.8999(5) -0.003(7)
C1 C 0.82073(15) 0.80315(15) 0.3879(6)
C2 C 0.81925(16) 0.77058(16) 0.3715(6)
C3 C 0.79968(17) 0.75943(17) 0.2855(7)
H3 H 0.7898 0.7720 0.2334
C4 C 0.79504(19) 0.72971(17) 0.2784(8)
H4 H 0.7827 0.7219 0.2198
C5 C 0.80932(19) 0.71173(18) 0.3611(7)
H5 H 0.8055 0.6918 0.3599
C6 C 0.83449(15) 0.75082(15) 0.4440(6)
C7 C 0.85843(15) 0.75820(15) 0.5325(6)
C8 C 0.87735(16) 0.74619(16) 0.7215(7)
H6 H 0.8757 0.7361 0.7946
C9 C 0.90105(16) 0.76388(16) 0.7040(7)
H7 H 0.9152 0.7658 0.7641
C10 C 0.90360(16) 0.77889(16) 0.5955(7)
H8 H 0.9199 0.7905 0.5809
C11 C 0.88177(15) 0.77648(15) 0.5083(6)
C12 C 0.88460(15) 0.79356(16) 0.3911(6)
C13 C 0.90423(16) 0.82576(15) -0.1054(6)
C14 C 0.91713(15) 0.83701(15) 0.0130(6)
C15 C 0.92571(16) 0.81726(16) 0.1012(7)
H9 H 0.9233 0.7974 0.0879
C16 C 0.93786(15) 0.82681(16) 0.2085(7)
H10 H 0.9435 0.8136 0.2684
C17 C 0.94149(15) 0.85655(16) 0.2248(6)
H11 H 0.9497 0.8632 0.2970
C18 C 0.92130(15) 0.86679(15) 0.0358(6)
C19 C 0.91505(15) 0.89095(15) -0.0516(6)
C20 C 0.93399(18) 0.93313(17) -0.1346(7)
H12 H 0.9484 0.9474 -0.1355
C21 C 0.91155(18) 0.93501(18) -0.2177(7)
H13 H 0.9116 0.9494 -0.2773
C22 C 0.88925(17) 0.91515(16) -0.2103(7)
H14 H 0.8735 0.9166 -0.2631
C23 C 0.89000(16) 0.89301(15) -0.1250(6)
C24 C 0.86301(15) 0.87427(14) -0.1045(6)
C25 C 0.77798(15) 0.81316(15) 0.0090(7)
C26 C 0.75815(16) 0.79135(16) -0.0534(7)
C27 C 0.76519(16) 0.76194(16) -0.0485(7)
H15 H 0.7831 0.7560 -0.0172
C28 C 0.74521(16) 0.74129(16) -0.0909(7)
H16 H 0.7498 0.7215 -0.0900
C29 C 0.71858(17) 0.75062(16) -0.1342(7)
H17 H 0.7050 0.7368 -0.1592
C30 C 0.73152(15) 0.79921(16) -0.1070(7)
C31 C 0.72164(16) 0.82965(16) -0.1269(7)
C32 C 0.68269(16) 0.86145(17) -0.1081(7)
H18 H 0.6634 0.8648 -0.0853
C33 C 0.69926(17) 0.88481(17) -0.1537(9)
H19 H 0.6915 0.9035 -0.1584
C34 C 0.72738(17) 0.87913(17) -0.1914(9)
H20 H 0.7387 0.8941 -0.2237
C35 C 0.73908(16) 0.85106(16) -0.1814(8)
C36 C 0.76794(17) 0.84483(18) -0.2423(8)
C37 C 0.7980(2) 0.8965(3) 0.2748(9)
C38 C 0.7800(3) 0.9185(3) 0.3595(12)
C39 C 0.7504(3) 0.9117(3) 0.3845(12)
H21 H 0.7430 0.8947 0.3501
C40 C 0.7303(3) 0.9290(3) 0.4593(13)
H22 H 0.7121 0.9234 0.4890
C41 C 0.7444(3) 0.9560(3) 0.4762(13)
H23 H 0.7327 0.9710 0.5056
C42 C 0.7908(3) 0.9429(3) 0.4084(11)
C43 C 0.8221(3) 0.9499(2) 0.4010(10)
C44 C 0.8635(3) 0.9798(3) 0.3652(11)
H24 H 0.8708 0.9969 0.3309
C45 C 0.8831(3) 0.9651(3) 0.4161(11)
H25 H 0.9025 0.9709 0.4233
C46 C 0.8723(3) 0.9403(2) 0.4578(10)
H26 H 0.8853 0.9270 0.4915
C47 C 0.8422(2) 0.9323(2) 0.4552(8)
C48 C 0.83498(16) 0.90494(16) 0.5197(7)
N1 N 0.82840(13) 0.72223(13) 0.4426(6)
N2 N 0.85640(13) 0.74276(12) 0.6371(5)
N3 N 0.93364(13) 0.87601(13) 0.1405(5)
N4 N 0.93580(13) 0.91153(13) -0.0522(5)
N5 N 0.69359(13) 0.83463(13) -0.0963(6)
N6 N 0.71158(13) 0.77900(13) -0.1413(6)
N7 N 0.8344(2) 0.9772(2) 0.3477(9)
N8 N 0.7724(3) 0.9631(2) 0.4559(10)
O1 O 0.81442(11) 0.81840(11) 0.2985(4)
O2 O 0.82669(11) 0.81203(11) 0.4927(5)
O3 O 0.89124(11) 0.81978(11) 0.3998(5)
O4 O 0.88004(11) 0.77998(11) 0.2930(4)
O5 O 0.76928(12) 0.82517(12) 0.1037(5)
O6 O 0.80325(11) 0.81766(12) -0.0329(5)
O7 O 0.77171(14) 0.82206(13) -0.2964(7)
O8 O 0.78690(11) 0.86525(12) -0.2353(5)
O9 O 0.88410(11) 0.80757(10) -0.0974(5)
O10 O 0.91485(11) 0.83571(11) -0.2028(5)
O11 O 0.85853(10) 0.86631(10) 0.0027(4)
O12 O 0.84721(10) 0.86970(11) -0.1945(5)
O13 O 0.83388(11) 0.80782(10) -0.2389(5)
H27 H 0.8256 0.8101 -0.1690
H28 H 0.8269 0.7924 -0.2730
O14 O 0.87608(11) 0.84272(12) -0.3853(5)
H29 H 0.8822 0.8302 -0.3316
H30 H 0.8804 0.8361 -0.4574
O15 O 0.78495(17) 0.85892(14) -0.5049(7)
H31 H 0.7748 0.8425 -0.5222
H32 H 0.7721 0.8718 -0.4738
O16 O 0.79799(12) 0.88145(11) -0.0008(5)
O17 O 0.86272(11) 0.86146(11) 0.2623(5)
H33 H 0.8719 0.8459 0.2817
H34 H 0.8742 0.8729 0.2243
O18 O 0.78981(18) 0.87349(16) 0.2722(6)
O19 O 0.81886(19) 0.90552(18) 0.2121(7)
O20 O 0.84401(15) 0.88137(14) 0.4751(6)
O21 O 0.82069(13) 0.90524(12) 0.6150(5)
O22 O 0.85380(11) 0.80828(11) 0.1104(4)
H35 H 0.8444 0.7923 0.1248
H36 H 0.8604 0.8078 0.0370
Co1 Co 0.95380(2) 0.91756(2) 0.12776(9)
Tb1 Tb 0.822183(7) 0.849140(7) 0.13397(3)
Tb2 Tb 0.825136(8) 0.849845(7) -0.36525(3)
N1I N 0.97223(13) 0.92160(13) 0.3074(6)
N2I N 0.99276(12) 0.89360(13) 0.1129(5)
N5A N 0.91537(13) 0.94359(13) 0.1537(6)
N6A N 0.97100(13) 0.96158(13) 0.1087(6)
O2_2 O 0.82669(11) 0.81203(11) -0.5073(5)
O20_2 O 0.84401(15) 0.88137(14) -0.5249(6)
O21_2 O 0.82069(13) 0.90524(12) -0.3850(5)
Co1G Co 0.66756(2) 0.79620(2) -0.12224(9)
Co1K Co 0.83244(2) 0.70380(2) 0.62224(9)
Tb2_2 Tb 0.825136(8) 0.849845(7) 0.63475(3)
O23 O 0.74672(15) 0.81790(16) 0.3694(7)
O24 O 0.8981(4) 0.7212(3) -0.0023(15)
O25 O 0.8353(3) 0.7481(3) 0.0057(14)
O26 O 0.7725(7) 0.9314(7) -0.259(3)
O27 O 0.7932(3) 0.9411(3) -0.0168(11)
O28 O 0.7752(3) 0.9805(2) 0.1504(10)
O29 O 0.9007(3) 0.7254(2) 0.2550(11)
loop_
_geom_bond_atom_site_label_1
_geom_bond_atom_site_label_2
_geom_bond_site_symmetry_1
_geom_bond_site_symmetry_2
H1 O16 1_555 1_555
H2 O16 1_555 1_555
C1 C2 1_555 1_555
C2 C3 1_555 1_555
C3 H3 1_555 1_555
C4 C3 1_555 1_555
H4 C4 1_555 1_555
C5 C4 1_555 1_555
H5 C5 1_555 1_555
C6 C2 1_555 1_555
C7 C6 1_555 1_555
C8 H6 1_555 1_555
C9 C8 1_555 1_555
H7 C9 1_555 1_555
C10 C9 1_555 1_555
H8 C10 1_555 1_555
C11 C7 1_555 1_555
C12 C11 1_555 1_555
C13 C14 1_555 1_555
C14 C15 1_555 1_555
C15 H9 1_555 1_555
C16 C15 1_555 1_555
H10 C16 1_555 1_555
C17 C16 1_555 1_555
H11 C17 1_555 1_555
C18 C14 1_555 1_555
C19 C18 1_555 1_555
C20 H12 1_555 1_555
C21 C20 1_555 1_555
H13 C21 1_555 1_555
C22 C21 1_555 1_555
H14 C22 1_555 1_555
C23 C19 1_555 1_555
C24 C23 1_555 1_555
C25 C26 1_555 1_555
C26 C27 1_555 1_555
C27 H15 1_555 1_555
C28 C27 1_555 1_555
H16 C28 1_555 1_555
C29 C28 1_555 1_555
H17 C29 1_555 1_555
C30 C26 1_555 1_555
C31 C30 1_555 1_555
C32 H18 1_555 1_555
C33 C32 1_555 1_555
H19 C33 1_555 1_555
C34 C33 1_555 1_555
H20 C34 1_555 1_555
C35 C31 1_555 1_555
C36 C35 1_555 1_555
C37 C38 1_555 1_555
C38 C39 1_555 1_555
C39 H21 1_555 1_555
C40 C39 1_555 1_555
H22 C40 1_555 1_555
C41 C40 1_555 1_555
H23 C41 1_555 1_555
C42 C38 1_555 1_555
C43 C42 1_555 1_555
C44 H24 1_555 1_555
C45 C44 1_555 1_555
H25 C45 1_555 1_555
C46 C45 1_555 1_555
H26 C46 1_555 1_555
C47 C43 1_555 1_555
C48 C47 1_555 1_555
N1 C5 1_555 1_555
N2 C7 1_555 1_555
N3 C17 1_555 1_555
N4 C19 1_555 1_555
N5 C31 1_555 1_555
N6 C29 1_555 1_555
N7 C43 1_555 1_555
N8 C41 1_555 1_555
O1 C1 1_555 1_555
O2 C1 1_555 1_555
O3 C12 1_555 1_555
O4 C12 1_555 1_555
O5 C25 1_555 1_555
O6 C25 1_555 1_555
O7 C36 1_555 1_555
O8 C36 1_555 1_555
O9 C13 1_555 1_555
O10 C13 1_555 1_555
O11 C24 1_555 1_555
O12 C24 1_555 1_555
O13 H27 1_555 1_555
H28 O13 1_555 1_555
O14 H29 1_555 1_555
H30 O14 1_555 1_555
O15 H31 1_555 1_555
H32 O15 1_555 1_555
O16 Tb1 1_555 1_555
O17 H33 1_555 1_555
H34 O17 1_555 1_555
O18 C37 1_555 1_555
O19 C37 1_555 1_555
O20 C48 1_555 1_555
O21 C48 1_555 1_555
O22 H35 1_555 1_555
H36 O22 1_555 1_555
Co1 N3 1_555 1_555
Tb1 O1 1_555 1_555
Tb2 O7 1_555 1_555
N1I Co1 1_555 1_555
N2I Co1 1_555 1_555
N5A Co1 1_555 1_555
N6A Co1 1_555 1_555
O2_2 Tb2 1_555 1_555
O20_2 Tb2 1_555 1_555
O21_2 Tb2 1_555 1_555
Co1G N5 1_555 1_555
Co1K N1 1_555 1_555
Tb2_2 O2 1_555 1_555
C6 N1 1_555 1_555
C8 N2 1_555 1_555
C10 C11 1_555 1_555
C18 N3 1_555 1_555
C20 N4 1_555 1_555
C22 C23 1_555 1_555
C30 N6 1_555 1_555
C32 N5 1_555 1_555
C34 C35 1_555 1_555
C42 N8 1_555 1_555
C44 N7 1_555 1_555
C46 C47 1_555 1_555
N2 Co1K 1_555 1_555
N4 Co1 1_555 1_555
N6 Co1G 1_555 1_555
O5 Tb1 1_555 1_555
O6 Tb1 1_555 1_555
O8 Tb2 1_555 1_555
O11 Tb1 1_555 1_555
O12 Tb2 1_555 1_555
O13 Tb2 1_555 1_555
O14 Tb2 1_555 1_555
O15 Tb2 1_555 1_555
O17 Tb1 1_555 1_555
O18 Tb1 1_555 1_555
O19 Tb1 1_555 1_555
O20 Tb2_2 1_555 1_555
O21 Tb2_2 1_555 1_555
O22 Tb1 1_555 1_555

#END
