
#######################################################################
#
#                 Cambridge Crystallographic Data Centre
#                                CCDC 
#
#######################################################################
#
# If this CIF has been generated from an entry in the Cambridge 
# Structural Database, then it will include bibliographic, chemical, 
# crystal, experimental, refinement or atomic coordinate data resulting 
# from the CCDC's data processing and validation procedures.
#
#######################################################################

data_MIGVON
_symmetry_cell_setting           orthorhombic
_symmetry_space_group_name_H-M   'P 21 21 21'
_symmetry_Int_Tables_number      19
_space_group_name_Hall           'P 2ac 2ab'
loop_
_symmetry_equiv_pos_site_id
_symmetry_equiv_pos_as_xyz
1 x,y,z
2 1/2-x,-y,1/2+z
3 -x,1/2+y,1/2-z
4 1/2+x,1/2-y,-z
_cell_length_a                   13.699(2)
_cell_length_b                   21.594(3)
_cell_length_c                   22.220(3)
_cell_angle_alpha                90
_cell_angle_beta                 90
_cell_angle_gamma                90
_cell_volume                     6573.04
loop_
_atom_site_label
_atom_site_type_symbol
_atom_site_fract_x
_atom_site_fract_y
_atom_site_fract_z
Co1 Co 0.77433(4) 0.84719(2) 0.13498(2)
Co2 Co 0.73185(4) 0.65405(2) 0.36812(2)
S1 S 0.71255(7) 0.76461(4) 0.26177(4)
S2 S 0.8669(2) 0.95614(10) -0.04411(8)
S3 S 0.7384(3) 0.5297(2) 0.54669(12)
O1 O 0.7499(2) 0.70572(13) 0.28595(13)
O2 O 0.7644(2) 0.77638(14) 0.20408(12)
O3 O 0.7322(3) 0.81519(14) 0.30388(13)
O4 O 0.6075(2) 0.7581(2) 0.24993(14)
N1 N 0.6518(3) 0.8012(2) 0.0903(2)
N2 N 0.5730(3) 0.7883(2) 0.1259(2)
H1 H 0.5743(3) 0.7890(2) 0.1645(2)
N3 N 0.3776(3) 0.7209(2) -0.0960(2)
N4 N 0.3370(3) 0.7774(2) -0.0850(2)
H2 H 0.2885(3) 0.7924(2) -0.1048(2)
N5 N 0.8881(3) 0.8917(2) 0.1870(2)
N6 N 0.9658(3) 0.8577(2) 0.2048(2)
H3 H 0.9646(3) 0.8182(2) 0.2093(2)
N7 N 1.1637(3) 1.0929(2) 0.1768(2)
N8 N 1.1836(3) 1.0796(2) 0.2351(2)
H4 H 1.2225(3) 1.1010(2) 0.2572(2)
N9 N 0.8515(3) 0.7081(2) 0.4041(2)
N10 N 0.9307(3) 0.7152(2) 0.3687(2)
H5 H 0.9297(3) 0.7118(2) 0.3302(2)
N11 N 1.1559(3) 0.7224(2) 0.5841(2)
H6 H 1.1986(3) 0.7046(2) 0.6066(2)
N12 N 1.1260(3) 0.7818(2) 0.5918(2)
N13 N 0.4577(3) 1.1396(2) 0.2011(2)
H7 H 0.4540(3) 1.1789(2) 0.2073(2)
N14 N 0.3857(3) 1.1061(2) 0.1774(2)
N15 N 0.6694(3) 0.9077(2) 0.1765(2)
N16 N 0.6722(3) 0.9174(2) 0.2369(2)
H8 H 0.7058(3) 0.8951(2) 0.2614(2)
N17 N 0.8015(3) 0.9049(2) 0.0633(2)
N18 N 0.7243(4) 0.5981(2) 0.4418(2)
C1 C 0.6200(4) 0.7946(2) 0.0334(2)
C2 C 0.5200(4) 0.7782(2) 0.0332(2)
C3 C 0.4932(4) 0.7745(2) 0.0932(2)
C4 C 0.3976(5) 0.7570(5) 0.1218(3)
H9 H 0.4037(5) 0.7591(5) 0.1648(3)
H10 H 0.3805(5) 0.7156(5) 0.1102(3)
H11 H 0.3477(5) 0.7852(5) 0.1087(3)
C5 C 0.6845(4) 0.8039(3) -0.0192(2)
H12 H 0.7488(4) 0.8148(3) -0.0056(2)
H13 H 0.6589(4) 0.8365(3) -0.0439(2)
H14 H 0.6876(4) 0.7663(3) -0.0422(2)
C6 C 0.3819(4) 0.8067(2) -0.0394(2)
C7 C 0.4554(3) 0.7677(2) -0.0192(2)
C8 C 0.4494(3) 0.7155(2) -0.0561(2)
C9 C 0.5154(4) 0.6600(3) -0.0557(2)
H15 H 0.4943(4) 0.6311(3) -0.0858(2)
H16 H 0.5132(4) 0.6406(3) -0.0169(2)
H17 H 0.5811(4) 0.6728(3) -0.0642(2)
C10 C 0.3503(6) 0.8695(3) -0.0175(3)
H18 H 0.2967(6) 0.8839(3) -0.0415(3)
H19 H 0.4038(6) 0.8980(3) -0.0208(3)
H20 H 0.3303(6) 0.8666(3) 0.0238(3)
C11 C 1.0454(4) 0.8929(2) 0.2148(2)
C12 C 1.0189(3) 0.9527(2) 0.2036(2)
C13 C 0.9197(4) 0.9503(2) 0.1869(2)
C14 C 0.8537(4) 1.0037(2) 0.1728(2)
H21 H 0.7899(4) 0.9884(2) 0.1628(2)
H22 H 0.8796(4) 1.0265(2) 0.1394(2)
H23 H 0.8493(4) 1.0303(2) 0.2073(2)
C15 C 1.1399(4) 0.8646(3) 0.2330(4)
H24 H 1.1319(4) 0.8206(3) 0.2369(4)
H25 H 1.1603(4) 0.8817(3) 0.2708(4)
H26 H 1.1883(4) 0.8732(3) 0.2029(4)
C16 C 1.1356(4) 1.0295(2) 0.2543(2)
C17 C 1.0808(4) 1.0081(2) 0.2056(2)
C18 C 1.1025(4) 1.0497(2) 0.1584(2)
C19 C 1.0623(5) 1.0486(3) 0.0962(2)
H27 H 1.0895(5) 1.0823(3) 0.0734(2)
H28 H 0.9926(5) 1.0529(3) 0.0977(2)
H29 H 1.0789(5) 1.0101(3) 0.0772(2)
C20 C 1.1480(5) 1.0060(3) 0.3169(2)
H30 H 1.1920(5) 1.0326(3) 0.3384(2)
H31 H 1.1742(5) 0.9648(3) 0.3158(2)
H32 H 1.0858(5) 1.0055(3) 0.3368(2)
C21 C 0.8836(4) 0.7164(2) 0.4598(2)
C22 C 0.9846(4) 0.7285(2) 0.4603(2)
C23 C 1.0117(4) 0.7282(3) 0.4009(2)
C24 C 1.1074(5) 0.7371(4) 0.3709(3)
H33 H 1.0993(5) 0.7339(4) 0.3281(3)
H34 H 1.1522(5) 0.7059(4) 0.3845(3)
H35 H 1.1325(5) 0.7774(4) 0.3808(3)
C25 C 0.8187(4) 0.7144(3) 0.5126(2)
H36 H 0.7533(4) 0.7053(3) 0.4999(2)
H37 H 0.8198(4) 0.7538(3) 0.5326(2)
H38 H 0.8407(4) 0.6828(3) 0.5398(2)
C26 C 1.1114(4) 0.6942(2) 0.5372(2)
C27 C 1.0479(4) 0.7382(3) 0.5130(2)
C28 C 1.0586(4) 0.7912(2) 0.5493(2)
C29 C 1.0035(5) 0.8501(3) 0.5427(3)
H39 H 1.0245(5) 0.8789(3) 0.5730(3)
H40 H 0.9350(5) 0.8421(3) 0.5474(3)
H41 H 1.0155(5) 0.8673(3) 0.5035(3)
C30 C 1.1311(6) 0.6294(3) 0.5197(3)
H42 H 1.1794(6) 0.6121(3) 0.5461(3)
H43 H 1.1547(6) 0.6282(3) 0.4791(3)
H44 H 1.0720(6) 0.6056(3) 0.5226(3)
C31 C 0.5369(4) 1.1051(3) 0.2143(2)
C32 C 0.5130(4) 1.0444(2) 0.1979(2)
C33 C 0.4169(4) 1.0477(2) 0.1753(2)
C34 C 0.3564(4) 0.9954(2) 0.1524(3)
H45 H 0.2939(4) 1.0108(2) 0.1398(3)
H46 H 0.3476(4) 0.9654(2) 0.1837(3)
H47 H 0.3887(4) 0.9764(2) 0.1188(3)
C35 C 0.6262(5) 1.1310(4) 0.2416(5)
H48 H 0.6185(5) 1.1748(4) 0.2471(5)
H49 H 0.6808(5) 1.1232(4) 0.2156(5)
H50 H 0.6374(5) 1.1117(4) 0.2799(5)
C36 C 0.6171(4) 0.9654(2) 0.2542(2)
C37 C 0.5764(3) 0.9898(2) 0.2024(2)
C38 C 0.6104(3) 0.9516(2) 0.1550(2)
C39 C 0.5877(4) 0.9574(3) 0.0901(2)
H51 H 0.6207(4) 0.9253(3) 0.0683(2)
H52 H 0.6092(4) 0.9971(3) 0.0759(2)
H53 H 0.5185(4) 0.9536(3) 0.0842(2)
C40 C 0.6060(6) 0.9827(4) 0.3188(3)
H54 H 0.6452(6) 0.9557(4) 0.3431(3)
H55 H 0.5388(6) 0.9788(4) 0.3303(3)
H56 H 0.6269(6) 1.0247(4) 0.3245(3)
C41 C 0.7281(6) 0.5706(3) 0.4849(3)
C42 C 0.8291(4) 0.9261(2) 0.0186(2)
N3C N 0.8776(3) 0.7791(2) 0.0960(2)
N7B N 0.8363(3) 0.5929(2) 0.3232(2)
N12C N 0.6260(3) 0.7182(2) 0.4082(2)
N14B N 0.6143(3) 0.6061(2) 0.3226(2)
Co1C Co 0.27433(4) 0.65281(2) -0.13498(2)
Co2B Co 1.26815(4) 1.15405(2) 0.13188(2)
Co2C Co 1.23185(4) 0.84595(2) 0.63188(2)
Co2B_2 Co 0.26815(4) 1.15405(2) 0.13188(2)
C43 C 0.6355(7) 1.0097(4) -0.1046(3)
H57 H 0.6943(7) 1.0017(4) -0.0807(3)
Cl1 Cl 0.6441(2) 1.08301(13) -0.1370(2)
Cl2 Cl 0.6300(3) 0.9556(2) -0.16494(15)
Cl3 Cl 0.5335(2) 1.0029(2) -0.05863(10)
C44 C 0.4319(18) 0.8393(10) 0.3234(9)
H58 H 0.5013(18) 0.8309(10) 0.3304(9)
Cl4 Cl 0.4061(6) 0.8919(2) 0.3684(3)
Cl5 Cl 0.3788(5) 0.7707(2) 0.3263(2)
Cl6 Cl 0.4255(3) 0.8669(2) 0.2434(2)
O5 O 0.9543(3) 0.7249(2) 0.2336(2)
C45 C 1.0056(5) 0.6795(4) 0.2014(4)
H59 H 1.0646(5) 0.6693(4) 0.2224(4)
H60 H 1.0213(5) 0.6950(4) 0.1621(4)
H61 H 0.9658(5) 0.6431(4) 0.1976(4)
O6 O 0.6955(3) 0.6449(2) 0.1604(2)
C46 C 0.6173(8) 0.6113(6) 0.1336(6)
H62 H 0.6421(8) 0.5736(6) 0.1164(6)
H63 H 0.5877(8) 0.6359(6) 0.1027(6)
H64 H 0.5695(8) 0.6015(6) 0.1638(6)
loop_
_geom_bond_atom_site_label_1
_geom_bond_atom_site_label_2
_geom_bond_site_symmetry_1
_geom_bond_site_symmetry_2
Co1 O2 1_555 1_555
Co2 O1 1_555 1_555
S1 O1 1_555 1_555
S2 C42 1_555 1_555
S3 C41 1_555 1_555
O2 S1 1_555 1_555
O3 S1 1_555 1_555
O4 S1 1_555 1_555
N1 Co1 1_555 1_555
N2 N1 1_555 1_555
H1 N2 1_555 1_555
N3 N4 1_555 1_555
N4 H2 1_555 1_555
N5 Co1 1_555 1_555
N6 N5 1_555 1_555
H3 N6 1_555 1_555
N7 N8 1_555 1_555
N8 H4 1_555 1_555
N9 Co2 1_555 1_555
N10 N9 1_555 1_555
H5 N10 1_555 1_555
N11 H6 1_555 1_555
N12 N11 1_555 1_555
N13 H7 1_555 1_555
N14 N13 1_555 1_555
N15 Co1 1_555 1_555
N16 N15 1_555 1_555
H8 N16 1_555 1_555
N17 Co1 1_555 1_555
N18 Co2 1_555 1_555
C1 N1 1_555 1_555
C2 C1 1_555 1_555
C3 N2 1_555 1_555
C4 C3 1_555 1_555
H9 C4 1_555 1_555
H10 C4 1_555 1_555
H11 C4 1_555 1_555
C5 C1 1_555 1_555
H12 C5 1_555 1_555
H13 C5 1_555 1_555
H14 C5 1_555 1_555
C6 N4 1_555 1_555
C7 C2 1_555 1_555
C8 N3 1_555 1_555
C9 C8 1_555 1_555
H15 C9 1_555 1_555
H16 C9 1_555 1_555
H17 C9 1_555 1_555
C10 C6 1_555 1_555
H18 C10 1_555 1_555
H19 C10 1_555 1_555
H20 C10 1_555 1_555
C11 N6 1_555 1_555
C12 C11 1_555 1_555
C13 N5 1_555 1_555
C14 C13 1_555 1_555
H21 C14 1_555 1_555
H22 C14 1_555 1_555
H23 C14 1_555 1_555
C15 C11 1_555 1_555
H24 C15 1_555 1_555
H25 C15 1_555 1_555
H26 C15 1_555 1_555
C16 N8 1_555 1_555
C17 C12 1_555 1_555
C18 N7 1_555 1_555
C19 C18 1_555 1_555
H27 C19 1_555 1_555
H28 C19 1_555 1_555
H29 C19 1_555 1_555
C20 C16 1_555 1_555
H30 C20 1_555 1_555
H31 C20 1_555 1_555
H32 C20 1_555 1_555
C21 N9 1_555 1_555
C22 C21 1_555 1_555
C23 N10 1_555 1_555
C24 C23 1_555 1_555
H33 C24 1_555 1_555
H34 C24 1_555 1_555
H35 C24 1_555 1_555
C25 C21 1_555 1_555
H36 C25 1_555 1_555
H37 C25 1_555 1_555
H38 C25 1_555 1_555
C26 N11 1_555 1_555
C27 C22 1_555 1_555
C28 N12 1_555 1_555
C29 C28 1_555 1_555
H39 C29 1_555 1_555
H40 C29 1_555 1_555
H41 C29 1_555 1_555
C30 C26 1_555 1_555
H42 C30 1_555 1_555
H43 C30 1_555 1_555
H44 C30 1_555 1_555
C31 N13 1_555 1_555
C32 C31 1_555 1_555
C33 N14 1_555 1_555
C34 C33 1_555 1_555
H45 C34 1_555 1_555
H46 C34 1_555 1_555
H47 C34 1_555 1_555
C35 C31 1_555 1_555
H48 C35 1_555 1_555
H49 C35 1_555 1_555
H50 C35 1_555 1_555
C36 N16 1_555 1_555
C37 C32 1_555 1_555
C38 N15 1_555 1_555
C39 C38 1_555 1_555
H51 C39 1_555 1_555
H52 C39 1_555 1_555
H53 C39 1_555 1_555
C40 C36 1_555 1_555
H54 C40 1_555 1_555
H55 C40 1_555 1_555
H56 C40 1_555 1_555
C41 N18 1_555 1_555
C42 N17 1_555 1_555
C43 H57 1_555 1_555
C44 H58 1_555 1_555
Cl1 C43 1_555 1_555
Cl2 C43 1_555 1_555
Cl3 C43 1_555 1_555
Cl4 C44 1_555 1_555
Cl5 C44 1_555 1_555
Cl6 C44 1_555 1_555
O5 C45 1_555 1_555
C45 H59 1_555 1_555
H60 C45 1_555 1_555
H61 C45 1_555 1_555
O6 C46 1_555 1_555
C46 H62 1_555 1_555
H63 C46 1_555 1_555
H64 C46 1_555 1_555
N3C Co1 1_555 1_555
N7B Co2 1_555 1_555
N12C Co2 1_555 1_555
N14B Co2 1_555 1_555
Co1C N3 1_555 1_555
Co2B N7 1_555 1_555
Co2C N12 1_555 1_555
Co2B_2 N14 1_555 1_555
C2 C3 1_555 1_555
C6 C7 1_555 1_555
C7 C8 1_555 1_555
C12 C13 1_555 1_555
C16 C17 1_555 1_555
C17 C18 1_555 1_555
C22 C23 1_555 1_555
C26 C27 1_555 1_555
C27 C28 1_555 1_555
C32 C33 1_555 1_555
C36 C37 1_555 1_555
C37 C38 1_555 1_555

#END
