
#######################################################################
#
#                 Cambridge Crystallographic Data Centre
#                                CCDC 
#
#######################################################################
#
# If this CIF has been generated from an entry in the Cambridge 
# Structural Database, then it will include bibliographic, chemical, 
# crystal, experimental, refinement or atomic coordinate data resulting 
# from the CCDC's data processing and validation procedures.
#
#######################################################################

data_MIHMEW
_symmetry_cell_setting           monoclinic
_symmetry_space_group_name_H-M   'C 2/c'
_symmetry_Int_Tables_number      15
_space_group_name_Hall           '-C 2yn'
loop_
_symmetry_equiv_pos_site_id
_symmetry_equiv_pos_as_xyz
1 x,y,z
2 1/2+x,1/2+y,z
3 -x,y,1/2-z
4 1/2-x,1/2+y,1/2-z
5 -x,-y,-z
6 1/2-x,1/2-y,-z
7 x,-y,1/2+z
8 1/2+x,1/2-y,1/2+z
_cell_length_a                   21.6348(6)
_cell_length_b                   24.1366(7)
_cell_length_c                   31.3773(6)
_cell_angle_alpha                90
_cell_angle_beta                 104.2919(16)
_cell_angle_gamma                90
_cell_volume                     15877.8
loop_
_atom_site_label
_atom_site_type_symbol
_atom_site_fract_x
_atom_site_fract_y
_atom_site_fract_z
Nd1 Nd -0.08476(2) -0.27183(2) 0.200879(15)
Nd2 Nd -0.16883(2) -0.19053(2) 0.086996(15)
Pt1 Pt -0.336140(17) -0.192180(14) 0.427950(11)
C1 C -0.3365(4) -0.3057(4) 0.3857(3)
C2 C -0.3406(5) -0.3290(5) 0.3436(4)
H1 H -0.3485 -0.3669 0.3360
C3 C -0.3317(5) -0.2893(4) 0.3164(3)
H2 H -0.3303 -0.2940 0.2866
C4 C -0.3245(4) -0.2382(4) 0.3403(3)
C5 C -0.3087(4) -0.1884(4) 0.3246(3)
C6 C -0.3065(4) -0.1377(4) 0.3468(3)
C7 C -0.2936(5) -0.0850(4) 0.3327(3)
H3 H -0.2791 -0.0776 0.3070
C8 C -0.3047(4) -0.0465(4) 0.3603(3)
H4 H -0.3016 -0.0076 0.3572
C9 C -0.3222(5) -0.0749(4) 0.3953(3)
C10 C -0.3404(5) -0.0498(4) 0.4300(3)
C11 C -0.3551(5) -0.0789(4) 0.4656(3)
C12 C -0.3742(5) -0.0533(5) 0.5012(4)
H5 H -0.3824 -0.0150 0.5043
C13 C -0.3782(6) -0.0942(4) 0.5298(3)
H6 H -0.3881 -0.0898 0.5574
C14 C -0.3648(5) -0.1451(4) 0.5110(3)
C15 C -0.3621(5) -0.1972(4) 0.5318(3)
C16 C -0.3475(5) -0.2460(4) 0.5135(3)
C17 C -0.3414(5) -0.3009(4) 0.5340(3)
H7 H -0.3449 -0.3090 0.5630
C18 C -0.3306(5) -0.3367(4) 0.5057(3)
H8 H -0.3221 -0.3750 0.5112
C19 C -0.3335(4) -0.3092(4) 0.4650(3)
C20 C -0.3356(4) -0.3351(4) 0.4246(3)
N1 N -0.3307(3) -0.2490(3) 0.3821(2)
N2 N -0.3223(3) -0.1310(3) 0.3870(2)
N3 N -0.3510(4) -0.1349(3) 0.4718(2)
N4 N -0.3408(4) -0.2525(3) 0.4712(2)
C21 C -0.2900(4) -0.1865(4) 0.2811(3)
C22 C -0.3336(5) -0.1964(4) 0.2418(3)
H9 H -0.3772 -0.2030 0.2408
C23 C -0.3118(4) -0.1966(4) 0.2035(3)
H10 H -0.3416 -0.2023 0.1760
C24 C -0.2493(4) -0.1889(4) 0.2043(3)
C25 C -0.2060(4) -0.1764(4) 0.2432(3)
H11 H -0.1627 -0.1687 0.2438
C26 C -0.2269(4) -0.1751(4) 0.2821(3)
H12 H -0.1977 -0.1664 0.3092
C27 C -0.2271(5) -0.1958(4) 0.1627(3)
O1 O -0.1663(3) -0.2052(3) 0.16762(18)
O2 O -0.2643(3) -0.1931(3) 0.1257(2)
C28 C -0.3436(5) 0.0118(4) 0.4280(3)
C29 C -0.3963(6) 0.0370(4) 0.4033(4)
H13 H -0.4335 0.0158 0.3914
C30 C -0.3966(5) 0.0946(5) 0.3951(3)
H14 H -0.4326 0.1115 0.3759
C31 C -0.3450(5) 0.1256(4) 0.4147(3)
C32 C -0.2941(5) 0.1005(4) 0.4436(3)
H15 H -0.2585 0.1219 0.4586
C33 C -0.2953(6) 0.0429(4) 0.4507(3)
H16 H -0.2615 0.0260 0.4718
C34 C -0.3425(5) 0.1852(4) 0.4049(3)
O3 O -0.2957(4) 0.2137(3) 0.4246(3)
O4 O -0.3881(3) 0.2076(3) 0.37701(19)
C35 C -0.3763(5) -0.2000(4) 0.5758(3)
C36 C -0.4404(5) -0.2014(4) 0.5791(3)
H17 H -0.4747 -0.1990 0.5535
C37 C -0.4520(5) -0.2062(4) 0.6198(3)
H18 H -0.4949 -0.2059 0.6221
C38 C -0.4047(4) -0.2115(4) 0.6572(3)
C39 C -0.3432(5) -0.2105(4) 0.6533(3)
H19 H -0.3094 -0.2138 0.6791
C40 C -0.3288(5) -0.2050(4) 0.6135(3)
H20 H -0.2855 -0.2046 0.6120
C41 C -0.4182(5) -0.2200(3) 0.7009(3)
O5 O -0.3740(3) -0.2221(3) 0.7341(2)
O6 O -0.4753(3) -0.2254(3) 0.70387(19)
C42 C -0.3341(3) -0.3968(2) 0.42440(15)
C43 C -0.3843(3) -0.4267(2) 0.43347(11)
H21 H -0.4178 -0.4079 0.4421
C44 C -0.3854(2) -0.4841(2) 0.42995(12)
H22 H -0.4197 -0.5045 0.4361
C45 C -0.3363(2) -0.5116(2) 0.41735(13)
C46 C -0.28614(18) -0.4818(2) 0.40827(17)
H23 H -0.2526 -0.5006 0.3997
C47 C -0.2850(2) -0.4243(2) 0.41180(19)
H24 H -0.2507 -0.4039 0.4056
C48 C -0.3356(3) -0.5737(2) 0.41071(16)
O7 O -0.3212(3) -0.5948(2) 0.38232(18)
O8 O -0.3603(3) -0.6025(2) 0.44018(17)
H25 H -0.4070 -0.5980 0.4355
Pt2 Pt 0.0005(4) 0.22725(2) 0.24979(19)
C49 C -0.0001(3) 0.08471(2) 0.25008(13)
C50 C 0.0085(3) 0.11066(8) 0.21318(15)
C51 C 0.0170(2) 0.08306(17) 0.17382(17)
H26 H 0.0180 0.0443 0.1688
C52 C 0.0231(5) 0.1241(4) 0.1459(3)
H27 H 0.0290 0.1189 0.1172
C53 C 0.0192(4) 0.1755(4) 0.1658(3)
C54 C 0.0237(5) 0.2273(4) 0.1465(3)
C55 C 0.0145(4) 0.2785(4) 0.1636(3)
C56 C 0.0162(4) 0.3311(4) 0.1429(3)
H28 H 0.0218 0.3370 0.1142
C57 C 0.0089(4) 0.3690(4) 0.1703(3)
H29 H 0.0076 0.4077 0.1647
C58 C 0.0027(4) 0.3427(3) 0.2123(3)
C59 C 0.0000 0.3698(5) 0.2500
N5 N 0.0082(3) 0.1679(3) 0.2059(2)
N6 N 0.0057(3) 0.2867(3) 0.2064(2)
C60 C 0.0000 0.0232(6) 0.2500
C61 C -0.0544(5) -0.0073(4) 0.2267(3)
H30 H -0.0911 0.0122 0.2110
C62 C -0.0552(5) -0.0659(4) 0.2263(3)
H31 H -0.0918 -0.0857 0.2105
C63 C 0.0000 -0.0947(5) 0.2500
C64 C 0.0000 -0.1579(5) 0.2500
O9 O -0.0504(3) -0.1809(2) 0.22975(19)
C65 C 0.0429(5) 0.2249(4) 0.1035(3)
C66 C -0.0003(6) 0.2293(5) 0.0631(3)
H32 H -0.0440 0.2367 0.0611
C67 C 0.0222(6) 0.2224(6) 0.0247(3)
H33 H -0.0075 0.2228 -0.0032
C68 C 0.0858(6) 0.2152(5) 0.0267(4)
C69 C 0.1286(6) 0.2128(5) 0.0673(4)
H34 H 0.1728 0.2081 0.0693
C70 C 0.1070(5) 0.2170(5) 0.1045(3)
H35 H 0.1370 0.2145 0.1323
C71 C 0.1104(7) 0.2117(6) -0.0159(5)
O10 O 0.0762(5) 0.2174(5) -0.0484(4)
O11 O 0.1663(7) 0.1999(6) -0.0100(5)
C72 C 0.0000 0.4345(5) 0.2500
C73 C -0.0464(5) 0.4617(4) 0.2230(3)
H36 H -0.0796 0.4416 0.2037
C74 C -0.0476(5) 0.5196(4) 0.2222(3)
H37 H -0.0813 0.5386 0.2024
C75 C 0.0000 0.5490(5) 0.2500
C76 C 0.0000 0.6115(4) 0.2500
O12 O -0.0473(3) 0.6364(2) 0.2261(2)
O13 O -0.1858(3) -0.3275(3) 0.1820(2)
C77 C -0.2248(6) -0.3389(5) 0.2048(4)
H38 H -0.2181 -0.3225 0.2331
N7 N -0.2738(4) -0.3717(4) 0.1919(3)
C78 C -0.3176(7) -0.3831(6) 0.2192(4)
H39 H -0.3001 -0.3681 0.2488
H40 H -0.3234 -0.4232 0.2211
H41 H -0.3589 -0.3656 0.2063
C79 C -0.2887(7) -0.3984(6) 0.1502(4)
H42 H -0.3182 -0.3753 0.1288
H43 H -0.3087 -0.4343 0.1527
H44 H -0.2495 -0.4042 0.1405
O14 O -0.0586(4) -0.1860(3) 0.1393(3)
H45 H -0.0490 -0.1492 0.1534
H46 H -0.0243 -0.1971 0.1252
Nd1C Nd -0.41524(2) -0.77183(2) 0.299121(15)
Nd1C_2 Nd -0.41524(2) 0.22817(2) 0.299121(15)
Nd1E Nd -0.41524(2) -0.22817(2) 0.799121(15)
Nd1G Nd -0.58476(2) -0.22817(2) 0.700879(15)
Nd1_2 Nd -0.08476(2) 0.72817(2) 0.200879(15)
Nd1B Nd 0.08476(2) -0.27183(2) 0.299121(15)
Nd1B_2 Nd 0.08476(2) 0.72817(2) 0.299121(15)
Nd1F Nd -0.08476(2) -0.72817(2) -0.299121(15)
Nd1D Nd 0.08476(2) -0.72817(2) -0.200879(15)
Nd2C Nd -0.33117(2) -0.69053(2) 0.413004(15)
Nd2C_2 Nd -0.33117(2) 0.30947(2) 0.413004(15)
Nd2D Nd 0.16883(2) 0.19053(2) -0.086996(15)
Nd2F Nd -0.16883(2) 0.19053(2) 0.586996(15)
Nd2_2 Nd -0.16883(2) -1.19053(2) 0.086996(15)
Pt1C Pt -0.163860(17) -0.692180(14) 0.072050(11)
C1C C -0.1635(4) -0.8057(4) 0.1143(3)
C2C C -0.1594(5) -0.8290(5) 0.1564(4)
H1C H -0.1515 -0.8669 0.1640
C3C C -0.1683(5) -0.7893(4) 0.1836(3)
H2C H -0.1697 -0.7940 0.2134
C4C C -0.1755(4) -0.7382(4) 0.1597(3)
C5C C -0.1913(4) -0.6884(4) 0.1754(3)
C6C C -0.1935(4) -0.6377(4) 0.1532(3)
C7C C -0.2064(5) -0.5850(4) 0.1673(3)
H3C H -0.2209 -0.5776 0.1930
C8C C -0.1953(4) -0.5465(4) 0.1397(3)
H4C H -0.1984 -0.5076 0.1428
C9C C -0.1778(5) -0.5749(4) 0.1047(3)
C10C C -0.1596(5) -0.5498(4) 0.0700(3)
C11C C -0.1449(5) -0.5789(4) 0.0344(3)
C12C C -0.1258(5) -0.5533(5) -0.0012(4)
H5C H -0.1176 -0.5150 -0.0043
C13C C -0.1218(6) -0.5942(4) -0.0298(3)
H6C H -0.1119 -0.5898 -0.0574
C14C C -0.1352(5) -0.6451(4) -0.0110(3)
C15C C -0.1379(5) -0.6972(4) -0.0318(3)
C16C C -0.1525(5) -0.7460(4) -0.0135(3)
C17C C -0.1586(5) -0.8009(4) -0.0340(3)
H7C H -0.1551 -0.8090 -0.0630
C18C C -0.1694(5) -0.8367(4) -0.0057(3)
H8C H -0.1779 -0.8750 -0.0112
C19C C -0.1665(4) -0.8092(4) 0.0350(3)
C20C C -0.1644(4) -0.8351(4) 0.0754(3)
N1C N -0.1693(3) -0.7490(3) 0.1179(2)
N2C N -0.1777(3) -0.6310(3) 0.1130(2)
N3C N -0.1490(4) -0.6349(3) 0.0282(2)
N4C N -0.1592(4) -0.7525(3) 0.0288(2)
C21C C -0.2100(4) -0.6865(4) 0.2189(3)
C22C C -0.1664(5) -0.6964(4) 0.2582(3)
H9C H -0.1228 -0.7030 0.2592
C23C C -0.1882(4) -0.6966(4) 0.2965(3)
H10C H -0.1584 -0.7023 0.3240
C24C C -0.2507(4) -0.6889(4) 0.2957(3)
C25C C -0.2940(4) -0.6764(4) 0.2568(3)
H11C H -0.3373 -0.6687 0.2562
C26C C -0.2731(4) -0.6751(4) 0.2179(3)
H12C H -0.3023 -0.6664 0.1908
C27C C -0.2729(5) -0.6958(4) 0.3373(3)
O1C O -0.3337(3) -0.7052(3) 0.33238(18)
O2C O -0.2357(3) -0.6931(3) 0.3743(2)
C28C C -0.1564(5) -0.4882(4) 0.0720(3)
C29C C -0.1037(6) -0.4630(4) 0.0967(4)
H13C H -0.0665 -0.4842 0.1086
C30C C -0.1034(5) -0.4054(5) 0.1049(3)
H14C H -0.0674 -0.3885 0.1241
C31C C -0.1550(5) -0.3744(4) 0.0853(3)
C32C C -0.2059(5) -0.3995(4) 0.0564(3)
H15C H -0.2415 -0.3781 0.0414
C33C C -0.2047(6) -0.4571(4) 0.0493(3)
H16C H -0.2385 -0.4740 0.0282
C34C C -0.1575(5) -0.3148(4) 0.0951(3)
O3C O -0.2043(4) -0.2863(3) 0.0754(3)
O3_2 O -0.2957(4) -0.7863(3) 0.4246(3)
O4C O -0.1119(3) -0.2924(3) 0.12299(19)
O4_2 O -0.3881(3) -0.7924(3) 0.37701(19)
C35C C -0.1237(5) -0.7000(4) -0.0758(3)
C36C C -0.0596(5) -0.7014(4) -0.0791(3)
H17C H -0.0253 -0.6990 -0.0535
C37C C -0.0480(5) -0.7062(4) -0.1198(3)
H18C H -0.0051 -0.7059 -0.1221
C38C C -0.0953(4) -0.7115(4) -0.1572(3)
C39C C -0.1568(5) -0.7105(4) -0.1533(3)
H19C H -0.1906 -0.7138 -0.1791
C40C C -0.1712(5) -0.7050(4) -0.1135(3)
H20C H -0.2145 -0.7046 -0.1120
C41C C -0.0818(5) -0.7200(3) -0.2009(3)
O5C O -0.1260(3) -0.7221(3) -0.2341(2)
O5E O -0.1260(3) -0.2779(3) 0.2659(2)
O5F O -0.3740(3) -0.7779(3) 0.2341(2)
O6C O -0.0247(3) -0.7254(3) -0.20387(19)
O6G O 0.0247(3) -0.2746(3) 0.20387(19)
O6D O -0.5247(3) -0.7746(3) 0.29613(19)
C42C C -0.1659(3) -0.8968(2) 0.07560(15)
C43C C -0.1157(3) -0.9267(2) 0.06653(11)
H21C H -0.0822 -0.9079 0.0579
C44C C -0.1146(2) -0.9841(2) 0.07005(12)
H22C H -0.0803 -1.0045 0.0639
C45C C -0.1637(2) -1.0116(2) 0.08265(13)
C46C C -0.21386(18) -0.9818(2) 0.09173(17)
H23C H -0.2474 -1.0006 0.1003
C47C C -0.2150(2) -0.9243(2) 0.08820(19)
H24C H -0.2493 -0.9039 0.0944
C48C C -0.1644(3) -1.0737(2) 0.08929(16)
O7C O -0.1788(3) -1.0948(2) 0.11768(18)
O7C_2 O -0.1788(3) -0.0948(2) 0.11768(18)
O8C O -0.1397(3) -1.1025(2) 0.05982(17)
O8C_2 O -0.1397(3) -0.1025(2) 0.05982(17)
H25C H -0.0930 -1.0980 0.0645
H25C_2 H -0.0930 -0.0980 0.0645
C50B C -0.0085(3) 0.11066(8) 0.28682(15)
C51B C -0.0170(2) 0.08306(17) 0.32618(17)
H26B H -0.0180 0.0443 0.3312
C52B C -0.0231(5) 0.1241(4) 0.3541(3)
H27B H -0.0290 0.1189 0.3828
C53B C -0.0192(4) 0.1755(4) 0.3342(3)
C54B C -0.0237(5) 0.2273(4) 0.3535(3)
C55B C -0.0145(4) 0.2785(4) 0.3364(3)
C56B C -0.0162(4) 0.3311(4) 0.3571(3)
H28B H -0.0218 0.3370 0.3858
C57B C -0.0089(4) 0.3690(4) 0.3297(3)
H29B H -0.0076 0.4077 0.3353
C58B C -0.0027(4) 0.3427(3) 0.2877(3)
N5B N -0.0082(3) 0.1679(3) 0.2941(2)
N6B N -0.0057(3) 0.2867(3) 0.2936(2)
C61B C 0.0544(5) -0.0073(4) 0.2733(3)
H30B H 0.0911 0.0122 0.2890
C62B C 0.0552(5) -0.0659(4) 0.2737(3)
H31B H 0.0918 -0.0857 0.2895
O9B O 0.0504(3) -0.1809(2) 0.27025(19)
O9C O -0.4496(3) -0.6809(2) 0.27025(19)
C65B C -0.0429(5) 0.2249(4) 0.3965(3)
C66B C 0.0003(6) 0.2293(5) 0.4369(3)
H32B H 0.0440 0.2367 0.4389
C67B C -0.0222(6) 0.2224(6) 0.4753(3)
H33B H 0.0075 0.2228 0.5032
C68B C -0.0858(6) 0.2152(5) 0.4733(4)
C69B C -0.1286(6) 0.2128(5) 0.4327(4)
H34B H -0.1728 0.2081 0.4307
C70B C -0.1070(5) 0.2170(5) 0.3955(3)
H35B H -0.1370 0.2145 0.3677
C71B C -0.1104(7) 0.2117(6) 0.5159(5)
O10B O -0.0762(5) 0.2174(5) 0.5484(4)
O10D O -0.0762(5) -0.2174(5) 0.0484(4)
O10G O -0.4238(5) -0.7174(5) 0.4516(4)
O11B O -0.1663(7) 0.1999(6) 0.5100(5)
O11D O -0.1663(7) -0.1999(6) 0.0100(5)
O11G O -0.3337(7) -0.6999(6) 0.4900(5)
C73B C 0.0464(5) 0.4617(4) 0.2770(3)
H36B H 0.0796 0.4416 0.2963
C74B C 0.0476(5) 0.5196(4) 0.2778(3)
H37B H 0.0813 0.5386 0.2976
O12B O 0.0473(3) 0.6364(2) 0.2739(2)
O12_2 O -0.0473(3) -0.3636(2) 0.2261(2)
O12C O -0.4527(3) -0.8636(2) 0.2739(2)
O13C O -0.3142(3) -0.8275(3) 0.3180(2)
C77C C -0.2752(6) -0.8389(5) 0.2952(4)
H38C H -0.2819 -0.8225 0.2669
N7C N -0.2262(4) -0.8717(4) 0.3081(3)
C78C C -0.1824(7) -0.8831(6) 0.2808(4)
H39C H -0.1999 -0.8681 0.2512
H40C H -0.1766 -0.9232 0.2789
H41C H -0.1411 -0.8656 0.2937
C79C C -0.2113(7) -0.8984(6) 0.3498(4)
H42C H -0.1818 -0.8753 0.3712
H43C H -0.1913 -0.9343 0.3473
H44C H -0.2505 -0.9042 0.3595
O14C O -0.4414(4) -0.6860(3) 0.3607(3)
H45C H -0.4510 -0.6492 0.3466
H46C H -0.4757 -0.6971 0.3748
loop_
_geom_bond_atom_site_label_1
_geom_bond_atom_site_label_2
_geom_bond_site_symmetry_1
_geom_bond_site_symmetry_2
Nd1 O1 1_555 1_555
Nd2 O1 1_555 1_555
Pt1 N1 1_555 1_555
C1 C2 1_555 1_555
C2 H1 1_555 1_555
C3 C2 1_555 1_555
H2 C3 1_555 1_555
C4 C3 1_555 1_555
C5 C4 1_555 1_555
C6 C5 1_555 1_555
C7 C6 1_555 1_555
H3 C7 1_555 1_555
C8 C7 1_555 1_555
H4 C8 1_555 1_555
C9 C8 1_555 1_555
C10 C9 1_555 1_555
C11 C10 1_555 1_555
C12 C11 1_555 1_555
H5 C12 1_555 1_555
C13 C12 1_555 1_555
H6 C13 1_555 1_555
C14 C13 1_555 1_555
C15 C14 1_555 1_555
C16 C15 1_555 1_555
C17 C16 1_555 1_555
H7 C17 1_555 1_555
C18 C17 1_555 1_555
H8 C18 1_555 1_555
C19 C18 1_555 1_555
C20 C1 1_555 1_555
N1 C1 1_555 1_555
N2 Pt1 1_555 1_555
N3 Pt1 1_555 1_555
N4 Pt1 1_555 1_555
C21 C5 1_555 1_555
C22 C21 1_555 1_555
H9 C22 1_555 1_555
C23 C22 1_555 1_555
H10 C23 1_555 1_555
C24 C23 1_555 1_555
C25 C24 1_555 1_555
H11 C25 1_555 1_555
C26 C21 1_555 1_555
H12 C26 1_555 1_555
C27 C24 1_555 1_555
O1 C27 1_555 1_555
O2 Nd2 1_555 1_555
C28 C10 1_555 1_555
C29 C28 1_555 1_555
H13 C29 1_555 1_555
C30 C29 1_555 1_555
H14 C30 1_555 1_555
C31 C30 1_555 1_555
C32 C31 1_555 1_555
H15 C32 1_555 1_555
C33 C28 1_555 1_555
H16 C33 1_555 1_555
C34 C31 1_555 1_555
O3 C34 1_555 1_555
O4 C34 1_555 1_555
C35 C15 1_555 1_555
C36 C35 1_555 1_555
H17 C36 1_555 1_555
C37 C36 1_555 1_555
H18 C37 1_555 1_555
C38 C37 1_555 1_555
C39 C38 1_555 1_555
H19 C39 1_555 1_555
C40 C35 1_555 1_555
H20 C40 1_555 1_555
C41 C38 1_555 1_555
O5 C41 1_555 1_555
O6 C41 1_555 1_555
C42 C20 1_555 1_555
C43 C42 1_555 1_555
H21 C43 1_555 1_555
C44 C43 1_555 1_555
H22 C44 1_555 1_555
C45 C44 1_555 1_555
C46 C45 1_555 1_555
H23 C46 1_555 1_555
C47 C42 1_555 1_555
H24 C47 1_555 1_555
C48 C45 1_555 1_555
O7 C48 1_555 1_555
O8 C48 1_555 1_555
H25 O8 1_555 1_555
Pt2 N5 1_555 1_555
C49 C50 1_555 1_555
C50 C51 1_555 1_555
C51 H26 1_555 1_555
C52 C51 1_555 1_555
H27 C52 1_555 1_555
C53 C52 1_555 1_555
C54 C53 1_555 1_555
C55 C54 1_555 1_555
C56 C55 1_555 1_555
H28 C56 1_555 1_555
C57 C56 1_555 1_555
H29 C57 1_555 1_555
C58 C57 1_555 1_555
C59 C58 1_555 1_555
N5 C50 1_555 1_555
N6 Pt2 1_555 1_555
C60 C49 1_555 1_555
C61 C60 1_555 1_555
H30 C61 1_555 1_555
C62 C61 1_555 1_555
H31 C62 1_555 1_555
C63 C62 1_555 1_555
C64 C63 1_555 1_555
O9 Nd1 1_555 1_555
C65 C54 1_555 1_555
C66 C65 1_555 1_555
H32 C66 1_555 1_555
C67 C66 1_555 1_555
H33 C67 1_555 1_555
C68 C67 1_555 1_555
C69 C68 1_555 1_555
H34 C69 1_555 1_555
C70 C65 1_555 1_555
H35 C70 1_555 1_555
C71 C68 1_555 1_555
O10 C71 1_555 1_555
O11 C71 1_555 1_555
C72 C59 1_555 1_555
C73 C72 1_555 1_555
H36 C73 1_555 1_555
C74 C73 1_555 1_555
H37 C74 1_555 1_555
C75 C74 1_555 1_555
C76 C75 1_555 1_555
O12 C76 1_555 1_555
O13 Nd1 1_555 1_555
C77 O13 1_555 1_555
H38 C77 1_555 1_555
N7 C77 1_555 1_555
C78 N7 1_555 1_555
H39 C78 1_555 1_555
H40 C78 1_555 1_555
H41 C78 1_555 1_555
C79 N7 1_555 1_555
H42 C79 1_555 1_555
H43 C79 1_555 1_555
H44 C79 1_555 1_555
O14 Nd2 1_555 1_555
H45 O14 1_555 1_555
H46 O14 1_555 1_555
Nd1C O1C 1_555 1_555
Nd1C_2 O4 1_555 1_555
Nd1E O5 1_555 1_555
Nd1G O6 1_555 1_555
Nd1_2 O12 1_555 1_555
Nd1B O9B 1_555 1_555
Nd1B_2 O12B 1_555 1_555
Nd1F O5C 1_555 1_555
Nd1D O6C 1_555 1_555
Nd2C O7 1_555 1_555
Nd2C_2 O3 1_555 1_555
Nd2D O10 1_555 1_555
Nd2F O10B 1_555 1_555
Nd2_2 O7C 1_555 1_555
Pt1C N1C 1_555 1_555
C1C C2C 1_555 1_555
C2C H1C 1_555 1_555
C3C C2C 1_555 1_555
H2C C3C 1_555 1_555
C4C C3C 1_555 1_555
C5C C4C 1_555 1_555
C6C C5C 1_555 1_555
C7C C6C 1_555 1_555
H3C C7C 1_555 1_555
C8C C7C 1_555 1_555
H4C C8C 1_555 1_555
C9C C8C 1_555 1_555
C10C C9C 1_555 1_555
C11C C10C 1_555 1_555
C12C C11C 1_555 1_555
H5C C12C 1_555 1_555
C13C C12C 1_555 1_555
H6C C13C 1_555 1_555
C14C C13C 1_555 1_555
C15C C14C 1_555 1_555
C16C C15C 1_555 1_555
C17C C16C 1_555 1_555
H7C C17C 1_555 1_555
C18C C17C 1_555 1_555
H8C C18C 1_555 1_555
C19C C18C 1_555 1_555
C20C C1C 1_555 1_555
N1C C1C 1_555 1_555
N2C Pt1C 1_555 1_555
N3C Pt1C 1_555 1_555
N4C Pt1C 1_555 1_555
C21C C5C 1_555 1_555
C22C C21C 1_555 1_555
H9C C22C 1_555 1_555
C23C C22C 1_555 1_555
H10C C23C 1_555 1_555
C24C C23C 1_555 1_555
C25C C24C 1_555 1_555
H11C C25C 1_555 1_555
C26C C21C 1_555 1_555
H12C C26C 1_555 1_555
C27C C24C 1_555 1_555
O1C Nd2C 1_555 1_555
O2C Nd2C 1_555 1_555
C28C C10C 1_555 1_555
C29C C28C 1_555 1_555
H13C C29C 1_555 1_555
C30C C29C 1_555 1_555
H14C C30C 1_555 1_555
C31C C30C 1_555 1_555
C32C C31C 1_555 1_555
H15C C32C 1_555 1_555
C33C C28C 1_555 1_555
H16C C33C 1_555 1_555
C34C C31C 1_555 1_555
O3C Nd2 1_555 1_555
O3_2 Nd2C 1_555 1_555
O4C Nd1 1_555 1_555
O4_2 Nd1C 1_555 1_555
C35C C15C 1_555 1_555
C36C C35C 1_555 1_555
H17C C36C 1_555 1_555
C37C C36C 1_555 1_555
H18C C37C 1_555 1_555
C38C C37C 1_555 1_555
C39C C38C 1_555 1_555
H19C C39C 1_555 1_555
C40C C35C 1_555 1_555
H20C C40C 1_555 1_555
C41C C38C 1_555 1_555
O5C C41C 1_555 1_555
O5E Nd1 1_555 1_555
O5F Nd1C 1_555 1_555
O6C C41C 1_555 1_555
O6G Nd1 1_555 1_555
O6D Nd1C 1_555 1_555
C42C C20C 1_555 1_555
C43C C42C 1_555 1_555
H21C C43C 1_555 1_555
C44C C43C 1_555 1_555
H22C C44C 1_555 1_555
C45C C44C 1_555 1_555
C46C C45C 1_555 1_555
H23C C46C 1_555 1_555
C47C C42C 1_555 1_555
H24C C47C 1_555 1_555
C48C C45C 1_555 1_555
O7C C48C 1_555 1_555
O7C_2 Nd2 1_555 1_555
O8C Nd2_2 1_555 1_555
O8C_2 Nd2 1_555 1_555
H25C O8C 1_555 1_555
H25C_2 O8C_2 1_555 1_555
C50B C49 1_555 1_555
C51B C50B 1_555 1_555
H26B C51B 1_555 1_555
C52B C51B 1_555 1_555
H27B C52B 1_555 1_555
C53B C52B 1_555 1_555
C54B C53B 1_555 1_555
C55B C54B 1_555 1_555
C56B C55B 1_555 1_555
H28B C56B 1_555 1_555
C57B C56B 1_555 1_555
H29B C57B 1_555 1_555
C58B C59 1_555 1_555
N5B Pt2 1_555 1_555
N6B Pt2 1_555 1_555
C61B C60 1_555 1_555
H30B C61B 1_555 1_555
C62B C63 1_555 1_555
H31B C62B 1_555 1_555
O9B C64 1_555 1_555
O9C Nd1C 1_555 1_555
C65B C54B 1_555 1_555
C66B C65B 1_555 1_555
H32B C66B 1_555 1_555
C67B C66B 1_555 1_555
H33B C67B 1_555 1_555
C68B C67B 1_555 1_555
C69B C68B 1_555 1_555
H34B C69B 1_555 1_555
C70B C65B 1_555 1_555
H35B C70B 1_555 1_555
C71B C68B 1_555 1_555
O10B C71B 1_555 1_555
O10D Nd2 1_555 1_555
O10G Nd2C 1_555 1_555
O11B Nd2F 1_555 1_555
O11D Nd2 1_555 1_555
O11G Nd2C 1_555 1_555
C73B C72 1_555 1_555
H36B C73B 1_555 1_555
C74B C75 1_555 1_555
H37B C74B 1_555 1_555
O12B C76 1_555 1_555
O12_2 Nd1 1_555 1_555
O12C Nd1C 1_555 1_555
O13C Nd1C 1_555 1_555
C77C O13C 1_555 1_555
H38C C77C 1_555 1_555
N7C C77C 1_555 1_555
C78C N7C 1_555 1_555
H39C C78C 1_555 1_555
H40C C78C 1_555 1_555
H41C C78C 1_555 1_555
C79C N7C 1_555 1_555
H42C C79C 1_555 1_555
H43C C79C 1_555 1_555
H44C C79C 1_555 1_555
O14C Nd2C 1_555 1_555
H45C O14C 1_555 1_555
H46C O14C 1_555 1_555
C4 N1 1_555 1_555
C6 N2 1_555 1_555
C9 N2 1_555 1_555
C11 N3 1_555 1_555
C14 N3 1_555 1_555
C16 N4 1_555 1_555
C19 C20 1_555 1_555
C19 N4 1_555 1_555
C25 C26 1_555 1_555
C27 O2 1_555 1_555
C32 C33 1_555 1_555
C39 C40 1_555 1_555
C46 C47 1_555 1_555
O8 Nd2C 1_555 1_555
C53 N5 1_555 1_555
C55 N6 1_555 1_555
C58 N6 1_555 1_555
C64 O9 1_555 1_555
C69 C70 1_555 1_555
O11 Nd2D 1_555 1_555
C4C N1C 1_555 1_555
C6C N2C 1_555 1_555
C9C N2C 1_555 1_555
C11C N3C 1_555 1_555
C14C N3C 1_555 1_555
C16C N4C 1_555 1_555
C19C C20C 1_555 1_555
C19C N4C 1_555 1_555
C25C C26C 1_555 1_555
C27C O1C 1_555 1_555
C27C O2C 1_555 1_555
C32C C33C 1_555 1_555
C34C O3C 1_555 1_555
C34C O4C 1_555 1_555
C39C C40C 1_555 1_555
C46C C47C 1_555 1_555
C48C O8C 1_555 1_555
C50B N5B 1_555 1_555
C53B N5B 1_555 1_555
C55B N6B 1_555 1_555
C57B C58B 1_555 1_555
C58B N6B 1_555 1_555
C61B C62B 1_555 1_555
C69B C70B 1_555 1_555
C71B O11B 1_555 1_555
C73B C74B 1_555 1_555

#END
