
#######################################################################
#
#                 Cambridge Crystallographic Data Centre
#                                CCDC 
#
#######################################################################
#
# If this CIF has been generated from an entry in the Cambridge 
# Structural Database, then it will include bibliographic, chemical, 
# crystal, experimental, refinement or atomic coordinate data resulting 
# from the CCDC's data processing and validation procedures.
#
#######################################################################

data_MIJYEK
_symmetry_cell_setting           orthorhombic
_symmetry_space_group_name_H-M   'P n n m'
_symmetry_Int_Tables_number      58
_space_group_name_Hall           '-P 2 2n'
loop_
_symmetry_equiv_pos_site_id
_symmetry_equiv_pos_as_xyz
1 x,y,z
2 -x,-y,z
3 1/2-x,1/2+y,1/2-z
4 1/2+x,1/2-y,1/2-z
5 -x,-y,-z
6 x,y,-z
7 1/2+x,1/2-y,1/2+z
8 1/2-x,1/2+y,1/2+z
_cell_length_a                   18.929(4)
_cell_length_b                   6.5600(13)
_cell_length_c                   11.411(2)
_cell_angle_alpha                90
_cell_angle_beta                 90
_cell_angle_gamma                90
_cell_volume                     1416.95
loop_
_atom_site_label
_atom_site_type_symbol
_atom_site_fract_x
_atom_site_fract_y
_atom_site_fract_z
La1 La 0.247139(14) 0.86248(4) 0.0000
La2 La 0.080650(14) 0.75247(4) 0.5000
C1 C 0.20591(19) 0.7432(5) 0.2777(3)
C2 C 0.1397(2) 0.8546(5) 0.2298(3)
N1 N 0.3923(3) 0.7048(7) 0.0000
O1 O 0.25785(14) 0.7322(4) 0.2113(2)
O2 O 0.20082(15) 0.6741(4) 0.3801(2)
O3 O 0.14428(14) 0.9270(5) 0.1275(2)
O4 O 0.08688(14) 0.8680(5) 0.2936(2)
O5 O 0.3781(2) 0.8961(6) 0.0000
O6 O 0.33986(17) 0.5793(5) 0.0000
O7 O 0.45459(18) 0.6372(5) 0.0000
O8 O 0.1827(3) 0.5134(8) 0.0000
O9 O 0.0000 0.5000 0.6369(3)
La1G La 0.252861(14) 0.36248(4) 0.5000
La1G_2 La 0.252861(14) 0.36248(4) -0.5000
La2G La 0.419350(14) 1.25247(4) 0.0000
La2G_2 La 0.419350(14) 0.25247(4) 0.0000
La2F La 0.580650(14) 0.74753(4) 0.0000
La2D La -0.080650(14) 0.24753(4) 0.5000
La2_2 La 0.080650(14) 0.75247(4) -0.5000
C1E C 0.20591(19) 0.7432(5) -0.2777(3)
C2E C 0.1397(2) 0.8546(5) -0.2298(3)
O1E O 0.25785(14) 0.7322(4) -0.2113(2)
O2E O 0.20082(15) 0.6741(4) -0.3801(2)
O2G O 0.29918(15) 1.1741(4) -0.1199(2)
O2B O 0.29918(15) 1.1741(4) 0.1199(2)
O2E_2 O 0.20082(15) 0.6741(4) 0.6199(2)
O3E O 0.14428(14) 0.9270(5) -0.1275(2)
O4E O 0.08688(14) 0.8680(5) -0.2936(2)
O4E_2 O 0.08688(14) 0.8680(5) 0.7064(2)
O5G O 0.1219(2) 0.3961(6) 0.5000
O6G O 0.16014(17) 1.0793(5) 0.5000
O7F O -0.04541(18) 0.8628(5) 0.5000
O7G O 0.04541(18) 1.1372(5) 0.5000
O9E O 0.0000 0.5000 0.3631(3)
O10 O 0.4113(3) 0.8417(8) 0.3088(5)
O11 O 0.5058(7) 0.736(2) 0.5000
loop_
_geom_bond_atom_site_label_1
_geom_bond_atom_site_label_2
_geom_bond_site_symmetry_1
_geom_bond_site_symmetry_2
La1 O1 1_555 1_555
La2 O2 1_555 1_555
C1 C2 1_555 1_555
C2 O3 1_555 1_555
N1 O5 1_555 1_555
O1 C1 1_555 1_555
O2 C1 1_555 1_555
O3 La1 1_555 1_555
O4 La2 1_555 1_555
O5 La1 1_555 1_555
O6 La1 1_555 1_555
O7 N1 1_555 1_555
O8 La1 1_555 1_555
O9 La2 1_555 1_555
La1G O2 1_555 1_555
La1G_2 O2E 1_555 1_555
La2G O5 1_555 1_555
La2G_2 O6 1_555 1_555
La2F O7 1_555 1_555
La2D O9 1_555 1_555
La2_2 O2E 1_555 1_555
C1E C2E 1_555 1_555
C2E O3E 1_555 1_555
O1E La1 1_555 1_555
O2E C1E 1_555 1_555
O2G La1 1_555 1_555
O2B La1 1_555 1_555
O2E_2 La2 1_555 1_555
O3E La1 1_555 1_555
O4E La2_2 1_555 1_555
O4E_2 La2 1_555 1_555
O5G La2 1_555 1_555
O6G La2 1_555 1_555
O7F La2 1_555 1_555
O7G La2 1_555 1_555
O9E La2 1_555 1_555
C2 O4 1_555 1_555
N1 O6 1_555 1_555
O7 La2G_2 1_555 1_555
La1G O2E_2 1_555 1_555
La1G O5G 1_555 1_555
La2G O2G 1_555 1_555
La2G O2B 1_555 1_555
La2D O9E 1_555 1_555
C1E O1E 1_555 1_555
C2E O4E 1_555 1_555

#END
