
#######################################################################
#
#                 Cambridge Crystallographic Data Centre
#                                CCDC 
#
#######################################################################
#
# If this CIF has been generated from an entry in the Cambridge 
# Structural Database, then it will include bibliographic, chemical, 
# crystal, experimental, refinement or atomic coordinate data resulting 
# from the CCDC's data processing and validation procedures.
#
#######################################################################

data_MILSIL
_symmetry_cell_setting           monoclinic
_symmetry_space_group_name_H-M   'P 21/c'
_symmetry_Int_Tables_number      14
_space_group_name_Hall           '-P 2ybc'
loop_
_symmetry_equiv_pos_site_id
_symmetry_equiv_pos_as_xyz
1 x,y,z
2 -x,1/2+y,1/2-z
3 -x,-y,-z
4 x,1/2-y,1/2+z
_cell_length_a                   16.674(3)
_cell_length_b                   13.484(3)
_cell_length_c                   30.094(6)
_cell_angle_alpha                90
_cell_angle_beta                 96.87(3)
_cell_angle_gamma                90
_cell_volume                     6717.52
loop_
_atom_site_label
_atom_site_type_symbol
_atom_site_fract_x
_atom_site_fract_y
_atom_site_fract_z
C1 C 1.0364(5) 0.2761(5) 0.1512(3)
C2 C 1.1232(5) 0.3103(7) 0.1662(3)
H1 H 1.1238 0.3837 0.1680
H2 H 1.1576 0.2908 0.1430
C3 C 1.1620(6) 0.2669(8) 0.2131(4)
H3 H 1.2039 0.3140 0.2263
H4 H 1.1194 0.2644 0.2333
C4 C 1.2004(6) 0.1639(8) 0.2121(4)
H5 H 1.2411 0.1647 0.1907
H6 H 1.2289 0.1490 0.2421
C5 C 1.1407(6) 0.0824(7) 0.1990(3)
H7 H 1.1140 0.0944 0.1684
H8 H 1.0987 0.0821 0.2197
C6 C 1.1840(7) -0.0190(7) 0.2009(4)
H9 H 1.2282 -0.0175 0.1817
H10 H 1.2078 -0.0331 0.2320
C7 C 1.1231(7) -0.1012(7) 0.1846(3)
H11 H 1.1027 -0.0900 0.1528
H12 H 1.0765 -0.0988 0.2021
C8 C 1.1640(6) -0.2054(7) 0.1901(3)
H13 H 1.1267 -0.2559 0.1754
H14 H 1.2135 -0.2053 0.1748
C9 C 1.1864(5) -0.2335(6) 0.2390(3)
C10 C 0.8581(4) -0.5458(4) 0.1652(2)
H15 H 0.8845 -0.5409 0.1949
C11 C 0.8020(4) -0.6028(5) 0.1037(2)
H16 H 0.7814 -0.6481 0.0809
C12 C 0.7999(5) -0.5045(5) 0.0992(2)
H17 H 0.7771 -0.4679 0.0738
C13 C 0.8541(4) -0.3664(4) 0.1496(2)
C14 C 0.8027(4) -0.2911(5) 0.1337(2)
H18 H 0.7563 -0.3061 0.1133
C15 C 0.8175(4) -0.1943(5) 0.1471(2)
H19 H 0.7816 -0.1430 0.1359
C16 C 0.8838(4) -0.1726(5) 0.1763(2)
C17 C 0.9382(5) -0.2460(5) 0.1913(3)
H20 H 0.9857 -0.2307 0.2107
C18 C 0.9217(5) -0.3429(5) 0.1771(3)
H21 H 0.9588 -0.3940 0.1871
C19 C 0.9351(6) -0.0454(6) 0.2328(4)
H22 H 0.9597 -0.0875 0.2558
C20 C 0.9308(6) 0.0546(6) 0.2339(3)
H23 H 0.9511 0.0946 0.2588
C21 C 0.8718(4) 0.0101(4) 0.1716(2)
H24 H 0.8410 0.0108 0.1429
N1 N 0.8378(3) -0.6302(4) 0.14516(17)
N2 N 0.8374(3) -0.4666(3) 0.13878(17)
N3 N 0.8974(4) -0.0735(4) 0.1928(2)
N4 N 0.8931(4) 0.0904(4) 0.1941(2)
Ni1 Ni 0.86797(5) 0.23194(6) 0.17158(3)
O1 O 1.0192(3) 0.2587(5) 0.1102(2)
O2 O 0.9897(3) 0.2697(4) 0.18041(17)
O3 O 1.1337(3) -0.2200(3) 0.26414(15)
O4 O 1.2556(3) -0.2698(4) 0.25070(18)
O5 O 0.7464(3) 0.1894(3) 0.16515(16)
H25 H 0.7276 0.1722 0.1891
H26 H 0.7326 0.1455 0.1455
O6 O 0.8788(3) 0.1801(4) 0.10813(17)
H27 H 0.9221 0.1893 0.0964
H28 H 0.8426 0.1617 0.0875
N1_2 N 0.8378(3) 0.3698(4) 0.14516(17)
Ni1_2 Ni 0.86797(5) -0.76806(6) 0.17158(3)
Ni1A Ni 1.13203(5) -0.26806(6) 0.32842(3)
O3A O 0.8663(3) 0.2800(3) 0.23586(15)
C22 C 0.5835(3) 0.7447(4) 0.41305(14)
C23 C 0.5947(4) 0.8299(4) 0.38133(16)
H29 H 0.5492 0.8768 0.3821
H30 H 0.6449 0.8657 0.3926
C24 C 0.5995(4) 0.8010(4) 0.33316(17)
H31 H 0.5466 0.7734 0.3206
H32 H 0.6401 0.7475 0.3327
C25 C 0.6214(4) 0.8845(4) 0.30310(16)
H33 H 0.6777 0.9059 0.3126
H34 H 0.5854 0.9418 0.3062
C26 C 0.6134(4) 0.8518(4) 0.25416(16)
H35 H 0.5580 0.8262 0.2457
H36 H 0.6515 0.7965 0.2513
C27 C 0.6299(4) 0.9338(4) 0.22111(16)
H37 H 0.5956 0.9920 0.2257
H38 H 0.6871 0.9547 0.2271
C28 C 0.6124(3) 0.8988(4) 0.17245(14)
H39 H 0.6538 0.8495 0.1664
H40 H 0.5592 0.8654 0.1683
C29 C 0.6121(3) 0.9825(4) 0.13874(14)
H41 H 0.5765 1.0362 0.1473
H42 H 0.6674 1.0098 0.1399
C30 C 0.5837(3) 0.9509(3) 0.09112(13)
C31 C 0.4158(3) 0.8197(3) 0.02939(14)
C32 C 0.3852(3) 0.7151(4) 0.0213(2)
H43 H 0.4232 0.6689 0.0385
H44 H 0.3850 0.6992 -0.0108
C33 C 0.3001(7) 0.6977(9) 0.0345(7)
H45 H 0.2948 0.7342 0.0625
H46 H 0.2600 0.7254 0.0108
C34 C 0.2806(8) 0.5894(8) 0.0412(4)
H47 H 0.3258 0.5486 0.0328
H48 H 0.2319 0.5720 0.0205
C35 C 0.2656(14) 0.562(2) 0.0888(7)
H49 H 0.3057 0.5946 0.1110
H50 H 0.2696 0.4892 0.0933
C36 C 0.1790(13) 0.599(2) 0.0940(7)
H51 H 0.1540 0.5550 0.1149
H52 H 0.1812 0.6669 0.1063
C37 C 0.1293(15) 0.597(3) 0.0480(8)
H53 H 0.1485 0.5431 0.0296
H54 H 0.1355 0.6608 0.0325
C38 C 0.0392(14) 0.580(2) 0.0540(11)
H55 H 0.0207 0.6333 0.0731
H56 H 0.0060 0.5832 0.0245
C39 C 0.028(2) 0.4787(16) 0.0758(11)
C40 C 0.4175(3) 1.0154(4) 0.18062(14)
H57 H 0.4299 1.0842 0.1825
C41 C 0.3912(4) 0.8686(4) 0.15469(16)
H58 H 0.3819 0.8145 0.1346
C42 C 0.3894(4) 0.8648(4) 0.19983(16)
H59 H 0.3782 0.8081 0.2168
C43 C 0.4095(3) 0.9886(4) 0.26189(14)
C44 C 0.3732(4) 0.9295(4) 0.29207(16)
H60 H 0.3455 0.8705 0.2822
C45 C 0.3780(4) 0.9578(4) 0.33655(15)
H61 H 0.3536 0.9181 0.3573
C46 C 0.4180(3) 1.0428(4) 0.35073(14)
C47 C 0.4536(4) 1.1014(4) 0.32163(16)
H62 H 0.4808 1.1605 0.3319
C48 C 0.4496(4) 1.0734(4) 0.27625(16)
H63 H 0.4747 1.1131 0.2558
C49 C 0.4167(3) 1.1683(4) 0.41054(14)
H64 H 0.4126 1.2242 0.3912
C50 C 0.4237(3) 1.0780(4) 0.46907(16)
H65 H 0.4256 1.0589 0.4996
C51 C 0.4256(4) 1.0144(4) 0.43459(16)
H66 H 0.4291 0.9442 0.4360
C52 C 0.2219(3) 0.9679(4) 0.06314(17)
H67 H 0.2333 0.9034 0.0529
C53 C 0.2352(4) 1.1152(5) 0.0872(2)
H68 H 0.2595 1.1755 0.0982
C54 C 0.1553(4) 1.0995(5) 0.0796(2)
H69 H 0.1136 1.1455 0.0834
C55 C 0.0720(3) 0.9504(4) 0.05403(19)
C56 C 0.0045(3) 0.9787(5) 0.0731(2)
H70 H 0.0078 1.0321 0.0939
C57 C -0.0672(3) 0.9304(5) 0.0623(2)
H71 H -0.1137 0.9512 0.0752
C58 C -0.0065(3) 0.8253(5) 0.0132(2)
H72 H -0.0102 0.7715 -0.0074
C59 C -0.0726(3) 0.8523(4) 0.03317(19)
C60 C 0.0664(4) 0.8760(5) 0.0227(2)
H73 H 0.1116 0.8594 0.0077
C61 C -0.2219(3) 0.8409(4) 0.02716(17)
H74 H -0.2302 0.9057 0.0382
C62 C -0.2429(3) 0.6949(4) 0.0000(2)
H75 H -0.2698 0.6366 -0.0115
C63 C -0.1629(3) 0.7095(5) 0.0048(2)
H76 H -0.1233 0.6638 -0.0027
N5 N 0.4089(2) 0.9644(3) 0.14322(12)
N6 N 0.4065(3) 0.9577(3) 0.21608(12)
N7 N 0.4214(3) 1.0739(3) 0.39637(12)
N8 N 0.4185(2) 1.1741(3) 0.45397(12)
N9 N 0.2770(2) 1.0324(3) 0.07694(13)
N10 N 0.1463(2) 1.0026(3) 0.06498(15)
N11 N -0.1487(3) 0.8026(3) 0.02249(16)
N12 N -0.2800(2) 0.7784(3) 0.01473(13)
Ni2 Ni 0.40110(3) 1.01796(5) 0.078068(17)
Ni3 Ni 0.5000 1.0000 0.0000
Ni4 Ni 0.40326(3) 1.19317(4) -0.012345(17)
O7 O 0.5797(2) 0.6588(3) 0.39748(10)
O8 O 0.5790(2) 0.7696(3) 0.45302(10)
O9 O 0.53002(19) 1.0050(2) 0.06894(9)
O10 O 0.6150(2) 0.8753(2) 0.07620(10)
O11 O 0.39445(19) 1.0570(2) 0.01363(9)
O12 O 0.47002(18) 0.8507(2) 0.00623(10)
O13 O 0.3852(2) 0.8707(2) 0.05822(10)
O14 O 0.0253(10) 0.4995(10) 0.1118(8)
O15 O 0.0280(10) 0.4000(10) 0.0568(5)
H77 H -0.0008 0.3667 0.0688
H78 H 0.355(3) 1.030(4) -0.0008(17)
C22B C -0.5835(3) 1.2553(4) -0.41305(14)
C23B C -0.5947(4) 1.1701(4) -0.38133(16)
H29B H -0.5492 1.1232 -0.3821
H30B H -0.6449 1.1343 -0.3926
C24B C -0.5995(4) 1.1990(4) -0.33316(17)
H31B H -0.5466 1.2266 -0.3206
H32B H -0.6401 1.2525 -0.3327
C25B C -0.6214(4) 1.1155(4) -0.30310(16)
H33B H -0.6777 1.0941 -0.3126
H34B H -0.5854 1.0582 -0.3062
C26B C -0.6134(4) 1.1482(4) -0.25416(16)
H35B H -0.5580 1.1738 -0.2457
H36B H -0.6515 1.2035 -0.2513
C27B C -0.6299(4) 1.0662(4) -0.22111(16)
H37B H -0.5956 1.0080 -0.2257
H38B H -0.6871 1.0453 -0.2271
C28B C -0.6124(3) 1.1012(4) -0.17245(14)
H39B H -0.6538 1.1505 -0.1664
H40B H -0.5592 1.1346 -0.1683
C29B C -0.6121(3) 1.0175(4) -0.13874(14)
H41B H -0.5765 0.9638 -0.1473
H42B H -0.6674 0.9902 -0.1399
C30B C -0.5837(3) 1.0491(3) -0.09112(13)
C31B C -0.4158(3) 1.1803(3) -0.02939(14)
C32B C -0.3852(3) 1.2849(4) -0.0213(2)
H43B H -0.4232 1.3311 -0.0385
H44B H -0.3850 1.3008 0.0108
C33B C -0.3001(7) 1.3023(9) -0.0345(7)
H45B H -0.2948 1.2658 -0.0625
H46B H -0.2600 1.2746 -0.0108
C34B C -0.2806(8) 1.4106(8) -0.0412(4)
H47B H -0.3258 1.4514 -0.0328
H48B H -0.2319 1.4280 -0.0205
C35B C -0.2656(14) 1.438(2) -0.0888(7)
H49B H -0.3057 1.4054 -0.1110
H50B H -0.2696 1.5108 -0.0933
C36B C -0.1790(13) 1.401(2) -0.0940(7)
H51B H -0.1540 1.4450 -0.1149
H52B H -0.1812 1.3331 -0.1063
C37B C -0.1293(15) 1.403(3) -0.0480(8)
H53B H -0.1485 1.4569 -0.0296
H54B H -0.1355 1.3392 -0.0325
C38B C -0.0392(14) 1.420(2) -0.0540(11)
H55B H -0.0207 1.3667 -0.0731
H56B H -0.0060 1.4168 -0.0245
C39B C -0.028(2) 1.5213(16) -0.0758(11)
C40B C -0.4175(3) 0.9846(4) -0.18062(14)
H57B H -0.4299 0.9158 -0.1825
C41B C -0.3912(4) 1.1314(4) -0.15469(16)
H58B H -0.3819 1.1855 -0.1346
C42B C -0.3894(4) 1.1352(4) -0.19983(16)
H59B H -0.3782 1.1919 -0.2168
C43B C -0.4095(3) 1.0114(4) -0.26189(14)
C44B C -0.3732(4) 1.0705(4) -0.29207(16)
H60B H -0.3455 1.1295 -0.2822
C45B C -0.3780(4) 1.0422(4) -0.33655(15)
H61B H -0.3536 1.0819 -0.3573
C46B C -0.4180(3) 0.9572(4) -0.35073(14)
C47B C -0.4536(4) 0.8986(4) -0.32163(16)
H62B H -0.4808 0.8395 -0.3319
C48B C -0.4496(4) 0.9266(4) -0.27625(16)
H63B H -0.4747 0.8869 -0.2558
C49B C -0.4167(3) 0.8317(4) -0.41054(14)
H64B H -0.4126 0.7758 -0.3912
C50B C -0.4237(3) 0.9220(4) -0.46907(16)
H65B H -0.4256 0.9411 -0.4996
C51B C -0.4256(4) 0.9856(4) -0.43459(16)
H66B H -0.4291 1.0558 -0.4360
C52B C -0.2219(3) 1.0321(4) -0.06314(17)
H67B H -0.2333 1.0966 -0.0529
C53B C -0.2352(4) 0.8848(5) -0.0872(2)
H68B H -0.2595 0.8245 -0.0982
C54B C -0.1553(4) 0.9005(5) -0.0796(2)
H69B H -0.1136 0.8545 -0.0834
C55B C -0.0720(3) 1.0496(4) -0.05403(19)
C56B C -0.0045(3) 1.0213(5) -0.0731(2)
H70B H -0.0078 0.9679 -0.0939
C57B C 0.0672(3) 1.0696(5) -0.0623(2)
H71B H 0.1137 1.0488 -0.0752
C58B C 0.0065(3) 1.1747(5) -0.0132(2)
H72B H 0.0102 1.2285 0.0074
C59B C 0.0726(3) 1.1477(4) -0.03317(19)
C60B C -0.0664(4) 1.1240(5) -0.0227(2)
H73B H -0.1116 1.1406 -0.0077
C61B C 0.2219(3) 1.1591(4) -0.02716(17)
H74B H 0.2302 1.0943 -0.0382
C62B C 0.2429(3) 1.3051(4) 0.0000(2)
H75B H 0.2698 1.3634 0.0115
C63B C 0.1629(3) 1.2905(5) -0.0048(2)
H76B H 0.1233 1.3362 0.0027
N5B N -0.4089(2) 1.0356(3) -0.14322(12)
N6B N -0.4065(3) 1.0423(3) -0.21608(12)
N7B N -0.4214(3) 0.9261(3) -0.39637(12)
N8B N -0.4185(2) 0.8259(3) -0.45397(12)
N9B N -0.2770(2) 0.9676(3) -0.07694(13)
N10B N -0.1463(2) 0.9974(3) -0.06498(15)
N11B N 0.1487(3) 1.1974(3) -0.02249(16)
N12B N 0.2800(2) 1.2216(3) -0.01473(13)
Ni2B Ni -0.40110(3) 0.98204(5) -0.078068(17)
Ni4B Ni -0.40326(3) 0.80683(4) 0.012345(17)
O7B O -0.5797(2) 1.3412(3) -0.39748(10)
O8B O -0.5790(2) 1.2304(3) -0.45302(10)
O9B O -0.53002(19) 0.9950(2) -0.06894(9)
O10B O -0.6150(2) 1.1247(2) -0.07620(10)
O11B O -0.39445(19) 0.9430(2) -0.01363(9)
O12B O -0.47002(18) 1.1493(2) -0.00623(10)
O13B O -0.3852(2) 1.1293(2) -0.05822(10)
O14B O -0.0253(10) 1.5005(10) -0.1118(8)
O15B O -0.0280(10) 1.6000(10) -0.0568(5)
H77B H 0.0008 1.6333 -0.0688
H78B H -0.355(3) 0.970(4) 0.0008(17)
N8A N -0.4185(2) 0.6741(3) 0.04603(12)
N8C N 0.4185(2) 1.3259(3) -0.04603(12)
Ni2A Ni 0.59890(3) 0.51796(5) 0.421932(17)
Ni2C Ni -0.59890(3) 1.48204(5) -0.421932(17)
Ni3_2 Ni -0.5000 1.0000 0.0000
Ni4_2 Ni -0.59674(3) 1.19317(4) -0.012345(17)
Ni4A Ni -0.40326(3) 0.69317(4) -0.487655(17)
Ni4A_2 Ni 0.59674(3) 0.69317(4) 0.512345(17)
Ni4B_2 Ni 0.59674(3) 0.80683(4) 0.012345(17)
Ni4C Ni -0.59674(3) 1.30683(4) -0.512345(17)
Ni4C_2 Ni 0.40326(3) 1.30683(4) 0.487655(17)
O7A O 0.4203(2) 1.1588(3) 0.10252(10)
O7C O -0.4203(2) 0.8412(3) -0.10252(10)
O8A O 0.4210(2) 1.2696(3) 0.04698(10)
O8C O -0.4210(2) 0.7304(3) -0.04698(10)
O9B_2 O 0.46998(19) 0.9950(2) -0.06894(9)
O10_2 O -0.3850(2) 0.8753(2) 0.07620(10)
O10B_2 O 0.3850(2) 1.1247(2) -0.07620(10)
O11B_2 O 0.60555(19) 0.9430(2) -0.01363(9)
O12_2 O -0.52998(18) 0.8507(2) 0.00623(10)
O12B_2 O 0.52998(18) 1.1493(2) -0.00623(10)
Cl1 Cl 0.74257(10) 0.09204(14) 0.04648(6)
O16 O 0.6210(3) 0.2278(4) 0.09414(16)
H79 H 0.6010 0.2554 0.0699
H80 H 0.6080 0.1668 0.0926
O17 O 0.3466(12) 0.6355(11) 0.1949(8)
H81 H 0.3592 0.6314 0.1685
H82 H 0.2971 0.6365 0.1981
O18 O 0.5880(17) 0.178(3) 0.2046(18)
H83 H 0.6177 0.1743 0.2296
H84 H 0.6188 0.1797 0.1841
C64? C 0.3568(10) 0.6608(10) 0.0596(4)
H85? H 0.3333 0.7208 0.0719
H86? H 0.4162 0.6535 0.0652
loop_
_geom_bond_atom_site_label_1
_geom_bond_atom_site_label_2
_geom_bond_site_symmetry_1
_geom_bond_site_symmetry_2
C1 C2 1_555 1_555
C2 H1 1_555 1_555
H2 C2 1_555 1_555
C3 C2 1_555 1_555
H3 C3 1_555 1_555
H4 C3 1_555 1_555
C4 C3 1_555 1_555
H5 C4 1_555 1_555
H6 C4 1_555 1_555
C5 C4 1_555 1_555
H7 C5 1_555 1_555
H8 C5 1_555 1_555
C6 C5 1_555 1_555
H9 C6 1_555 1_555
H10 C6 1_555 1_555
C7 C6 1_555 1_555
H11 C7 1_555 1_555
H12 C7 1_555 1_555
C8 C7 1_555 1_555
H13 C8 1_555 1_555
H14 C8 1_555 1_555
C9 C8 1_555 1_555
C10 H15 1_555 1_555
C11 H16 1_555 1_555
C12 C11 1_555 1_555
H17 C12 1_555 1_555
C13 C14 1_555 1_555
C14 H18 1_555 1_555
C15 C14 1_555 1_555
H19 C15 1_555 1_555
C16 C15 1_555 1_555
C17 C16 1_555 1_555
H20 C17 1_555 1_555
C18 C13 1_555 1_555
H21 C18 1_555 1_555
C19 H22 1_555 1_555
C20 C19 1_555 1_555
H23 C20 1_555 1_555
C21 H24 1_555 1_555
N1 C10 1_555 1_555
N2 C10 1_555 1_555
N3 C16 1_555 1_555
N4 C20 1_555 1_555
Ni1 N4 1_555 1_555
O1 C1 1_555 1_555
O2 C1 1_555 1_555
O3 C9 1_555 1_555
O4 C9 1_555 1_555
O5 Ni1 1_555 1_555
H25 O5 1_555 1_555
H26 O5 1_555 1_555
O6 Ni1 1_555 1_555
H27 O6 1_555 1_555
H28 O6 1_555 1_555
C22 C23 1_555 1_555
C23 H29 1_555 1_555
H30 C23 1_555 1_555
C24 C23 1_555 1_555
H31 C24 1_555 1_555
H32 C24 1_555 1_555
C25 C24 1_555 1_555
H33 C25 1_555 1_555
H34 C25 1_555 1_555
C26 C25 1_555 1_555
H35 C26 1_555 1_555
H36 C26 1_555 1_555
C27 C26 1_555 1_555
H37 C27 1_555 1_555
H38 C27 1_555 1_555
C28 C27 1_555 1_555
H39 C28 1_555 1_555
H40 C28 1_555 1_555
C29 C28 1_555 1_555
H41 C29 1_555 1_555
H42 C29 1_555 1_555
C30 C29 1_555 1_555
C31 C32 1_555 1_555
C32 H43 1_555 1_555
H44 C32 1_555 1_555
C33 C32 1_555 1_555
H45 C33 1_555 1_555
H46 C33 1_555 1_555
C34 C33 1_555 1_555
H47 C34 1_555 1_555
H48 C34 1_555 1_555
C35 C34 1_555 1_555
H49 C35 1_555 1_555
H50 C35 1_555 1_555
C36 C35 1_555 1_555
H51 C36 1_555 1_555
H52 C36 1_555 1_555
C37 C36 1_555 1_555
H53 C37 1_555 1_555
H54 C37 1_555 1_555
C38 C37 1_555 1_555
H55 C38 1_555 1_555
H56 C38 1_555 1_555
C39 C38 1_555 1_555
C40 H57 1_555 1_555
C41 H58 1_555 1_555
C42 C41 1_555 1_555
H59 C42 1_555 1_555
C43 C44 1_555 1_555
C44 H60 1_555 1_555
C45 C44 1_555 1_555
H61 C45 1_555 1_555
C46 C45 1_555 1_555
C47 C46 1_555 1_555
H62 C47 1_555 1_555
C48 C43 1_555 1_555
H63 C48 1_555 1_555
C49 H64 1_555 1_555
C50 H65 1_555 1_555
C51 C50 1_555 1_555
H66 C51 1_555 1_555
C52 H67 1_555 1_555
C53 H68 1_555 1_555
C54 C53 1_555 1_555
H69 C54 1_555 1_555
C55 C56 1_555 1_555
C56 H70 1_555 1_555
C57 C56 1_555 1_555
H71 C57 1_555 1_555
C58 H72 1_555 1_555
C59 C57 1_555 1_555
C60 C55 1_555 1_555
H73 C60 1_555 1_555
C61 H74 1_555 1_555
C62 H75 1_555 1_555
C63 C62 1_555 1_555
H76 C63 1_555 1_555
N5 C40 1_555 1_555
N6 C40 1_555 1_555
N7 C46 1_555 1_555
N8 C49 1_555 1_555
N9 C52 1_555 1_555
N10 C52 1_555 1_555
N11 C59 1_555 1_555
N12 C61 1_555 1_555
Ni2 N5 1_555 1_555
Ni3 O9 1_555 1_555
Ni4 O11 1_555 1_555
O7 C22 1_555 1_555
O8 C22 1_555 1_555
O9 C30 1_555 1_555
O10 C30 1_555 1_555
O11 Ni2 1_555 1_555
O12 C31 1_555 1_555
O13 C31 1_555 1_555
O14 C39 1_555 1_555
O15 C39 1_555 1_555
H77 O15 1_555 1_555
H78 O11 1_555 1_555
O16 H79 1_555 1_555
H80 O16 1_555 1_555
O17 H81 1_555 1_555
H82 O17 1_555 1_555
O18 H83 1_555 1_555
H84 O18 1_555 1_555
N1_2 Ni1 1_555 1_555
Ni1_2 N1 1_555 1_555
Ni1A O3 1_555 1_555
O3A Ni1 1_555 1_555
C22B C23B 1_555 1_555
C23B H29B 1_555 1_555
H30B C23B 1_555 1_555
C24B C23B 1_555 1_555
H31B C24B 1_555 1_555
H32B C24B 1_555 1_555
C25B C24B 1_555 1_555
H33B C25B 1_555 1_555
H34B C25B 1_555 1_555
C26B C25B 1_555 1_555
H35B C26B 1_555 1_555
H36B C26B 1_555 1_555
C27B C26B 1_555 1_555
H37B C27B 1_555 1_555
H38B C27B 1_555 1_555
C28B C27B 1_555 1_555
H39B C28B 1_555 1_555
H40B C28B 1_555 1_555
C29B C28B 1_555 1_555
H41B C29B 1_555 1_555
H42B C29B 1_555 1_555
C30B C29B 1_555 1_555
C31B C32B 1_555 1_555
C32B H43B 1_555 1_555
H44B C32B 1_555 1_555
C33B C32B 1_555 1_555
H45B C33B 1_555 1_555
H46B C33B 1_555 1_555
C34B C33B 1_555 1_555
H47B C34B 1_555 1_555
H48B C34B 1_555 1_555
C35B C34B 1_555 1_555
H49B C35B 1_555 1_555
H50B C35B 1_555 1_555
C36B C35B 1_555 1_555
H51B C36B 1_555 1_555
H52B C36B 1_555 1_555
C37B C36B 1_555 1_555
H53B C37B 1_555 1_555
H54B C37B 1_555 1_555
C38B C37B 1_555 1_555
H55B C38B 1_555 1_555
H56B C38B 1_555 1_555
C39B C38B 1_555 1_555
C40B H57B 1_555 1_555
C41B H58B 1_555 1_555
C42B C41B 1_555 1_555
H59B C42B 1_555 1_555
C43B C44B 1_555 1_555
C44B H60B 1_555 1_555
C45B C44B 1_555 1_555
H61B C45B 1_555 1_555
C46B C45B 1_555 1_555
C47B C46B 1_555 1_555
H62B C47B 1_555 1_555
C48B C43B 1_555 1_555
H63B C48B 1_555 1_555
C49B H64B 1_555 1_555
C50B H65B 1_555 1_555
C51B C50B 1_555 1_555
H66B C51B 1_555 1_555
C52B H67B 1_555 1_555
C53B H68B 1_555 1_555
C54B C53B 1_555 1_555
H69B C54B 1_555 1_555
C55B C56B 1_555 1_555
C56B H70B 1_555 1_555
C57B C56B 1_555 1_555
H71B C57B 1_555 1_555
C58B H72B 1_555 1_555
C59B C57B 1_555 1_555
C60B C55B 1_555 1_555
H73B C60B 1_555 1_555
C61B H74B 1_555 1_555
C62B H75B 1_555 1_555
C63B C62B 1_555 1_555
H76B C63B 1_555 1_555
N5B C40B 1_555 1_555
N6B C40B 1_555 1_555
N7B C46B 1_555 1_555
N8B C49B 1_555 1_555
N9B C52B 1_555 1_555
N10B C52B 1_555 1_555
N11B C59B 1_555 1_555
N12B Ni4 1_555 1_555
Ni2B N5B 1_555 1_555
Ni4B N12 1_555 1_555
O7B C22B 1_555 1_555
O8B C22B 1_555 1_555
O9B C30B 1_555 1_555
O10B C30B 1_555 1_555
O11B Ni2B 1_555 1_555
O12B C31B 1_555 1_555
O13B C31B 1_555 1_555
O14B C39B 1_555 1_555
O15B C39B 1_555 1_555
H77B O15B 1_555 1_555
H78B O11B 1_555 1_555
N8A Ni4B 1_555 1_555
N8C Ni4 1_555 1_555
Ni2A O7 1_555 1_555
Ni2C O7B 1_555 1_555
Ni3_2 O9B 1_555 1_555
Ni4_2 O10B 1_555 1_555
Ni4A N8B 1_555 1_555
Ni4A_2 O8 1_555 1_555
Ni4B_2 O10 1_555 1_555
Ni4C O8B 1_555 1_555
Ni4C_2 N8 1_555 1_555
O7A Ni2 1_555 1_555
O7C Ni2B 1_555 1_555
O8A Ni4 1_555 1_555
O8C Ni4B 1_555 1_555
O9B_2 Ni3 1_555 1_555
O10_2 Ni4B 1_555 1_555
O10B_2 Ni4 1_555 1_555
O11B_2 Ni3 1_555 1_555
O12_2 Ni4B 1_555 1_555
O12B_2 Ni3 1_555 1_555
C11 N1 1_555 1_555
C12 N2 1_555 1_555
C13 N2 1_555 1_555
C17 C18 1_555 1_555
C19 N3 1_555 1_555
C21 N3 1_555 1_555
C21 N4 1_555 1_555
Ni1 O2 1_555 1_555
C41 N5 1_555 1_555
C42 N6 1_555 1_555
C43 N6 1_555 1_555
C47 C48 1_555 1_555
C49 N7 1_555 1_555
C50 N8 1_555 1_555
C51 N7 1_555 1_555
C53 N9 1_555 1_555
C54 N10 1_555 1_555
C55 N10 1_555 1_555
C58 C59 1_555 1_555
C58 C60 1_555 1_555
C61 N11 1_555 1_555
C62 N12 1_555 1_555
C63 N11 1_555 1_555
N9 Ni2 1_555 1_555
Ni2 O9 1_555 1_555
Ni2 O13 1_555 1_555
Ni3 O11 1_555 1_555
Ni3 O12 1_555 1_555
Ni4 O12B_2 1_555 1_555
O12 Ni4B_2 1_555 1_555
C41B N5B 1_555 1_555
C42B N6B 1_555 1_555
C43B N6B 1_555 1_555
C47B C48B 1_555 1_555
C49B N7B 1_555 1_555
C50B N8B 1_555 1_555
C51B N7B 1_555 1_555
C53B N9B 1_555 1_555
C54B N10B 1_555 1_555
C55B N10B 1_555 1_555
C58B C59B 1_555 1_555
C58B C60B 1_555 1_555
C61B N11B 1_555 1_555
C61B N12B 1_555 1_555
C62B N12B 1_555 1_555
C63B N11B 1_555 1_555
N9B Ni2B 1_555 1_555
Ni2B O9B 1_555 1_555
Ni2B O13B 1_555 1_555
Ni4B O11B 1_555 1_555
O11B Ni3_2 1_555 1_555
O12B Ni3_2 1_555 1_555
O12B Ni4_2 1_555 1_555
Ni3_2 O12_2 1_555 1_555
Ni4B_2 O11B_2 1_555 1_555

#END
