
#######################################################################
#
#                 Cambridge Crystallographic Data Centre
#                                CCDC 
#
#######################################################################
#
# If this CIF has been generated from an entry in the Cambridge 
# Structural Database, then it will include bibliographic, chemical, 
# crystal, experimental, refinement or atomic coordinate data resulting 
# from the CCDC's data processing and validation procedures.
#
#######################################################################

data_MINVOU
_symmetry_cell_setting           orthorhombic
_symmetry_space_group_name_H-M   'P n m a'
_symmetry_Int_Tables_number      62
_space_group_name_Hall           '-P 2ac 2n'
loop_
_symmetry_equiv_pos_site_id
_symmetry_equiv_pos_as_xyz
1 x,y,z
2 1/2-x,-y,1/2+z
3 1/2+x,1/2-y,1/2-z
4 -x,1/2+y,-z
5 -x,-y,-z
6 1/2+x,y,1/2-z
7 1/2-x,1/2+y,1/2+z
8 x,1/2-y,z
_cell_length_a                   17.340(1)
_cell_length_b                   6.822(1)
_cell_length_c                   12.178(1)
_cell_angle_alpha                90
_cell_angle_beta                 90
_cell_angle_gamma                90
_cell_volume                     1440.58
loop_
_atom_site_label
_atom_site_type_symbol
_atom_site_fract_x
_atom_site_fract_y
_atom_site_fract_z
C8 C 0.133(4) -0.051(2) -0.4653(4)
C10 C 0.138(2) 0.134(3) -0.527(2)
C11 C 0.034(2) 0.250 -0.650(3)
C12 C 0.032(2) 0.043(4) -0.631(2)
C13 C 0.101(1) -0.013(6) -0.595(2)
C14 C 0.046(3) -0.190(1) -0.575(3)
C10G C 0.138(2) 0.366(3) -0.527(2)
C12G C 0.032(2) 0.457(4) -0.631(2)
C14G C 0.046(3) -0.310(1) -0.575(3)
C8G C 0.133(4) 0.551(2) -0.4653(4)
C13G C 0.101(1) 0.513(6) -0.595(2)
C13G_2 C 0.101(1) -0.487(6) -0.595(2)
C9 C 0.144(3) -0.25 0.4513(3)
Cr1 Cr 0.000 0.000 0.0000
O1 O 0.002(2) -0.250 -0.078(1)
O2 O 0.089(1) -0.087(2) 0.089(1)
O3 O 0.427(1) -0.090(2) 0.388(1)
C1 C 0.392(2) -0.250 0.357(3)
C2 C 0.123(2) -0.250 0.117(4)
C3 C 0.329(2) -0.250 0.287(3)
C4 C 0.191(2) -0.250 0.180(4)
C5 C 0.229(1) -0.078(2) 0.198(2)
C6 C 0.295(1) -0.080(2) 0.264(2)
O3G O 0.427(1) -0.410(2) 0.388(1)
O2G O 0.089(1) -0.413(2) 0.089(1)
C6G C 0.295(1) -0.420(2) 0.264(2)
C5G C 0.229(1) -0.422(2) 0.198(2)
O1C O -0.002(2) 0.250 0.078(1)
O2D O -0.089(1) 0.087(2) -0.089(1)
O3A O 0.073(1) 0.090(2) -0.112(1)
O3E O -0.073(1) -0.090(2) 0.112(1)
Cr1A Cr 0.500 0.000 0.5000
Cr1B Cr 0.500 -0.500 0.5000
Cr1C Cr 0.000 -0.500 0.0000
C7? C 0.032(2) -0.25 0.309(3)
loop_
_geom_bond_atom_site_label_1
_geom_bond_atom_site_label_2
_geom_bond_site_symmetry_1
_geom_bond_site_symmetry_2
Cr1 O1 1_555 1_555
O1 Cr1C 1_555 1_555
O2 Cr1 1_555 1_555
O3 C1 1_555 1_555
C1 C3 1_555 1_555
C2 O2 1_555 1_555
C3 C6 1_555 1_555
C4 C2 1_555 1_555
C5 C4 1_555 1_555
C6 C5 1_555 1_555
C8 C10 1_555 1_555
C10 C13 1_555 1_555
C11 C12 1_555 1_555
C12 C13 1_555 1_555
C13 C14 1_555 1_555
C14 C14G 1_555 1_555
O3G C1 1_555 1_555
O2G C2 1_555 1_555
C6G C3 1_555 1_555
C5G C4 1_555 1_555
C10G C10 1_555 1_555
C12G C11 1_555 1_555
C14G C13G_2 1_555 1_555
O1C Cr1 1_555 1_555
O2D Cr1 1_555 1_555
O3A Cr1 1_555 1_555
O3E Cr1 1_555 1_555
Cr1A O3 1_555 1_555
Cr1B O3G 1_555 1_555
Cr1C O2G 1_555 1_555
C8G C10G 1_555 1_555
C13G C10G 1_555 1_555
C6G C5G 1_555 1_555
C12G C13G 1_555 1_555

#END
