
#######################################################################
#
#                 Cambridge Crystallographic Data Centre
#                                CCDC 
#
#######################################################################
#
# If this CIF has been generated from an entry in the Cambridge 
# Structural Database, then it will include bibliographic, chemical, 
# crystal, experimental, refinement or atomic coordinate data resulting 
# from the CCDC's data processing and validation procedures.
#
#######################################################################

data_MIQLII
_symmetry_cell_setting           monoclinic
_symmetry_space_group_name_H-M   'P 21/n'
_symmetry_Int_Tables_number      14
_space_group_name_Hall           '-P 2yn'
loop_
_symmetry_equiv_pos_site_id
_symmetry_equiv_pos_as_xyz
1 x,y,z
2 1/2-x,1/2+y,1/2-z
3 -x,-y,-z
4 1/2+x,1/2-y,1/2+z
_cell_length_a                   10.2496(6)
_cell_length_b                   13.4583(7)
_cell_length_c                   16.2422(9)
_cell_angle_alpha                90
_cell_angle_beta                 95.7200(10)
_cell_angle_gamma                90
_cell_volume                     2229.33
loop_
_atom_site_label
_atom_site_type_symbol
_atom_site_fract_x
_atom_site_fract_y
_atom_site_fract_z
Zn1 Zn 0.124112(14) 0.531525(11) 0.455076(8)
Zn2 Zn -0.021671(15) 0.706084(12) 0.563998(10)
Br1 Br -0.02919(4) 0.855210(16) 0.491941(17)
C1 C 0.38127(13) 0.68391(10) 0.64135(8)
C2 C 0.38463(13) 0.75343(11) 0.70511(8)
H1 H 0.3065 0.7782 0.7214
C3 C 0.50282(13) 0.78611(10) 0.74461(8)
C4 C 0.61985(13) 0.74911(11) 0.71999(8)
H2 H 0.6996 0.7712 0.7459
C5 C 0.61738(12) 0.67906(10) 0.65662(8)
C6 C 0.49846(13) 0.64622(10) 0.61837(8)
H3 H 0.4970 0.5985 0.5769
C7 C 0.25295(13) 0.65277(11) 0.59696(8)
C8 C 0.50141(13) 0.85991(11) 0.81453(8)
C9 C 0.74264(13) 0.63949(11) 0.62785(8)
O1 O 0.25785(9) 0.59663(8) 0.53491(6)
O2 O 0.15135(10) 0.68432(9) 0.62476(7)
O3 O 0.39304(10) 0.88872(9) 0.83277(6)
O4 O 0.61188(9) 0.88770(8) 0.85001(6)
O5 O 0.84322(10) 0.69311(9) 0.64190(7)
O6 O 0.73561(9) 0.55792(8) 0.59133(6)
O7 O -0.04954(8) 0.59003(7) 0.49313(5)
Zn1C Zn 0.624112(14) 0.968475(11) 0.955076(8)
Zn1B Zn 0.875888(14) 0.468475(11) 0.544924(8)
Zn1B_2 Zn -0.124112(14) 0.468475(11) 0.544924(8)
Zn2_2 Zn 0.978329(15) 0.706084(12) 0.563998(10)
O4C O 0.11188(9) 0.61230(8) 0.35001(6)
O5_2 O -0.15678(10) 0.69311(9) 0.64190(7)
O6B O 0.26439(9) 0.44208(8) 0.40867(6)
O7B O 0.04954(8) 0.40997(7) 0.50687(5)
N1 N 0.59615(15) 0.46984(13) 0.79201(10)
N2 N 0.48778(14) 0.41141(11) 0.68311(9)
C10 C 0.3876(6) 0.0268(3) 0.5995(3)
H4 H 0.3444 -0.0335 0.6129
H5 H 0.4712 0.0113 0.5808
H6 H 0.3346 0.0613 0.5565
C11 C 0.4058(5) 0.0873(2) 0.6699(3)
H7 H 0.4598 0.0516 0.7125
H8 H 0.3212 0.0984 0.6902
C12 C 0.4715(4) 0.1916(2) 0.6569(2)
H9 H 0.4943 0.2209 0.7110
H10 H 0.5528 0.1802 0.6325
C13 C 0.3951(3) 0.2649(2) 0.60574(16)
H11 H 0.3107 0.2728 0.6272
H12 H 0.3789 0.2385 0.5501
C14 C 0.4565(3) 0.36552(18) 0.60087(12)
H13 H 0.5364 0.3595 0.5739
H14 H 0.3971 0.4087 0.5672
C15 C 0.7062(2) 0.5013(2) 0.85063(18)
H15 H 0.7872 0.4858 0.8285
H16 H 0.7024 0.4671 0.9022
H17 H 0.7010 0.5716 0.8596
C16 C 0.60622(17) 0.42913(13) 0.71921(11)
H18 H 0.6843 0.4152 0.6969
C17 C 0.4664(2) 0.47872(17) 0.80317(13)
H19 H 0.4319 0.5056 0.8491
C18 C 0.39785(17) 0.44146(16) 0.73537(12)
H20 H 0.3071 0.4369 0.7256
loop_
_geom_bond_atom_site_label_1
_geom_bond_atom_site_label_2
_geom_bond_site_symmetry_1
_geom_bond_site_symmetry_2
Zn1 O1 1_555 1_555
Zn2 Br1 1_555 1_555
C1 C2 1_555 1_555
C2 H1 1_555 1_555
C3 C2 1_555 1_555
C4 C3 1_555 1_555
H2 C4 1_555 1_555
C5 C4 1_555 1_555
C6 C1 1_555 1_555
H3 C6 1_555 1_555
C7 C1 1_555 1_555
C8 C3 1_555 1_555
C9 C5 1_555 1_555
O1 C7 1_555 1_555
O2 Zn2 1_555 1_555
O3 C8 1_555 1_555
O4 C8 1_555 1_555
O5 C9 1_555 1_555
O6 C9 1_555 1_555
O7 Zn1 1_555 1_555
N1 C15 1_555 1_555
N2 C14 1_555 1_555
C10 H4 1_555 1_555
H5 C10 1_555 1_555
H6 C10 1_555 1_555
C11 C10 1_555 1_555
H7 C11 1_555 1_555
H8 C11 1_555 1_555
C12 C11 1_555 1_555
H9 C12 1_555 1_555
H10 C12 1_555 1_555
C13 C12 1_555 1_555
H11 C13 1_555 1_555
H12 C13 1_555 1_555
C14 C13 1_555 1_555
H13 C14 1_555 1_555
H14 C14 1_555 1_555
C15 H15 1_555 1_555
H16 C15 1_555 1_555
H17 C15 1_555 1_555
C16 N1 1_555 1_555
H18 C16 1_555 1_555
C17 N1 1_555 1_555
H19 C17 1_555 1_555
C18 N2 1_555 1_555
H20 C18 1_555 1_555
Zn1C O4 1_555 1_555
Zn1B O6 1_555 1_555
Zn1B_2 O7 1_555 1_555
Zn2_2 O5 1_555 1_555
O4C Zn1 1_555 1_555
O5_2 Zn2 1_555 1_555
O6B Zn1 1_555 1_555
O7B Zn1 1_555 1_555
Zn2 O7 1_555 1_555
C5 C6 1_555 1_555
C7 O2 1_555 1_555
N2 C16 1_555 1_555
C17 C18 1_555 1_555
Zn1B_2 O7B 1_555 1_555

#END
