
#######################################################################
#
#                 Cambridge Crystallographic Data Centre
#                                CCDC 
#
#######################################################################
#
# If this CIF has been generated from an entry in the Cambridge 
# Structural Database, then it will include bibliographic, chemical, 
# crystal, experimental, refinement or atomic coordinate data resulting 
# from the CCDC's data processing and validation procedures.
#
#######################################################################

data_MITSUE
_symmetry_cell_setting           monoclinic
_symmetry_space_group_name_H-M   'P 21/c'
_symmetry_Int_Tables_number      14
_space_group_name_Hall           '-P 2ybc'
loop_
_symmetry_equiv_pos_site_id
_symmetry_equiv_pos_as_xyz
1 x,y,z
2 -x,1/2+y,1/2-z
3 -x,-y,-z
4 x,1/2-y,1/2+z
_cell_length_a                   10.0355(5)
_cell_length_b                   12.8190(6)
_cell_length_c                   15.4797(7)
_cell_angle_alpha                90
_cell_angle_beta                 102.4860(10)
_cell_angle_gamma                90
_cell_volume                     1944.29
loop_
_atom_site_label
_atom_site_type_symbol
_atom_site_fract_x
_atom_site_fract_y
_atom_site_fract_z
Cd1 Cd 0.178712(7) 0.966051(6) 0.091685(5)
O1 O 0.37865(8) 0.91392(7) 0.04833(5)
O2 O 0.34864(8) 0.84479(7) 0.17227(6)
O3 O 0.68834(10) 0.59953(9) 0.33390(7)
O4 O 0.87489(10) 0.56568(9) 0.29086(8)
O5 O 1.02586(7) 0.84566(7) 0.10373(6)
O6 O 0.87987(10) 0.96875(6) 0.04562(7)
C1 C 0.42126(11) 0.86164(9) 0.11735(8)
C2 C 0.56325(11) 0.81975(9) 0.13488(8)
C3 C 0.66295(10) 0.86377(10) 0.09504(7)
H1 H 0.6397 0.9174 0.0541
C4 C 0.79671(11) 0.82729(9) 0.11684(8)
C5 C 0.82932(11) 0.74369(9) 0.17529(8)
H2 H 0.9176 0.7171 0.1875
C6 C 0.73233(11) 0.69990(9) 0.21532(8)
C7 C 0.59954(12) 0.73883(9) 0.19510(8)
H3 H 0.5341 0.7102 0.2224
C8 C 0.76801(12) 0.61584(9) 0.28373(9)
C9 C 0.90688(11) 0.88357(9) 0.08424(8)
Cd1A Cd 0.821288(7) 0.466051(6) 0.408315(5)
Cd1_2 Cd 1.178712(7) 0.966051(6) 0.091685(5)
Cd1B Cd 0.821288(7) 1.033949(6) -0.091685(5)
O3A O 0.31166(10) 1.09953(9) 0.16610(7)
O4A O 0.12511(10) 1.06568(9) 0.20914(8)
O5_2 O 0.02586(7) 0.84566(7) 0.10373(6)
O6B O 0.12013(10) 1.03125(6) -0.04562(7)
C10 C 0.55185(15) 0.26811(12) 0.10469(10)
H4 H 0.5711 0.2526 0.0473
H5 H 0.4775 0.2232 0.1125
C11 C 0.50669(19) 0.37908(14) 0.10528(13)
H6 H 0.5759 0.4243 0.0905
H7 H 0.4955 0.3975 0.1641
C12 C 0.3724(2) 0.39524(19) 0.03896(15)
H8 H 0.3452 0.4670 0.0399
H9 H 0.3035 0.3515 0.0544
H10 H 0.3838 0.3775 -0.0193
C13 C 0.80155(15) 0.29921(14) 0.16603(10)
H11 H 0.8727 0.2842 0.2178
H12 H 0.7834 0.3735 0.1661
C14 C 0.85532(17) 0.27375(18) 0.08444(12)
H13 H 0.8779 0.2002 0.0847
H14 H 0.7848 0.2875 0.0321
C15 C 0.98039(18) 0.3374(2) 0.08061(14)
H15 H 1.0120 0.3195 0.0283
H16 H 1.0508 0.3230 0.1319
H17 H 0.9579 0.4103 0.0792
C16 C 0.7889(2) 0.10671(17) 0.33868(15)
H18 H 0.8632 0.0745 0.3796
H19 H 0.7039 0.0826 0.3503
H20 H 0.7947 0.1811 0.3456
C17 C 0.7964(2) 0.07950(19) 0.24967(14)
H21 H 0.7910 0.0042 0.2439
H22 H 0.8849 0.1007 0.2402
C18 C 0.69014(17) 0.12570(12) 0.17930(11)
H23 H 0.6030 0.0970 0.1849
H24 H 0.7065 0.1021 0.1230
N1 N 0.67596(11) 0.24277(10) 0.17496(7)
loop_
_geom_bond_atom_site_label_1
_geom_bond_atom_site_label_2
_geom_bond_site_symmetry_1
_geom_bond_site_symmetry_2
Cd1 O1 1_555 1_555
O1 C1 1_555 1_555
O2 Cd1 1_555 1_555
O3 C8 1_555 1_555
O4 C8 1_555 1_555
O5 C9 1_555 1_555
O6 C9 1_555 1_555
C1 O2 1_555 1_555
C2 C1 1_555 1_555
C3 C2 1_555 1_555
H1 C3 1_555 1_555
C4 C3 1_555 1_555
C5 C4 1_555 1_555
H2 C5 1_555 1_555
C6 C5 1_555 1_555
C7 C2 1_555 1_555
H3 C7 1_555 1_555
C8 C6 1_555 1_555
C9 C4 1_555 1_555
C10 H4 1_555 1_555
H5 C10 1_555 1_555
C11 C10 1_555 1_555
H6 C11 1_555 1_555
H7 C11 1_555 1_555
C12 C11 1_555 1_555
H8 C12 1_555 1_555
H9 C12 1_555 1_555
H10 C12 1_555 1_555
C13 H11 1_555 1_555
H12 C13 1_555 1_555
C14 C13 1_555 1_555
H13 C14 1_555 1_555
H14 C14 1_555 1_555
C15 C14 1_555 1_555
H15 C15 1_555 1_555
H16 C15 1_555 1_555
H17 C15 1_555 1_555
C16 H18 1_555 1_555
H19 C16 1_555 1_555
H20 C16 1_555 1_555
C17 C16 1_555 1_555
H21 C17 1_555 1_555
H22 C17 1_555 1_555
C18 C17 1_555 1_555
H23 C18 1_555 1_555
H24 C18 1_555 1_555
N1 C10 1_555 1_555
Cd1A O3 1_555 1_555
Cd1_2 O5 1_555 1_555
Cd1B O6 1_555 1_555
O3A Cd1 1_555 1_555
O4A Cd1 1_555 1_555
O5_2 Cd1 1_555 1_555
O6B Cd1 1_555 1_555
O4 Cd1A 1_555 1_555
C6 C7 1_555 1_555
C13 N1 1_555 1_555
C18 N1 1_555 1_555

#END
