
#######################################################################
#
#                 Cambridge Crystallographic Data Centre
#                                CCDC 
#
#######################################################################
#
# If this CIF has been generated from an entry in the Cambridge 
# Structural Database, then it will include bibliographic, chemical, 
# crystal, experimental, refinement or atomic coordinate data resulting 
# from the CCDC's data processing and validation procedures.
#
#######################################################################

data_MOBFIT
_symmetry_cell_setting           triclinic
_symmetry_space_group_name_H-M   'P -1'
_symmetry_Int_Tables_number      2
_space_group_name_Hall           '-P 1'
loop_
_symmetry_equiv_pos_site_id
_symmetry_equiv_pos_as_xyz
1 x,y,z
2 -x,-y,-z
_cell_length_a                   11.4050(5)
_cell_length_b                   13.0515(9)
_cell_length_c                   18.4855(9)
_cell_angle_alpha                101.734(5)
_cell_angle_beta                 95.682(4)
_cell_angle_gamma                115.790(5)
_cell_volume                     2370.27
loop_
_atom_site_label
_atom_site_type_symbol
_atom_site_fract_x
_atom_site_fract_y
_atom_site_fract_z
Cs1 Cs 0.1727(2) 0.6399(2) 0.32379(18)
Cs3 Cs 0.61551(8) 0.74588(9) 0.19017(5)
Co1 Co 0.34460(11) 0.16291(11) 0.14229(7)
Co2 Co 0.56540(11) 0.35317(11) 0.28685(7)
Co3 Co 0.52491(12) 0.09151(11) 0.24102(7)
Co4 Co 0.29832(11) 0.15377(11) 0.30401(7)
Co5 Co 0.25822(14) 0.22362(12) 0.58441(8)
Co6 Co 1.0000 0.5000 0.5000
Co7 Co 0.73776(13) -0.01792(13) 0.08144(8)
O1 O 0.5453(6) 0.2292(5) 0.1878(3)
O2 O 0.6199(7) 0.0673(6) 0.1510(4)
O3 O 0.7353(7) 0.1428(6) 0.0719(4)
O4 O 0.6845(8) 0.4852(6) 0.2425(4)
O5 O 0.8649(19) 0.5597(10) 0.2003(10)
O6 O 0.3820(6) 0.0996(6) 0.0367(4)
O7 O 0.4638(7) 0.1642(7) -0.0561(4)
O8 O 0.3641(5) 0.2811(5) 0.2451(3)
O9 O 0.2997(6) 0.2684(6) 0.0898(4)
O10 O 0.1843(8) 0.3615(7) 0.0706(5)
O11 O 0.5444(7) 0.4925(6) 0.3602(4)
O12 O 0.5592(7) 0.6603(6) 0.3414(4)
O13 O 0.2467(7) 0.2805(6) 0.3600(4)
O14 O 0.2135(8) 0.4327(7) 0.3481(5)
O15 O 0.5079(5) 0.2077(5) 0.3310(3)
O16 O 0.7297(6) 0.4045(6) 0.3715(4)
O17 O 0.7966(6) 0.3764(6) 0.4799(4)
O18 O 0.7051(6) 0.1268(7) 0.3078(4)
O19 O 0.8148(7) 0.1255(7) 0.4118(4)
O20 O 0.3434(8) 0.1333(7) 0.5217(4)
O21 O 0.2902(6) 0.0900(6) 0.3979(4)
O22 O 0.3225(5) 0.0495(5) 0.2101(3)
O23 O 0.4610(7) -0.0838(6) 0.2417(4)
O24 O 0.3313(7) -0.2744(6) 0.1915(4)
O25 O 0.1467(6) 0.0285(6) 0.0986(4)
O26 O 0.0158(7) -0.1605(6) 0.0857(5)
O27 O 0.0898(6) 0.0383(6) 0.2655(4)
O28 O -0.0553(8) -0.1375(7) 0.2702(5)
O29 O 0.1677(8) 0.3013(7) 0.6548(5)
O30 O 0.2732(10) 0.3404(7) 0.5194(5)
O31 O 0.2097(9) 0.0954(7) 0.6444(5)
O32 O 0.0685(11) 0.1186(10) 0.5068(9)
O33 O 0.9823(8) 0.6252(8) 0.5793(6)
O34 O 0.9738(8) 0.5797(8) 0.4143(5)
O35 O 0.8270(8) 0.0247(8) 0.2003(4)
O36 O 0.7750(7) -0.1681(7) 0.0638(5)
O37 O 0.9335(8) 0.0728(8) 0.0625(5)
C1 C 0.6404(9) 0.2543(8) 0.1420(5)
C2 C 0.6665(9) 0.1470(9) 0.1197(5)
C3 C 0.7754(10) 0.3610(10) 0.1880(7)
H1 H 0.8012 0.3443 0.2340
H2 H 0.8431 0.3681 0.1586
C4 C 0.7734(14) 0.4740(12) 0.2080(7)
C5 C 0.5934(9) 0.2783(9) 0.0695(5)
H3 H 0.5716 0.3427 0.0839
H4 H 0.6674 0.3054 0.0443
C6 C 0.4772(10) 0.1777(9) 0.0143(6)
C7 C 0.2997(9) 0.3542(8) 0.2512(5)
C8 C 0.1810(9) 0.3026(9) 0.1840(6)
H5 H 0.1254 0.2196 0.1799
H6 H 0.1276 0.3430 0.1936
C9 C 0.2230(9) 0.3142(8) 0.1115(6)
C10 C 0.3983(9) 0.4820(8) 0.2525(6)
H7 H 0.4390 0.4793 0.2090
H8 H 0.3491 0.5259 0.2480
C11 C 0.5081(10) 0.5480(9) 0.3239(6)
C12 C 0.2512(9) 0.3555(9) 0.3274(6)
C13 C 0.5779(8) 0.2347(8) 0.4048(5)
C14 C 0.7127(8) 0.3481(8) 0.4201(5)
C15 C 0.6087(9) 0.1356(9) 0.4166(6)
H9 H 0.5275 0.0608 0.3989
H10 H 0.6387 0.1493 0.4703
C16 C 0.7153(9) 0.1269(8) 0.3752(6)
C17 C 0.5005(9) 0.2593(9) 0.4621(6)
H11 H 0.5561 0.2872 0.5123
H12 H 0.4826 0.3226 0.4538
C18 C 0.3702(9) 0.1546(9) 0.4599(6)
C19 C 0.2222(9) -0.0662(8) 0.1766(5)
C20 C 0.2808(9) -0.1428(8) 0.1379(5)
H13 H 0.2087 -0.2169 0.1057
H14 H 0.3365 -0.1024 0.1059
C21 C 0.3628(9) -0.1691(9) 0.1937(6)
C22 C 0.1180(9) -0.0686(9) 0.1153(6)
C23 C 0.1470(10) -0.1197(8) 0.2374(6)
H15 H 0.0957 -0.2050 0.2173
H16 H 0.2118 -0.1031 0.2821
C24 C 0.0542(9) -0.0689(9) 0.2595(6)
Co1A Co 1.65540(11) 0.83709(11) 0.85771(7)
Co1A_2 Co 0.65540(11) 0.83709(11) 0.85771(7)
Co2A Co 1.43460(11) 0.64683(11) 0.71315(7)
Co2A_2 Co 0.43460(11) 0.64683(11) 0.71315(7)
Co3A Co 1.47509(12) 0.90849(11) 0.75898(7)
Co4A Co 1.70168(11) 0.84623(11) 0.69599(7)
Co4A_2 Co 0.70168(11) 0.84623(11) 0.69599(7)
Co5A Co 1.74178(14) 0.77638(12) 0.41559(8)
Co5A_2 Co 0.74178(14) 0.77638(12) 0.41559(8)
Co7A Co 1.26224(13) 1.01792(13) 0.91856(8)
Co7A_2 Co 0.26224(13) 0.01792(13) -0.08144(8)
Co7_2 Co 1.73776(13) 0.98208(13) 1.08144(8)
O1A O 1.4547(6) 0.7708(5) 0.8122(3)
O2A O 1.3801(7) 0.9327(6) 0.8490(4)
O3A O 1.2647(7) 0.8572(6) 0.9281(4)
O4A O 1.3155(8) 0.5148(6) 0.7575(4)
O5A O 1.1351(19) 0.4403(10) 0.7997(10)
O6A O 1.6180(6) 0.9004(6) 0.9633(4)
O6A_2 O 0.6180(6) -0.0996(6) -0.0367(4)
O6_2 O 1.3820(6) 1.0996(6) 1.0367(4)
O7A O 1.5362(7) 0.8358(7) 1.0561(4)
O7A_2 O 0.5362(7) -0.1642(7) 0.0561(4)
O7_2 O 1.4638(7) 1.1642(7) 0.9439(4)
O8A O 0.6359(5) 0.7189(5) 0.7549(3)
O8A_2 O 1.6359(5) 0.7189(5) 0.7549(3)
O9A O 0.7003(6) 0.7316(6) 0.9102(4)
O9A_2 O 1.7003(6) 0.7316(6) 0.9102(4)
O10A O 0.8157(8) 0.6385(7) 0.9294(5)
O11A O 0.4556(7) 0.5075(6) 0.6398(4)
O11A_2 O 1.4556(7) 0.5075(6) 0.6398(4)
O12A O 0.4408(7) 0.3397(6) 0.6586(4)
O12_2 O 1.5592(7) 0.6603(6) 0.3414(4)
O13A O 0.7533(7) 0.7195(6) 0.6400(4)
O13A_2 O 1.7533(7) 0.7195(6) 0.6400(4)
O14A O 0.7865(8) 0.5673(7) 0.6519(5)
O15A O 1.4921(5) 0.7923(5) 0.6690(3)
O16A O 1.2703(6) 0.5955(6) 0.6285(4)
O17A O 1.2034(6) 0.6236(6) 0.5201(4)
O18A O 1.2949(6) 0.8732(7) 0.6922(4)
O19A O 1.1852(7) 0.8745(7) 0.5882(4)
O20A O 1.6566(8) 0.8667(7) 0.4783(4)
O21A O 1.7098(6) 0.9100(6) 0.6021(4)
O22A O 1.6775(5) 0.9505(5) 0.7899(3)
O23A O 1.5390(7) 1.0838(6) 0.7583(4)
O24A O 1.6687(7) 1.2744(6) 0.8085(4)
O25A O 1.8533(6) 0.9715(6) 0.9014(4)
O26A O 1.9842(7) 1.1605(6) 0.9143(5)
O27A O 1.9102(6) 0.9617(6) 0.7345(4)
O28A O 2.0553(8) 1.1375(7) 0.7298(5)
O29A O 1.8323(8) 0.6987(7) 0.3452(5)
O30A O 1.7268(10) 0.6596(7) 0.4806(5)
O31A O 1.7903(9) 0.9046(7) 0.3556(5)
O32A O 1.9315(11) 0.8814(10) 0.4932(9)
O33A O 1.0177(8) 0.3748(8) 0.4207(6)
O34A O 1.0262(8) 0.4203(8) 0.5857(5)
O35A O 1.1730(8) 0.9753(8) 0.7997(4)
O36A O 1.2250(7) 1.1681(7) 0.9362(5)
O37A O 1.0665(8) 0.9272(8) 0.9375(5)
C1A C 1.3596(9) 0.7457(8) 0.8580(5)
C2A C 1.3335(9) 0.8530(9) 0.8803(5)
C3A C 1.2246(10) 0.6390(10) 0.8120(7)
H1A H 1.1988 0.6557 0.7660
H2A H 1.1569 0.6319 0.8414
C4A C 1.2266(14) 0.5260(12) 0.7920(7)
C5A C 1.4066(9) 0.7217(9) 0.9305(5)
H3A H 1.4284 0.6573 0.9161
H4A H 1.3326 0.6946 0.9557
C6A C 1.5228(10) 0.8223(9) 0.9857(6)
C7A C 0.7003(9) 0.6458(8) 0.7488(5)
C8A C 0.8190(9) 0.6974(9) 0.8160(6)
H5A H 0.8746 0.7804 0.8201
H6A H 0.8724 0.6570 0.8064
C9A C 0.7770(9) 0.6858(8) 0.8885(6)
C10A C 0.6017(9) 0.5180(8) 0.7475(6)
H7A H 0.5610 0.5207 0.7910
H8A H 0.6509 0.4741 0.7520
C11A C 0.4919(10) 0.4520(9) 0.6761(6)
C12A C 0.7488(9) 0.6445(9) 0.6726(6)
C13A C 1.4221(8) 0.7653(8) 0.5952(5)
C14A C 1.2873(8) 0.6519(8) 0.5799(5)
C15A C 1.3913(9) 0.8644(9) 0.5834(6)
H9A H 1.4725 0.9392 0.6011
H10A H 1.3613 0.8507 0.5297
C16A C 1.2847(9) 0.8731(8) 0.6248(6)
C17A C 1.4995(9) 0.7407(9) 0.5379(6)
H11A H 1.4439 0.7128 0.4877
H12A H 1.5174 0.6774 0.5462
C18A C 1.6298(9) 0.8454(9) 0.5401(6)
C19A C 1.7778(9) 1.0662(8) 0.8234(5)
C20A C 1.7192(9) 1.1428(8) 0.8621(5)
H13A H 1.7913 1.2169 0.8943
H14A H 1.6635 1.1024 0.8941
C21A C 1.6372(9) 1.1691(9) 0.8063(6)
C22A C 1.8820(9) 1.0686(9) 0.8847(6)
C23A C 1.8530(10) 1.1197(8) 0.7626(6)
H15A H 1.9043 1.2050 0.7827
H16A H 1.7882 1.1031 0.7179
C24A C 1.9458(9) 1.0689(9) 0.7405(6)
Co8 Co 0.0000 0.5000 0.0000
O38 O -0.0523(8) 0.3572(7) 0.0525(5)
O39 O 0.1991(8) 0.5687(7) 0.0555(5)
O40 O -0.0352(9) 0.6066(7) 0.0842(5)
O38A O 0.0523(8) 0.6428(7) -0.0525(5)
O39A O -0.1991(8) 0.4313(7) -0.0555(5)
O40A O 0.0352(9) 0.3934(7) -0.0842(5)
O41 O 0.1479(9) 0.8513(8) 0.4325(5)
O42 O 0.441(2) 0.839(2) 0.3728(12)
Cs2? Cs 0.2547(4) 0.6792(3) 0.34700(16)
loop_
_geom_bond_atom_site_label_1
_geom_bond_atom_site_label_2
_geom_bond_site_symmetry_1
_geom_bond_site_symmetry_2
Co1 O1 1_555 1_555
Co2 O1 1_555 1_555
Co3 O1 1_555 1_555
Co4 O8 1_555 1_555
Co5 O20 1_555 1_555
Co6 O17 1_555 1_555
Co7 O2 1_555 1_555
Co8 O38 1_555 1_555
O1 C1 1_555 1_555
O2 Co3 1_555 1_555
O3 Co7 1_555 1_555
O4 Co2 1_555 1_555
O5 C4 1_555 1_555
O6 Co1 1_555 1_555
O7 C6 1_555 1_555
O8 Co1 1_555 1_555
O9 Co1 1_555 1_555
O10 C9 1_555 1_555
O11 Co2 1_555 1_555
O12 C11 1_555 1_555
O13 Co4 1_555 1_555
O14 C12 1_555 1_555
O15 Co2 1_555 1_555
O16 Co2 1_555 1_555
O17 C14 1_555 1_555
O18 Co3 1_555 1_555
O19 C16 1_555 1_555
O20 C18 1_555 1_555
O21 Co4 1_555 1_555
O22 Co1 1_555 1_555
O23 Co3 1_555 1_555
O24 C21 1_555 1_555
O25 Co1 1_555 1_555
O26 C22 1_555 1_555
O27 Co4 1_555 1_555
O28 C24 1_555 1_555
O29 Co5 1_555 1_555
O30 Co5 1_555 1_555
O31 Co5 1_555 1_555
O32 Co5 1_555 1_555
O33 Co6 1_555 1_555
O34 Co6 1_555 1_555
O35 Co7 1_555 1_555
O36 Co7 1_555 1_555
O37 Co7 1_555 1_555
O39 Co8 1_555 1_555
O40 Co8 1_555 1_555
C1 C2 1_555 1_555
C2 O2 1_555 1_555
C3 C1 1_555 1_555
H1 C3 1_555 1_555
H2 C3 1_555 1_555
C4 O4 1_555 1_555
C5 C1 1_555 1_555
H3 C5 1_555 1_555
H4 C5 1_555 1_555
C6 O6 1_555 1_555
C7 O8 1_555 1_555
C8 C7 1_555 1_555
H5 C8 1_555 1_555
H6 C8 1_555 1_555
C9 O9 1_555 1_555
C10 C7 1_555 1_555
H7 C10 1_555 1_555
H8 C10 1_555 1_555
C11 O11 1_555 1_555
C12 O13 1_555 1_555
C13 O15 1_555 1_555
C14 O16 1_555 1_555
C15 C13 1_555 1_555
H9 C15 1_555 1_555
H10 C15 1_555 1_555
C16 O18 1_555 1_555
C17 C13 1_555 1_555
H11 C17 1_555 1_555
H12 C17 1_555 1_555
C18 O21 1_555 1_555
C19 O22 1_555 1_555
C20 C19 1_555 1_555
H13 C20 1_555 1_555
H14 C20 1_555 1_555
C21 O23 1_555 1_555
C22 O25 1_555 1_555
C23 C19 1_555 1_555
H15 C23 1_555 1_555
H16 C23 1_555 1_555
C24 O27 1_555 1_555
Co1A O1A 1_555 1_555
Co1A_2 O8A 1_555 1_555
Co2A O1A 1_555 1_555
Co2A_2 O8A 1_555 1_555
Co3A O1A 1_555 1_555
Co4A O8A_2 1_555 1_555
Co4A_2 O8A 1_555 1_555
Co5A O12_2 1_555 1_555
Co5A_2 O12 1_555 1_555
Co7A O2A 1_555 1_555
Co7A_2 O6 1_555 1_555
Co7_2 O6A 1_555 1_555
O1A C1A 1_555 1_555
O2A Co3A 1_555 1_555
O3A Co7A 1_555 1_555
O4A Co2A 1_555 1_555
O5A C4A 1_555 1_555
O6A Co1A 1_555 1_555
O6A_2 Co7 1_555 1_555
O6_2 Co7A 1_555 1_555
O7A Co7_2 1_555 1_555
O7A_2 Co7 1_555 1_555
O7_2 Co7A 1_555 1_555
O8A C7A 1_555 1_555
O8A_2 Co1A 1_555 1_555
O9A Co1A_2 1_555 1_555
O9A_2 Co1A 1_555 1_555
O10A C9A 1_555 1_555
O11A Co2A_2 1_555 1_555
O11A_2 Co2A 1_555 1_555
O12A Co5 1_555 1_555
O13A Co4A_2 1_555 1_555
O13A_2 Co4A 1_555 1_555
O14A C12A 1_555 1_555
O15A Co2A 1_555 1_555
O16A Co2A 1_555 1_555
O17A Co6 1_555 1_555
O18A Co3A 1_555 1_555
O19A C16A 1_555 1_555
O20A Co5A 1_555 1_555
O21A Co4A 1_555 1_555
O22A Co1A 1_555 1_555
O23A Co3A 1_555 1_555
O24A C21A 1_555 1_555
O25A Co1A 1_555 1_555
O26A C22A 1_555 1_555
O27A Co4A 1_555 1_555
O28A C24A 1_555 1_555
O29A Co5A 1_555 1_555
O30A Co5A 1_555 1_555
O31A Co5A 1_555 1_555
O32A Co5A 1_555 1_555
O33A Co6 1_555 1_555
O34A Co6 1_555 1_555
O35A Co7A 1_555 1_555
O36A Co7A 1_555 1_555
O37A Co7A 1_555 1_555
O38A Co8 1_555 1_555
O39A Co8 1_555 1_555
O40A Co8 1_555 1_555
C1A C2A 1_555 1_555
C2A O2A 1_555 1_555
C3A C1A 1_555 1_555
H1A C3A 1_555 1_555
H2A C3A 1_555 1_555
C4A O4A 1_555 1_555
C5A C1A 1_555 1_555
H3A C5A 1_555 1_555
H4A C5A 1_555 1_555
C6A O6A 1_555 1_555
C7A C8A 1_555 1_555
C8A H5A 1_555 1_555
H6A C8A 1_555 1_555
C9A O9A 1_555 1_555
C10A C7A 1_555 1_555
H7A C10A 1_555 1_555
H8A C10A 1_555 1_555
C11A O11A 1_555 1_555
C12A O13A 1_555 1_555
C13A O15A 1_555 1_555
C14A O16A 1_555 1_555
C15A C13A 1_555 1_555
H9A C15A 1_555 1_555
H10A C15A 1_555 1_555
C16A O18A 1_555 1_555
C17A C13A 1_555 1_555
H11A C17A 1_555 1_555
H12A C17A 1_555 1_555
C18A O20A 1_555 1_555
C19A O22A 1_555 1_555
C20A C19A 1_555 1_555
H13A C20A 1_555 1_555
H14A C20A 1_555 1_555
C21A O23A 1_555 1_555
C22A O25A 1_555 1_555
C23A C19A 1_555 1_555
H15A C23A 1_555 1_555
H16A C23A 1_555 1_555
C24A O27A 1_555 1_555
Co2 O8 1_555 1_555
Co3 O15 1_555 1_555
Co3 O22 1_555 1_555
Co4 O15 1_555 1_555
Co4 O22 1_555 1_555
O3 C2 1_555 1_555
O7 Co7A_2 1_555 1_555
C3 C4 1_555 1_555
C5 C6 1_555 1_555
C7 C12 1_555 1_555
C8 C9 1_555 1_555
C10 C11 1_555 1_555
C13 C14 1_555 1_555
C15 C16 1_555 1_555
C17 C18 1_555 1_555
C19 C22 1_555 1_555
C20 C21 1_555 1_555
C23 C24 1_555 1_555
Co2A O8A_2 1_555 1_555
Co3A O15A 1_555 1_555
Co3A O22A 1_555 1_555
Co4A O15A 1_555 1_555
Co4A O22A 1_555 1_555
O3A C2A 1_555 1_555
O7A C6A 1_555 1_555
O12A C11A 1_555 1_555
O17A C14A 1_555 1_555
O21A C18A 1_555 1_555
C3A C4A 1_555 1_555
C5A C6A 1_555 1_555
C7A C12A 1_555 1_555
C8A C9A 1_555 1_555
C10A C11A 1_555 1_555
C13A C14A 1_555 1_555
C15A C16A 1_555 1_555
C17A C18A 1_555 1_555
C19A C22A 1_555 1_555
C20A C21A 1_555 1_555
C23A C24A 1_555 1_555

#END
