
#######################################################################
#
#                 Cambridge Crystallographic Data Centre
#                                CCDC 
#
#######################################################################
#
# If this CIF has been generated from an entry in the Cambridge 
# Structural Database, then it will include bibliographic, chemical, 
# crystal, experimental, refinement or atomic coordinate data resulting 
# from the CCDC's data processing and validation procedures.
#
#######################################################################

data_MOCKAR
_symmetry_cell_setting           rhombohedral
_symmetry_space_group_name_H-M   'R -3'
_symmetry_Int_Tables_number      148
_space_group_name_Hall           '-R 3'
loop_
_symmetry_equiv_pos_site_id
_symmetry_equiv_pos_as_xyz
1 x,y,z
2 -y,x-y,z
3 -x+y,-x,z
4 2/3+x,1/3+y,1/3+z
5 2/3-y,1/3+x-y,1/3+z
6 2/3-x+y,1/3-x,1/3+z
7 1/3+x,2/3+y,2/3+z
8 1/3-y,2/3+x-y,2/3+z
9 1/3-x+y,2/3-x,2/3+z
10 -x,-y,-z
11 y,-x+y,-z
12 x-y,x,-z
13 1/3-x,2/3-y,2/3-z
14 1/3+y,2/3-x+y,2/3-z
15 1/3+x-y,2/3+x,2/3-z
16 2/3-x,1/3-y,1/3-z
17 2/3+y,1/3-x+y,1/3-z
18 2/3+x-y,1/3+x,1/3-z
_cell_length_a                   18.795(3)
_cell_length_b                   18.795(3)
_cell_length_c                   31.280(9)
_cell_angle_alpha                90
_cell_angle_beta                 90
_cell_angle_gamma                120.00
_cell_volume                     9569.34
loop_
_atom_site_label
_atom_site_type_symbol
_atom_site_fract_x
_atom_site_fract_y
_atom_site_fract_z
Cu1 Cu 0.28826(8) 0.14408(8) 0.13124(4)
O1 O 0.4455(4) 0.2955(4) 0.1725(2)
C1 C 0.4243(7) 0.3057(8) 0.1364(4)
C2 C 0.5447(8) 0.4309(7) 0.1336(3)
H1 H 0.5502 0.4134 0.1606
C3 C 0.4775(6) 0.3839(7) 0.1093(4)
C4 C 0.5930(8) 0.5281(8) 0.0778(4)
H2 H 0.6346 0.5787 0.0680
C5 C 0.4740(7) 0.4142(7) 0.0702(3)
H3 H 0.4270 0.3802 0.0545
C6 C 0.5272(9) 0.4854(7) 0.0503(4)
C7 C 0.4984(8) 0.4870(7) 0.0107(2)
H4 H 0.5452 0.5658 -0.0059
O2 O 0.3662(5) 0.2553(5) 0.1131(2)
C8 C 0.6043(7) 0.5048(7) 0.1177(4)
C9 C 0.3116(7) 0.4316(6) -0.1360(4)
O3 O 0.2945(4) 0.4425(4) -0.1721(2)
O4 O 0.2611(4) 0.3713(4) -0.1145(2)
O5 O 0.2325(9) 0.1128(9) 0.0692(4)
H5 H 0.164(2) 0.090(2) 0.0790(11)
H6 H 0.229(6) 0.151(5) 0.054(3)
Cu1O Cu 0.37841(8) 0.18925(8) 0.20209(4)
Cu1F Cu 0.62159(8) 0.81075(8) -0.20209(4)
Cu1I Cu 0.71174(8) 0.85592(8) -0.13124(4)
Cu1H Cu 0.18915(11) 0.37841(8) -0.20209(4)
Cu1K Cu 0.14418(11) 0.28826(8) -0.13124(4)
Cu1Q Cu 0.81085(11) 0.62159(8) 0.20209(4)
Cu1B Cu 0.85582(11) 0.71174(8) 0.13124(4)
O1O O 0.2212(4) 0.0378(4) 0.1608(2)
O1I O 0.5545(4) 0.7045(4) -0.1725(2)
O1K O 0.1500(6) 0.4455(4) -0.1725(2)
C1I C 0.5757(7) 0.6943(8) -0.1364(4)
C2I C 0.4553(8) 0.5691(7) -0.1336(3)
H1I H 0.4498 0.5866 -0.1606
C3I C 0.5225(6) 0.6161(7) -0.1093(4)
C4I C 0.4070(8) 0.4719(8) -0.0778(4)
H2I H 0.3654 0.4213 -0.0680
C5I C 0.5260(7) 0.5858(7) -0.0702(3)
H3I H 0.5730 0.6198 -0.0545
C6I C 0.4728(9) 0.5146(7) -0.0503(4)
C7I C 0.5016(8) 0.5130(7) -0.0107(2)
H4I H 0.4548 0.4342 0.0059
O2H O 0.2224(7) 0.3005(5) -0.2202(2)
O2I O 0.6338(5) 0.7447(5) -0.1131(2)
C8I C 0.3957(7) 0.4952(7) -0.1177(4)
C9I C 0.6884(7) 0.5684(6) 0.1360(4)
O3D O 0.2242(4) 0.1853(6) 0.1612(2)
O3I O 0.7055(4) 0.5575(4) 0.1721(2)
O4J O 0.3713(4) 0.1102(6) 0.1145(2)
O4L O 0.0722(4) 0.2954(4) -0.2188(2)
O4I O 0.7389(4) 0.6287(4) 0.1145(2)
O5H O 0.2136(13) 0.4342(9) -0.2641(4)
H5H H 0.259(3) 0.503(2) -0.2543(11)
H6H H 0.255(8) 0.438(6) -0.279(3)
loop_
_geom_bond_atom_site_label_1
_geom_bond_atom_site_label_2
_geom_bond_site_symmetry_1
_geom_bond_site_symmetry_2
Cu1 O2 1_555 1_555
O1 C1 1_555 1_555
C1 C3 1_555 1_555
C2 H1 1_555 1_555
C3 C2 1_555 1_555
C4 H2 1_555 1_555
C5 C3 1_555 1_555
H3 C5 1_555 1_555
C6 C4 1_555 1_555
C7 C6 1_555 1_555
H4 C7I 1_555 1_555
O2 C1 1_555 1_555
C8 C2 1_555 1_555
C9 O3 1_555 1_555
O3 Cu1H 1_555 1_555
O4 C9 1_555 1_555
O5 Cu1 1_555 1_555
H5 O5 1_555 1_555
H6 O5 1_555 1_555
Cu1O Cu1 1_555 1_555
Cu1F Cu1I 1_555 1_555
Cu1I O2I 1_555 1_555
Cu1H Cu1K 1_555 1_555
Cu1K O4 1_555 1_555
Cu1Q Cu1B 1_555 1_555
Cu1B O4I 1_555 1_555
O1O Cu1 1_555 1_555
O1I Cu1F 1_555 1_555
O1K Cu1H 1_555 1_555
C1I O1I 1_555 1_555
C2I H1I 1_555 1_555
C3I C1I 1_555 1_555
C4I H2I 1_555 1_555
C5I C3I 1_555 1_555
H3I C5I 1_555 1_555
C6I C4I 1_555 1_555
C7I C7 1_555 1_555
H4I C7 1_555 1_555
O2H Cu1H 1_555 1_555
O2I C1I 1_555 1_555
C8I C9 1_555 1_555
C9I C8 1_555 1_555
O3D Cu1 1_555 1_555
O3I Cu1Q 1_555 1_555
O4J Cu1 1_555 1_555
O4L Cu1H 1_555 1_555
O4I C9I 1_555 1_555
O5H Cu1H 1_555 1_555
H5H O5H 1_555 1_555
H6H O5H 1_555 1_555
O1 Cu1O 1_555 1_555
C4 C8 1_555 1_555
C5 C6 1_555 1_555
C2I C3I 1_555 1_555
C2I C8I 1_555 1_555
C4I C8I 1_555 1_555
C5I C6I 1_555 1_555
C6I C7I 1_555 1_555
C9I O3I 1_555 1_555

#END
