
#######################################################################
#
#                 Cambridge Crystallographic Data Centre
#                                CCDC 
#
#######################################################################
#
# If this CIF has been generated from an entry in the Cambridge 
# Structural Database, then it will include bibliographic, chemical, 
# crystal, experimental, refinement or atomic coordinate data resulting 
# from the CCDC's data processing and validation procedures.
#
#######################################################################

data_MOFLAV
_symmetry_cell_setting           monoclinic
_symmetry_space_group_name_H-M   'C 2/c'
_symmetry_Int_Tables_number      15
_space_group_name_Hall           '-C 2yn'
loop_
_symmetry_equiv_pos_site_id
_symmetry_equiv_pos_as_xyz
1 x,y,z
2 1/2+x,1/2+y,z
3 -x,y,1/2-z
4 1/2-x,1/2+y,1/2-z
5 -x,-y,-z
6 1/2-x,1/2-y,-z
7 x,-y,1/2+z
8 1/2+x,1/2-y,1/2+z
_cell_length_a                   27.4420(13)
_cell_length_b                   15.9357(8)
_cell_length_c                   54.783(3)
_cell_angle_alpha                90
_cell_angle_beta                 102.6060(10)
_cell_angle_gamma                90
_cell_volume                     23379.5
loop_
_atom_site_label
_atom_site_type_symbol
_atom_site_fract_x
_atom_site_fract_y
_atom_site_fract_z
O2 O -0.8804(10) -0.6482(19) 0.4737(5)
O3 O -0.8171(16) -0.667(3) 0.4671(8)
O4 O -0.7960(6) -0.8489(13) 0.4848(3)
O5 O -1.5680(12) -1.103(2) -0.0098(6)
O6 O -0.8877(16) -1.397(3) 0.2441(8)
P1 P -0.75190(15) -0.6744(2) 0.35832(7)
P2 P -0.62783(14) -0.6421(2) 0.41001(7)
W1 W -0.81839(3) -0.57762(4) 0.398809(12)
W2 W -0.61175(3) -0.86191(4) 0.410502(12)
W3 W -0.58074(3) -0.51884(4) 0.367111(12)
W4 W -0.77122(3) -0.45609(4) 0.359399(12)
W5 W -0.67773(3) -0.77594(4) 0.449033(12)
W6 W -0.70039(3) -0.54819(4) 0.447827(12)
W7 W -0.69766(3) -0.55374(4) 0.318265(12)
W8 W -0.67741(3) -0.76174(4) 0.319283(12)
W9 W -0.73020(3) -0.89354(4) 0.362281(12)
W10 W -0.65409(3) -0.42510(4) 0.408657(12)
W11 W -0.79558(3) -0.80531(4) 0.400361(12)
W12 W -0.52730(3) -0.50781(4) 0.435234(12)
W13 W -0.56001(3) -0.72689(4) 0.367717(13)
W14 W -0.50659(3) -0.71774(4) 0.435648(13)
W15 W -0.81443(3) -0.79619(4) 0.307361(12)
W16 W -0.83501(3) -0.58670(4) 0.306051(12)
W17 W -0.57353(3) -0.63135(5) 0.474237(12)
W18 W -0.88192(3) -0.71004(4) 0.345612(12)
O1 O -0.3891(5) -0.3321(7) 0.4572(2)
O7 O -0.7089(4) -0.6622(6) 0.34493(17)
O8 O -0.8003(4) -0.6870(7) 0.33719(17)
O9 O -0.7448(4) -0.7540(6) 0.37441(18)
O10 O -0.7605(4) -0.5970(6) 0.37334(19)
O11 O -0.6636(4) -0.5714(6) 0.41324(19)
O12 O -0.6133(4) -0.6356(6) 0.38474(19)
O13 O -0.5785(4) -0.6286(6) 0.43055(18)
O14 O -0.6480(4) -0.7287(6) 0.41407(18)
O15 O -0.6897(4) -0.8406(6) 0.34284(18)
O16 O -0.7674(4) -0.5754(7) 0.30365(18)
O17 O -0.6800(4) -0.6541(7) 0.30344(19)
O18 O -0.6950(4) -0.8202(7) 0.47432(18)
O19 O -0.7061(4) -0.6656(6) 0.44815(17)
O20 O -0.5875(4) -0.9606(7) 0.4118(2)
O21 O -0.7338(4) -0.8074(7) 0.42387(19)
O22 O -0.7253(4) -0.9971(7) 0.3548(2)
O23 O -0.6267(4) -0.4575(6) 0.38121(19)
O24 O -0.7752(4) -0.9008(6) 0.38366(19)
O25 O -0.8361(4) -0.6953(7) 0.29035(19)
O26 O -0.5360(4) -0.5355(7) 0.46747(19)
O27 O -0.7240(4) -0.4833(6) 0.34006(18)
O28 O -0.4842(4) -0.6032(7) 0.4371(2)
O29 O -0.6164(4) -0.7316(7) 0.34021(19)
O30 O -0.7869(4) -0.3556(7) 0.3504(2)
O31 O -0.5182(5) -0.7797(7) 0.3553(2)
O32 O -0.5532(4) -0.4423(7) 0.3533(2)
O33 O -0.7242(4) -0.5213(7) 0.4731(2)
O34 O -0.8651(4) -0.5265(7) 0.28150(18)
O35 O -0.8033(4) -0.6914(7) 0.40813(19)
O36 O -0.6492(4) -0.3200(7) 0.4085(2)
O37 O -0.4837(4) -0.4289(7) 0.4417(2)
O38 O -0.8620(4) -0.5500(7) 0.41528(19)
O39 O -0.5901(5) -0.8132(7) 0.3833(2)
O40 O -0.5622(4) -0.6301(7) 0.5062(2)
O41 O -0.7192(4) -0.4348(7) 0.38759(19)
O42 O -0.8311(4) -0.8657(8) 0.2830(2)
O43 O -0.4508(4) -0.7698(7) 0.4421(2)
O44 O -0.9431(4) -0.7294(7) 0.3460(2)
O45 O -0.6564(4) -0.8215(7) 0.2982(2)
O46 O -0.7475(4) -0.7705(7) 0.30535(19)
O47 O -0.8463(4) -0.7848(6) 0.37061(18)
O48 O -0.8729(4) -0.7921(7) 0.32088(19)
O49 O -0.7842(4) -0.8667(6) 0.33462(17)
O50 O -0.5194(4) -0.6993(7) 0.46797(19)
O51 O -0.8162(4) -0.4753(6) 0.3811(2)
O52 O -0.6348(4) -0.5442(7) 0.3392(2)
O53 O -0.8195(4) -0.5087(7) 0.33241(19)
O54 O -0.5381(4) -0.5151(6) 0.39945(18)
O55 O -0.8626(4) -0.6231(7) 0.36984(19)
O56 O -0.6397(4) -0.8647(6) 0.43962(18)
O57 O -0.6165(4) -0.7251(6) 0.46645(19)
O58 O -0.8886(4) -0.6268(7) 0.3198(2)
O59 O -0.6327(4) -0.5648(7) 0.46552(18)
O60 O -0.5543(4) -0.8057(7) 0.4304(2)
O61 O -0.6746(4) -0.8856(6) 0.38988(17)
O62 O -0.5895(4) -0.4489(6) 0.42867(18)
O63 O -0.5478(4) -0.6151(7) 0.35876(18)
O64 O -0.6822(4) -0.4407(7) 0.43741(18)
O65 O -0.7602(4) -0.5467(6) 0.42284(18)
O66 O -0.5185(4) -0.7087(7) 0.40041(19)
O67 O -0.8312(4) -0.8558(7) 0.4174(2)
O68 O -0.6903(4) -0.4849(7) 0.2953(2)
Cu1 Cu -0.90442(9) -0.41212(17) 0.42304(4)
Cu2 Cu -0.81551(8) -0.91864(13) 0.24271(4)
Cu3 Cu -0.40597(8) -0.40571(14) 0.42674(4)
C1 C -0.8371(7) -0.4613(14) 0.4718(3)
H1 H -0.8439 -0.5196 0.4697
C2 C -0.8348(10) -0.3343(14) 0.4664(4)
H2 H -0.8398 -0.2813 0.4584
C3 C -0.7856(9) -0.4598(14) 0.5168(4)
H3 H -0.7749 -0.5184 0.5149
H4 H -0.7555 -0.4264 0.5242
C4 C -0.8214(9) -0.4575(15) 0.5338(4)
H5 H -0.8423 -0.4065 0.5302
H6 H -0.8438 -0.5069 0.5304
C5 C -0.7943(8) -0.4577(12) 0.5621(3)
H7 H -0.7663 -0.4982 0.5647
H8 H -0.8180 -0.4762 0.5723
C6 C -0.7742(8) -0.3707(12) 0.5708(4)
H9 H -0.8016 -0.3292 0.5666
H10 H -0.7481 -0.3546 0.5618
C7 C -0.7525(9) -0.3680(13) 0.5987(4)
H11 H -0.7228 -0.4049 0.6026
H12 H -0.7774 -0.3905 0.6076
C8 C -0.7377(8) -0.2818(11) 0.6083(3)
H13 H -0.7343 -0.2818 0.6267
H14 H -0.7650 -0.2426 0.6011
C9 C -0.6157(8) -0.2434(12) 0.6054(4)
H15 H -0.5811 -0.2566 0.6090
C10 C -0.6823(10) -0.1840(17) 0.5903(5)
H16 H -0.7072 -0.1481 0.5810
C11 C -0.9681(10) -0.5434(15) 0.4366(4)
H17 H -0.9653 -0.5785 0.4230
C12 C -0.9710(10) -0.4416(15) 0.4605(4)
H18 H -0.9669 -0.3866 0.4674
C13 C -1.0001(9) -0.6560(11) 0.4586(5)
H19 H -0.9946 -0.6876 0.4439
H20 H -0.9770 -0.6771 0.4738
C14 C -1.0506(10) -0.6614(12) 0.4608(5)
H21 H -1.0745 -0.6489 0.4449
H22 H -1.0576 -0.6255 0.4744
C15 C -1.0490(10) -0.7554(12) 0.4675(5)
H23 H -1.0455 -0.7902 0.4530
H24 H -1.0209 -0.7678 0.4818
C16 C -1.0972(10) -0.7712(14) 0.4742(4)
H25 H -1.1218 -0.7868 0.4588
H26 H -1.1087 -0.7181 0.4804
C17 C -1.0975(10) -0.8397(15) 0.4940(4)
H27 H -1.0846 -0.8923 0.4881
H28 H -1.0739 -0.8230 0.5096
C18 C -1.1460(10) -0.8577(15) 0.5000(4)
H29 H -1.1669 -0.8889 0.4859
H30 H -1.1630 -0.8039 0.5017
C19 C -1.1185(10) -0.9760(17) 0.5304(5)
H31 H -1.1001 -1.0072 0.5207
C20 C -1.1517(10) -0.9341(16) 0.5586(5)
H32 H -1.1628 -0.9322 0.5738
C21 C -0.9989(10) -0.4561(16) 0.3813(5)
H33 H -1.0214 -0.4592 0.3922
C22 C -0.9320(8) -0.4363(14) 0.3683(3)
H34 H -0.8989 -0.4247 0.3668
C23 C -0.9693(10) -0.4709(16) 0.3235(4)
H35 H -1.0042 -0.4718 0.3138
H36 H -0.9544 -0.5265 0.3216
C24 C -0.9410(11) -0.4051(19) 0.3129(5)
H37 H -0.9409 -0.4220 0.2955
H38 H -0.9060 -0.4077 0.3224
C25 C -0.9570(10) -0.3122(18) 0.3120(5)
H39 H -0.9596 -0.2933 0.3289
H40 H -0.9317 -0.2769 0.3065
C26 C -1.0078(12) -0.3031(19) 0.2937(6)
H41 H -1.0333 -0.3347 0.3002
H42 H -1.0057 -0.3278 0.2774
C27 C -1.0246(10) -0.2060(17) 0.2898(5)
H43 H -1.0332 -0.1835 0.3052
H44 H -0.9972 -0.1718 0.2858
C28 C -1.0696(9) -0.2033(14) 0.2683(4)
H45 H -1.0613 -0.2311 0.2536
H46 H -1.0973 -0.2349 0.2730
C29 C -1.1294(8) -0.0833(12) 0.2629(3)
H47 H -1.1557 -0.1124 0.2680
C30 C -1.0861(9) 0.0100(16) 0.2492(5)
H48 H -1.0757 0.0616 0.2433
C31 C -0.7300(9) -1.0468(16) 0.2534(3)
H49 H -0.7367 -1.0643 0.2364
C32 C -0.7395(9) -0.9886(16) 0.2864(3)
H50 H -0.7509 -0.9572 0.2988
C33 C -0.6671(13) -1.068(2) 0.3145(5)
H51 H -0.6629 -1.0209 0.3266
H52 H -0.6337 -1.0812 0.3115
C34 C -0.6849(13) -1.143(2) 0.3268(6)
H53 H -0.7011 -1.1816 0.3133
H54 H -0.7112 -1.1234 0.3352
C35 C -0.6470(13) -1.196(3) 0.3461(5)
H55 H -0.6643 -1.2421 0.3528
H56 H -0.6209 -1.2198 0.3383
C36 C -0.6247(13) -1.137(3) 0.3662(5)
H57 H -0.6497 -1.1217 0.3760
H58 H -0.6135 -1.0857 0.3591
C37 C -0.5806(13) -1.181(3) 0.3830(5)
H59 H -0.5642 -1.1417 0.3963
H60 H -0.5926 -1.2300 0.3910
C38 C -0.5437(12) -1.2089(19) 0.3682(5)
H61 H -0.5567 -1.2580 0.3577
H62 H -0.5368 -1.1632 0.3572
C39 C -0.4305(13) -1.2268(19) 0.4114(6)
H63 H -0.4017 -1.2059 0.4226
C40 C -0.4844(13) -1.308(2) 0.3928(5)
H64 H -0.5032 -1.3567 0.3869
C41 C -0.4342(12) -0.5549(19) 0.3906(6)
H65 H -0.4399 -0.5918 0.4033
C42 C -0.4128(12) -0.448(2) 0.3733(5)
H66 H -0.4006 -0.3939 0.3701
C43 C -0.4324(9) -0.4974(15) 0.3293(3)
H67 H -0.4147 -0.4462 0.3258
H68 H -0.4683 -0.4917 0.3213
C44 C -0.4100(7) -0.5764(13) 0.3192(5)
H69 H -0.4226 -0.6280 0.3257
H70 H -0.4195 -0.5777 0.3007
C45 C -0.3527(7) -0.5710(16) 0.3280(4)
H71 H -0.3424 -0.5116 0.3306
H72 H -0.3419 -0.6009 0.3441
C46 C -0.3280(8) -0.6098(13) 0.3087(5)
H73 H -0.2937 -0.5876 0.3107
H74 H -0.3471 -0.5953 0.2917
C47 C -0.3263(12) -0.7058(14) 0.3120(5)
H75 H -0.2926 -0.7167 0.3224
H76 H -0.3498 -0.7170 0.3230
C48 C -0.3348(10) -0.7755(18) 0.2940(5)
H77 H -0.3679 -0.7677 0.2827
H78 H -0.3362 -0.8284 0.3034
C49 C -0.7355(12) -0.8488(17) 0.2195(5)
H79 H -0.7385 -0.8936 0.2078
C50 C -0.7454(12) -0.7661(17) 0.2478(5)
H80 H -0.7574 -0.7423 0.2613
C51 C -0.9009(12) -0.846(2) 0.2027(5)
H81 H -0.9015 -0.8928 0.1919
C52 C -0.8803(12) -0.7648(19) 0.2344(6)
H82 H -0.8654 -0.7416 0.2503
C53 C -0.9399(10) -0.6471(19) 0.2224(8)
H83 H -0.9374 -0.6062 0.2091
H84 H -0.9225 -0.6235 0.2387
C54 C -0.9957(10) -0.6646(18) 0.2225(7)
H85 H -1.0085 -0.6146 0.2298
H86 H -1.0139 -0.6678 0.2048
C55 C -1.0107(13) -0.7399(17) 0.2356(6)
H87 H -0.9991 -0.7912 0.2283
H88 H -1.0476 -0.7423 0.2323
N1 N -0.8540(6) -0.4020(9) 0.4552(3)
N2 N -0.8095(8) -0.3411(12) 0.4883(3)
N3 N -0.8090(6) -0.4254(10) 0.4919(3)
N4 N -0.6479(7) -0.2913(11) 0.6130(3)
N5 N -0.6916(6) -0.2496(10) 0.6029(3)
N6 N -0.8665(6) -0.3259(10) 0.4078(3)
N7 N -0.9498(6) -0.4722(11) 0.4404(3)
N8 N -0.9972(11) -0.5029(13) 0.4680(5)
N9 N -0.9938(11) -0.5645(11) 0.4554(5)
N10 N -1.1420(7) -0.9070(9) 0.5232(3)
N11 N -1.1632(7) -0.8754(11) 0.5414(3)
N12 N -0.3768(5) -0.5026(9) 0.4470(3)
N13 N -0.9479(7) -0.4340(11) 0.3894(3)
N14 N -1.0117(7) -0.4718(11) 0.3574(4)
N15 N -0.9691(7) -0.4572(10) 0.3495(3)
N16 N -1.0588(8) -0.0610(14) 0.2523(5)
N17 N -1.0862(7) -0.1153(12) 0.2616(3)
N18 N -0.8695(6) -1.0026(9) 0.2443(3)
N19 N -0.7604(6) -0.9905(9) 0.2626(3)
N20 N -0.6922(8) -1.0729(16) 0.2697(3)
N21 N -0.6992(8) -1.0380(15) 0.2905(3)
N22 N -0.4989(7) -1.2311(12) 0.3863(3)
N23 N -0.4620(8) -1.1796(12) 0.3981(4)
N24 N -0.4407(6) -0.3096(9) 0.4087(3)
N25 N -0.4196(5) -0.4742(10) 0.3951(3)
N26 N -0.4261(7) -0.5093(11) 0.3566(3)
N27 N -0.4397(6) -0.5771(10) 0.3672(3)
N28 N -0.7096(10) -0.7303(13) 0.2381(3)
N29 N -0.7629(7) -0.8391(11) 0.2367(3)
N30 N -0.2970(7) -0.7852(11) 0.2786(3)
N31 N -0.8680(6) -0.8391(10) 0.2258(3)
N32 N -0.9304(10) -0.7828(18) 0.1976(4)
N33 N -0.9164(8) -0.7289(12) 0.2177(4)
O67A O -0.3312(4) -0.3558(7) 0.4174(2)
O68C O -0.8097(4) -0.9849(7) 0.2047(2)
Cu2C Cu -0.68449(8) -0.41864(13) 0.25729(4)
Cu3A Cu -0.90597(8) -0.90571(14) 0.42674(4)
C9E C -0.8843(8) -0.2566(12) 0.3946(4)
C10E C -0.8177(10) -0.3160(17) 0.4097(5)
C19E C -0.3815(10) -0.5240(17) 0.4696(5)
C20E C -0.3483(10) -0.5659(16) 0.4414(5)
C29B C -0.8706(8) -1.0833(12) 0.2371(3)
C30B C -0.9139(9) -0.9900(16) 0.2508(5)
C39_2 C -0.4305(13) -0.2268(19) 0.4114(6)
C40_2 C -0.4844(13) -0.308(2) 0.3928(5)
C49B C -0.2645(12) -0.8488(17) 0.2805(5)
C55B C -0.9893(13) -0.7399(17) 0.2644(6)
N6E N -0.6335(6) -0.1741(10) 0.5922(3)
N12E N -1.1232(5) -0.9974(9) 0.5530(3)
N18B N -1.1305(6) -0.0026(9) 0.2557(3)
N24_2 N -0.4407(6) -1.3096(9) 0.4087(3)
N28B N -0.2904(10) -0.7303(13) 0.2619(3)
N30B N -0.7030(7) -0.7852(11) 0.2214(3)
loop_
_geom_bond_atom_site_label_1
_geom_bond_atom_site_label_2
_geom_bond_site_symmetry_1
_geom_bond_site_symmetry_2
P1 O7 1_555 1_555
P2 O11 1_555 1_555
W1 O10 1_555 1_555
W2 O14 1_555 1_555
W3 O12 1_555 1_555
W4 O10 1_555 1_555
W5 O14 1_555 1_555
W6 O11 1_555 1_555
W7 O7 1_555 1_555
W8 O7 1_555 1_555
W9 O9 1_555 1_555
W10 O11 1_555 1_555
W11 O9 1_555 1_555
W12 O13 1_555 1_555
W13 O12 1_555 1_555
W14 O13 1_555 1_555
W15 O8 1_555 1_555
W16 O8 1_555 1_555
W17 O13 1_555 1_555
W18 O8 1_555 1_555
O1 Cu3 1_555 1_555
O8 P1 1_555 1_555
O9 P1 1_555 1_555
O10 P1 1_555 1_555
O12 P2 1_555 1_555
O13 P2 1_555 1_555
O14 P2 1_555 1_555
O15 W8 1_555 1_555
O16 W7 1_555 1_555
O17 W7 1_555 1_555
O18 W5 1_555 1_555
O19 W5 1_555 1_555
O20 W2 1_555 1_555
O21 W5 1_555 1_555
O22 W9 1_555 1_555
O23 W3 1_555 1_555
O24 W9 1_555 1_555
O25 W15 1_555 1_555
O26 W12 1_555 1_555
O27 W4 1_555 1_555
O28 W12 1_555 1_555
O29 W8 1_555 1_555
O30 W4 1_555 1_555
O31 W13 1_555 1_555
O32 W3 1_555 1_555
O33 W6 1_555 1_555
O34 W16 1_555 1_555
O35 W1 1_555 1_555
O36 W10 1_555 1_555
O37 W12 1_555 1_555
O38 W1 1_555 1_555
O39 W2 1_555 1_555
O40 W17 1_555 1_555
O41 W4 1_555 1_555
O42 W15 1_555 1_555
O43 W14 1_555 1_555
O44 W18 1_555 1_555
O45 W8 1_555 1_555
O46 W8 1_555 1_555
O47 W11 1_555 1_555
O48 W15 1_555 1_555
O49 W9 1_555 1_555
O50 W14 1_555 1_555
O51 W1 1_555 1_555
O52 W3 1_555 1_555
O53 W4 1_555 1_555
O54 W3 1_555 1_555
O55 W1 1_555 1_555
O56 W2 1_555 1_555
O57 W5 1_555 1_555
O58 W16 1_555 1_555
O59 W6 1_555 1_555
O60 W2 1_555 1_555
O61 W2 1_555 1_555
O62 W10 1_555 1_555
O63 W3 1_555 1_555
O64 W6 1_555 1_555
O65 W1 1_555 1_555
O66 W13 1_555 1_555
O67 W11 1_555 1_555
O68 W7 1_555 1_555
Cu1 O38 1_555 1_555
Cu2 O42 1_555 1_555
Cu3 O37 1_555 1_555
C1 H1 1_555 1_555
C2 H2 1_555 1_555
C3 H3 1_555 1_555
H4 C3 1_555 1_555
C4 C3 1_555 1_555
H5 C4 1_555 1_555
H6 C4 1_555 1_555
C5 C4 1_555 1_555
H7 C5 1_555 1_555
H8 C5 1_555 1_555
C6 C5 1_555 1_555
H9 C6 1_555 1_555
H10 C6 1_555 1_555
C7 C6 1_555 1_555
H11 C7 1_555 1_555
H12 C7 1_555 1_555
C8 C7 1_555 1_555
H13 C8 1_555 1_555
H14 C8 1_555 1_555
C9 H15 1_555 1_555
C10 H16 1_555 1_555
C11 H17 1_555 1_555
C12 H18 1_555 1_555
C13 H19 1_555 1_555
H20 C13 1_555 1_555
C14 C13 1_555 1_555
H21 C14 1_555 1_555
H22 C14 1_555 1_555
C15 C14 1_555 1_555
H23 C15 1_555 1_555
H24 C15 1_555 1_555
C16 C15 1_555 1_555
H25 C16 1_555 1_555
H26 C16 1_555 1_555
C17 C16 1_555 1_555
H27 C17 1_555 1_555
H28 C17 1_555 1_555
C18 C17 1_555 1_555
H29 C18 1_555 1_555
H30 C18 1_555 1_555
C19 H31 1_555 1_555
C20 H32 1_555 1_555
C21 H33 1_555 1_555
C22 H34 1_555 1_555
C23 H35 1_555 1_555
H36 C23 1_555 1_555
C24 C23 1_555 1_555
H37 C24 1_555 1_555
H38 C24 1_555 1_555
C25 C24 1_555 1_555
H39 C25 1_555 1_555
H40 C25 1_555 1_555
C26 C25 1_555 1_555
H41 C26 1_555 1_555
H42 C26 1_555 1_555
C27 C26 1_555 1_555
H43 C27 1_555 1_555
H44 C27 1_555 1_555
C28 C27 1_555 1_555
H45 C28 1_555 1_555
H46 C28 1_555 1_555
C29 H47 1_555 1_555
C30 H48 1_555 1_555
C31 H49 1_555 1_555
C32 H50 1_555 1_555
C33 H51 1_555 1_555
H52 C33 1_555 1_555
C34 C33 1_555 1_555
H53 C34 1_555 1_555
H54 C34 1_555 1_555
C35 C34 1_555 1_555
H55 C35 1_555 1_555
H56 C35 1_555 1_555
C36 C35 1_555 1_555
H57 C36 1_555 1_555
H58 C36 1_555 1_555
C37 C36 1_555 1_555
H59 C37 1_555 1_555
H60 C37 1_555 1_555
C38 C37 1_555 1_555
H61 C38 1_555 1_555
H62 C38 1_555 1_555
C39 H63 1_555 1_555
C40 H64 1_555 1_555
C41 H65 1_555 1_555
C42 H66 1_555 1_555
C43 H67 1_555 1_555
H68 C43 1_555 1_555
C44 C43 1_555 1_555
H69 C44 1_555 1_555
H70 C44 1_555 1_555
C45 C44 1_555 1_555
H71 C45 1_555 1_555
H72 C45 1_555 1_555
C46 C45 1_555 1_555
H73 C46 1_555 1_555
H74 C46 1_555 1_555
C47 C46 1_555 1_555
H75 C47 1_555 1_555
H76 C47 1_555 1_555
C48 C47 1_555 1_555
H77 C48 1_555 1_555
H78 C48 1_555 1_555
C49 H79 1_555 1_555
C50 H80 1_555 1_555
C51 H81 1_555 1_555
C52 H82 1_555 1_555
C53 H83 1_555 1_555
H84 C53 1_555 1_555
C54 C53 1_555 1_555
H85 C54 1_555 1_555
H86 C54 1_555 1_555
C55 C54 1_555 1_555
H87 C55 1_555 1_555
H88 C55 1_555 1_555
N1 Cu1 1_555 1_555
N2 C2 1_555 1_555
N3 C1 1_555 1_555
N4 C9 1_555 1_555
N5 C8 1_555 1_555
N6 Cu1 1_555 1_555
N7 Cu1 1_555 1_555
N8 C12 1_555 1_555
N9 C11 1_555 1_555
N10 C18 1_555 1_555
N11 C20 1_555 1_555
N12 Cu3 1_555 1_555
N13 Cu1 1_555 1_555
N14 C21 1_555 1_555
N15 C22 1_555 1_555
N16 C30 1_555 1_555
N17 C28 1_555 1_555
N18 Cu2 1_555 1_555
N19 Cu2 1_555 1_555
N20 C31 1_555 1_555
N21 C32 1_555 1_555
N22 C38 1_555 1_555
N23 C39 1_555 1_555
N24 Cu3 1_555 1_555
N25 Cu3 1_555 1_555
N26 C42 1_555 1_555
N27 C41 1_555 1_555
N28 C50 1_555 1_555
N29 Cu2 1_555 1_555
N30 C48 1_555 1_555
N31 Cu2 1_555 1_555
N32 C51 1_555 1_555
N33 C52 1_555 1_555
O67A Cu3 1_555 1_555
O68C Cu2 1_555 1_555
Cu2C O68 1_555 1_555
Cu3A O67 1_555 1_555
C9E N6 1_555 1_555
C10E N6 1_555 1_555
C19E N12 1_555 1_555
C20E N12 1_555 1_555
C29B N18 1_555 1_555
C30B N18 1_555 1_555
C39_2 N24 1_555 1_555
C40_2 N24 1_555 1_555
C49B N30 1_555 1_555
C55B C55 1_555 1_555
N6E C9 1_555 1_555
N12E C19 1_555 1_555
N18B C29 1_555 1_555
N24_2 C39 1_555 1_555
N28B N30 1_555 1_555
N30B C49 1_555 1_555
W4 O51 1_555 1_555
W5 O56 1_555 1_555
W6 O19 1_555 1_555
W6 O65 1_555 1_555
W7 O27 1_555 1_555
W7 O52 1_555 1_555
W8 O17 1_555 1_555
W9 O15 1_555 1_555
W9 O61 1_555 1_555
W10 O23 1_555 1_555
W10 O41 1_555 1_555
W10 O64 1_555 1_555
W11 O21 1_555 1_555
W11 O24 1_555 1_555
W11 O35 1_555 1_555
W12 O54 1_555 1_555
W12 O62 1_555 1_555
W13 O29 1_555 1_555
W13 O39 1_555 1_555
W13 O63 1_555 1_555
W14 O28 1_555 1_555
W14 O60 1_555 1_555
W14 O66 1_555 1_555
W15 O46 1_555 1_555
W15 O49 1_555 1_555
W16 O16 1_555 1_555
W16 O25 1_555 1_555
W16 O53 1_555 1_555
W17 O26 1_555 1_555
W17 O50 1_555 1_555
W17 O57 1_555 1_555
W17 O59 1_555 1_555
W18 O47 1_555 1_555
W18 O48 1_555 1_555
W18 O55 1_555 1_555
W18 O58 1_555 1_555
C1 N1 1_555 1_555
C2 N1 1_555 1_555
C3 N3 1_555 1_555
C10 N5 1_555 1_555
C10 N6E 1_555 1_555
C11 N7 1_555 1_555
C12 N7 1_555 1_555
C13 N9 1_555 1_555
C19 N10 1_555 1_555
C20 N12E 1_555 1_555
C21 N13 1_555 1_555
C22 N13 1_555 1_555
C23 N15 1_555 1_555
C29 N17 1_555 1_555
C30 N18B 1_555 1_555
C31 N19 1_555 1_555
C32 N19 1_555 1_555
C33 N21 1_555 1_555
C40 N22 1_555 1_555
C40 N24_2 1_555 1_555
C41 N25 1_555 1_555
C42 N25 1_555 1_555
C43 N26 1_555 1_555
C49 N29 1_555 1_555
C50 N29 1_555 1_555
C51 N31 1_555 1_555
C52 N31 1_555 1_555
C53 N33 1_555 1_555
N2 N3 1_555 1_555
N4 N5 1_555 1_555
N8 N9 1_555 1_555
N10 N11 1_555 1_555
N14 N15 1_555 1_555
N16 N17 1_555 1_555
N20 N21 1_555 1_555
N22 N23 1_555 1_555
N26 N27 1_555 1_555
N28 N30B 1_555 1_555
N32 N33 1_555 1_555

#END
