
#######################################################################
#
#                 Cambridge Crystallographic Data Centre
#                                CCDC 
#
#######################################################################
#
# If this CIF has been generated from an entry in the Cambridge 
# Structural Database, then it will include bibliographic, chemical, 
# crystal, experimental, refinement or atomic coordinate data resulting 
# from the CCDC's data processing and validation procedures.
#
#######################################################################

data_MOGNAY
_symmetry_cell_setting           orthorhombic
_symmetry_space_group_name_H-M   'P n m a'
_symmetry_Int_Tables_number      62
_space_group_name_Hall           '-P 2ac 2n'
loop_
_symmetry_equiv_pos_site_id
_symmetry_equiv_pos_as_xyz
1 x,y,z
2 1/2-x,-y,1/2+z
3 -x,1/2+y,-z
4 1/2+x,1/2-y,1/2-z
5 -x,-y,-z
6 1/2+x,y,1/2-z
7 x,1/2-y,z
8 1/2-x,1/2+y,1/2+z
_cell_length_a                   14.239(3)
_cell_length_b                   6.7220(13)
_cell_length_c                   22.880(5)
_cell_angle_alpha                90
_cell_angle_beta                 90
_cell_angle_gamma                90
_cell_volume                     2189.95
loop_
_atom_site_label
_atom_site_type_symbol
_atom_site_fract_x
_atom_site_fract_y
_atom_site_fract_z
Tb1 Tb 0.04757(3) 0.2500 0.359561(15)
N1 N 0.1243(5) 0.2500 0.2587(3)
N2 N 0.0934(4) 0.2500 0.4687(3)
O1 O 0.2112(4) 0.2500 0.3598(2)
O2 O 0.3529(4) 0.2500 0.3190(3)
O3 O 0.4198(3) 0.0870(6) 0.19661(18)
O4 O -0.0779(4) 0.2500 0.4233(2)
O5 O -0.1452(4) 0.2500 0.5130(2)
O6 O -0.0755(3) 0.0845(6) 0.62927(16)
C1 C 0.0780(7) 0.2500 0.2057(4)
H1 H 0.0127 0.2500 0.2053
C2 C 0.1259(7) 0.2500 0.1533(4)
H2 H 0.0926 0.2500 0.1184
C3 C 0.2200(7) 0.2500 0.1523(4)
H3 H 0.2521 0.2500 0.1169
C4 C 0.2698(6) 0.2500 0.2053(4)
C5 C 0.3768(6) 0.2500 0.2028(3)
C6 C 0.2192(6) 0.2500 0.2574(4)
C7 C 0.2653(6) 0.2500 0.3163(4)
C8 C 0.1805(6) 0.2500 0.4905(4)
H4 H 0.2308 0.2500 0.4646
C9 C 0.1994(7) 0.2500 0.5494(4)
H5 H 0.2612 0.2500 0.5626
C10 C 0.1261(6) 0.2500 0.5888(3)
H6 H 0.1378 0.2500 0.6288
C11 C 0.0335(6) 0.2500 0.5675(3)
C12 C -0.0455(6) 0.2500 0.6112(3)
C13 C 0.0204(6) 0.2500 0.5066(4)
C14 C -0.0765(6) 0.2500 0.4794(4)
Tb1E Tb 0.54757(3) 0.2500 0.140439(15)
Tb1D Tb -0.04757(3) -0.2500 0.640439(15)
Tb1D_2 Tb -0.04757(3) 0.7500 0.640439(15)
O3F O 0.4198(3) 0.4130(6) 0.19661(18)
O3E O -0.0802(3) 0.0870(6) 0.30339(18)
O3C O -0.0802(3) 0.4130(6) 0.30339(18)
O6F O -0.0755(3) 0.4155(6) 0.62927(16)
O6D O 0.0755(3) -0.0845(6) 0.37073(16)
O6B O 0.0755(3) 0.5845(6) 0.37073(16)
O7 O -0.3308(8) 0.2500 0.4990(6)
O8 O 0.3551(13) -0.2500 0.2579(5)
O9 O 0.2788(10) -0.2500 0.3718(7)
O10 O 0.522(3) -0.2500 0.3789(15)
O11 O 0.4205(10) 0.089(2) 0.465(2)
O12 O 0.143(2) -0.2500 0.2261(15)
loop_
_geom_bond_atom_site_label_1
_geom_bond_atom_site_label_2
_geom_bond_site_symmetry_1
_geom_bond_site_symmetry_2
Tb1 N1 1_555 1_555
N1 C1 1_555 1_555
N2 Tb1 1_555 1_555
O1 Tb1 1_555 1_555
O2 C7 1_555 1_555
O3 C5 1_555 1_555
O4 Tb1 1_555 1_555
O5 C14 1_555 1_555
O6 C12 1_555 1_555
C1 H1 1_555 1_555
C2 C1 1_555 1_555
H2 C2 1_555 1_555
C3 C2 1_555 1_555
H3 C3 1_555 1_555
C4 C3 1_555 1_555
C5 C4 1_555 1_555
C6 N1 1_555 1_555
C7 O1 1_555 1_555
C8 N2 1_555 1_555
H4 C8 1_555 1_555
C9 C8 1_555 1_555
H5 C9 1_555 1_555
C10 C9 1_555 1_555
H6 C10 1_555 1_555
C11 C10 1_555 1_555
C12 C11 1_555 1_555
C13 N2 1_555 1_555
C14 O4 1_555 1_555
Tb1E O3 1_555 1_555
Tb1D O6 1_555 1_555
Tb1D_2 O6F 1_555 1_555
O3F C5 1_555 1_555
O3E Tb1 1_555 1_555
O3C Tb1 1_555 1_555
O6F C12 1_555 1_555
O6D Tb1 1_555 1_555
O6B Tb1 1_555 1_555
C4 C6 1_555 1_555
C6 C7 1_555 1_555
C11 C13 1_555 1_555
C13 C14 1_555 1_555
Tb1E O3F 1_555 1_555

#END
