
#######################################################################
#
#                 Cambridge Crystallographic Data Centre
#                                CCDC 
#
#######################################################################
#
# If this CIF has been generated from an entry in the Cambridge 
# Structural Database, then it will include bibliographic, chemical, 
# crystal, experimental, refinement or atomic coordinate data resulting 
# from the CCDC's data processing and validation procedures.
#
#######################################################################

data_MOLLII
_symmetry_cell_setting           orthorhombic
_symmetry_space_group_name_H-M   'C m c m'
_symmetry_Int_Tables_number      63
_space_group_name_Hall           '-C 2n 2'
loop_
_symmetry_equiv_pos_site_id
_symmetry_equiv_pos_as_xyz
1 x,y,z
2 1/2+x,1/2+y,z
3 -x,-y,1/2+z
4 -x,y,1/2-z
5 x,-y,-z
6 1/2-x,1/2-y,1/2+z
7 1/2-x,1/2+y,1/2-z
8 1/2+x,1/2-y,-z
9 -x,-y,-z
10 1/2-x,1/2-y,-z
11 x,y,1/2-z
12 x,-y,1/2+z
13 -x,y,z
14 1/2+x,1/2+y,1/2-z
15 1/2+x,1/2-y,1/2+z
16 1/2-x,1/2+y,z
_cell_length_a                   12.815(5)
_cell_length_b                   15.979(3)
_cell_length_c                   6.7705(11)
_cell_angle_alpha                90
_cell_angle_beta                 90
_cell_angle_gamma                90
_cell_volume                     1386.4
loop_
_atom_site_label
_atom_site_type_symbol
_atom_site_fract_x
_atom_site_fract_y
_atom_site_fract_z
Fe1 Fe 0.5000 0.2892(4) 0.2500
Ag1 Ag 0.2526(2) 0.03819(19) 0.2500
N2 N 0.3955(19) 0.2043(18) 0.2500
N3 N 0.109(2) -0.123(2) 0.2500
C3 C 0.336(3) 0.150(2) 0.2500
C4 C 0.162(3) -0.066(2) 0.2500
N4 N 0.5000 0.2905(16) -0.042(3)
C5 C 0.5000 0.360(2) -0.1483(15)
C6 C 0.5000 0.219(2) -0.1478(15)
C5J C 0.5000 0.360(2) -0.3517(15)
C6J C 0.5000 0.219(2) -0.3522(15)
N2L N 0.6045(19) 0.2043(18) 0.2500
C3L C 0.664(3) 0.150(2) 0.2500
N3A N 0.609(2) 0.377(2) 0.2500
N4J N 0.5000 0.2905(16) 0.542(3)
Ag1L Ag 0.7474(2) 0.03819(19) 0.2500
N3O N 0.391(2) 0.377(2) 0.2500
N3L N 0.891(2) -0.123(2) 0.2500
C4L C 0.838(3) -0.066(2) 0.2500
Fe1O Fe 0.0000 -0.2108(4) 0.2500
Fe1A Fe 1.0000 -0.2108(4) 0.2500
N4J_2 N 0.5000 0.2905(16) -0.458(3)
Fe1_2 Fe 0.5000 0.2892(4) -0.7500
C1 C 0.5000 0.0204(13) 0.062(3)
C2 C 0.5000 0.0409(12) 0.180(3)
N1 N 0.5000 -0.0426(16) 0.187(8)
C1H C 0.5000 -0.0204(13) -0.062(3)
N1H N 0.5000 0.0426(16) -0.187(8)
C2J C 0.5000 0.0409(12) 0.320(3)
N1J N 0.5000 -0.0426(16) 0.313(8)
loop_
_geom_bond_atom_site_label_1
_geom_bond_atom_site_label_2
_geom_bond_site_symmetry_1
_geom_bond_site_symmetry_2
C1 C2 1_555 1_555
C2 N1 1_555 1_555
N1 C1 1_555 1_555
Fe1 N2 1_555 1_555
Ag1 C3 1_555 1_555
N2 C3 1_555 1_555
N3 C4 1_555 1_555
C4 Ag1 1_555 1_555
N4 Fe1 1_555 1_555
C5 N4 1_555 1_555
C6 N4 1_555 1_555
C1H C1 1_555 1_555
N1H C1 1_555 1_555
C2J C2 1_555 1_555
N1J C2 1_555 1_555
C5J C5 1_555 1_555
C6J C6 1_555 1_555
N2L Fe1 1_555 1_555
C3L N2L 1_555 1_555
N3A Fe1 1_555 1_555
N4J Fe1 1_555 1_555
Ag1L C3L 1_555 1_555
N3O Fe1 1_555 1_555
N3L C4L 1_555 1_555
C4L Ag1L 1_555 1_555
Fe1O N3 1_555 1_555
Fe1A N3L 1_555 1_555
N4J_2 C5J 1_555 1_555
Fe1_2 N4J_2 1_555 1_555
N1 C1H 1_555 1_555
N1 C2J 1_555 1_555
N1 N1J 1_555 1_555
C1H N1H 1_555 1_555
C2J N1J 1_555 1_555
C6J N4J_2 1_555 1_555

#END
