
#######################################################################
#
#                 Cambridge Crystallographic Data Centre
#                                CCDC 
#
#######################################################################
#
# If this CIF has been generated from an entry in the Cambridge 
# Structural Database, then it will include bibliographic, chemical, 
# crystal, experimental, refinement or atomic coordinate data resulting 
# from the CCDC's data processing and validation procedures.
#
#######################################################################

data_MOMRIR
_symmetry_cell_setting           monoclinic
_symmetry_space_group_name_H-M   'C 2/c'
_symmetry_Int_Tables_number      15
_space_group_name_Hall           '-C 2yn'
loop_
_symmetry_equiv_pos_site_id
_symmetry_equiv_pos_as_xyz
1 x,y,z
2 -x,y,1/2-z
3 1/2+x,1/2+y,z
4 1/2-x,1/2+y,1/2-z
5 -x,-y,-z
6 x,-y,1/2+z
7 1/2-x,1/2-y,-z
8 1/2+x,1/2-y,1/2+z
_cell_length_a                   39.074(4)
_cell_length_b                   9.9645(8)
_cell_length_c                   38.846(3)
_cell_angle_alpha                90
_cell_angle_beta                 136.438(4)
_cell_angle_gamma                90
_cell_volume                     10423.1
loop_
_atom_site_label
_atom_site_type_symbol
_atom_site_fract_x
_atom_site_fract_y
_atom_site_fract_z
O18 O 0.3040(3) -0.7942(9) 0.2867(4)
H47 H 0.2957 -0.7314 0.2929
C39 C 0.2717(6) -0.904(2) 0.2685(7)
H48 H 0.2511 -0.8858 0.2735
H49 H 0.2913 -0.9835 0.2877
C40 C 0.2398(7) -0.931(3) 0.2158(8)
H50 H 0.2076 -0.8921 0.1963
H51 H 0.2364 -1.0260 0.2103
H52 H 0.2542 -0.8921 0.2060
Zn1 Zn 0.2500 0.2500 0.0000
O1 O 0.2464(2) 0.4362(5) -0.0318(3)
H1 H 0.2435 0.4377 -0.0557
C1 C 0.3651(3) 0.2274(8) 0.0900(3)
N1 N 0.2221(3) 0.3460(8) 0.0472(3)
H2 H 0.1928 0.3394 0.0172
Zn2 Zn 0.32502(3) 0.31988(9) 0.13035(4)
O2 O 0.3258(2) 0.2409(6) 0.0443(2)
N2 N 0.0570(2) 0.3368(7) 0.0472(3)
H3 H 0.0592 0.3672 0.0694
H4 H 0.0292 0.3057 0.0195
C2 C 0.4111(4) 0.1870(18) 0.1040(5)
H5 H 0.4065 0.0991 0.0911
H6 H 0.4390 0.1862 0.1397
H7 H 0.4171 0.2501 0.0902
Zn3 Zn 0.38484(3) 0.20435(8) 0.25416(4)
N3 N 0.3970(2) 0.4443(6) 0.2232(3)
H8 H 0.4178 0.4612 0.2546
O3 O 0.3693(2) 0.2443(7) 0.1249(2)
C3 C 0.2219(8) 0.5536(11) -0.0354(8)
H9 H 0.2352 0.5716 -0.0029
H10 H 0.1867 0.5353 -0.0586
Zn4 Zn 0.44640(3) 0.08808(8) 0.37755(4)
O4 O 0.26284(19) 0.3437(6) 0.0555(2)
N4 N 0.4419(3) 1.0741(6) 0.2692(3)
H11 H 0.4328 1.1412 0.2502
H12 H 0.4588 1.0872 0.3000
C4 C 0.2289(7) 0.6773(15) -0.0528(6)
H13 H 0.2636 0.6988 -0.0289
H14 H 0.2112 0.7516 -0.0558
H15 H 0.2164 0.6594 -0.0846
Zn5 Zn 0.0000 0.5000 0.0000
O5 O 0.2701(2) 0.3741(6) 0.1283(2)
N5 N 0.3684(2) -0.0339(6) 0.2830(3)
H16 H 0.3454 -0.0464 0.2512
C5 C 0.2275(3) 0.3579(8) 0.0843(3)
O6 O 0.38050(19) 0.3158(5) 0.2065(2)
C6 C 0.1820(3) 0.3522(9) 0.0732(4)
N6 N 0.3268(2) -0.6659(6) 0.2375(3)
H17 H 0.3089 -0.6809 0.2065
H18 H 0.3383 -0.7319 0.2577
O7 O 0.3531(2) 0.5176(5) 0.1467(2)
N7 N 0.5326(3) -0.0601(7) 0.4546(3)
H19 H 0.5530 -0.1105 0.4805
C7 C 0.1373(3) 0.2981(11) 0.0291(4)
H20 H 0.1352 0.2652 0.0052
O8 O 0.3021(2) 0.1174(6) 0.1263(2)
C8 C 0.0989(3) 0.3379(8) 0.0561(3)
N8 N 0.6444(4) -0.4551(11) 0.4306(5)
H21 H 0.6398 -0.4665 0.4055
H22 H 0.6652 -0.5050 0.4566
O9 O 0.3227(2) 0.0814(5) 0.1952(2)
C9 C 0.1431(3) 0.3875(11) 0.1003(4)
H23 H 0.1455 0.4177 0.1246
O10 O 0.4447(2) 0.3290(5) 0.3128(2)
C10 C 0.1842(3) 0.3930(11) 0.1089(4)
H24 H 0.2141 0.4249 0.1394
O11 O 0.4694(2) 0.2803(6) 0.3839(3)
C11 C 0.3818(3) 0.5414(8) 0.1923(3)
O12 O 0.38959(19) 0.0905(5) 0.3018(2)
C12 C 0.4006(3) 0.6787(8) 0.2137(3)
O13 O 0.4141(2) -0.1136(5) 0.3601(2)
C13 C 0.4277(4) 0.7073(8) 0.2622(4)
H25 H 0.4372 0.6372 0.2836
O14 O 0.50175(19) 0.0253(5) 0.4496(2)
C14 C 0.4414(3) 0.8364(9) 0.2807(4)
H26 H 0.4588 0.8529 0.3136
O15 O 0.5013(2) 0.0085(6) 0.3823(3)
C15 C 0.4290(3) 0.9419(7) 0.2498(4)
O16 O 0.4021(2) 0.1620(6) 0.3847(2)
C16 C 0.4024(4) 0.9155(8) 0.2015(4)
H27 H 0.3937 0.9855 0.1805
O17 O 0.4442(2) 0.1496(6) 0.4646(3)
C17 C 0.3878(3) 0.7834(8) 0.1828(4)
H28 H 0.3696 0.7666 0.1496
C18 C 0.2952(3) 0.0666(9) 0.1500(3)
C19 C 0.2510(5) -0.0216(16) 0.1231(6)
H29 H 0.2459 -0.0354 0.1436
H30 H 0.2565 -0.1065 0.1161
H31 H 0.2221 0.0203 0.0923
C20 C 0.4705(3) 0.3497(8) 0.3581(4)
C21 C 0.5042(4) 0.4693(10) 0.3824(4)
H32 H 0.4887 0.5420 0.3832
H33 H 0.5106 0.4958 0.3637
H34 H 0.5350 0.4466 0.4159
C22 C 0.3827(3) -0.1335(7) 0.3129(3)
C23 C 0.3631(3) -0.2688(7) 0.2914(3)
C24 C 0.3320(3) -0.2952(7) 0.2417(4)
H35 H 0.3190 -0.2241 0.2196
C25 C 0.3193(3) -0.4255(7) 0.2234(3)
H36 H 0.2985 -0.4408 0.1896
C26 C 0.3375(3) -0.5321(7) 0.2553(3)
C27 C 0.3663(3) -0.5069(8) 0.3049(3)
H37 H 0.3773 -0.5776 0.3265
C28 C 0.3790(3) -0.3763(8) 0.3225(3)
H38 H 0.3987 -0.3605 0.3561
C29 C 0.5309(3) -0.0645(8) 0.4189(3)
C30 C 0.5639(3) -0.1628(9) 0.4255(4)
C31 C 0.5602(4) -0.1791(11) 0.3879(4)
H39 H 0.5395 -0.1215 0.3606
C32 C 0.5856(4) -0.2769(10) 0.3887(4)
H40 H 0.5801 -0.2879 0.3612
C33 C 0.6186(4) -0.3573(10) 0.4291(4)
C34 C 0.6240(5) -0.3443(13) 0.4694(5)
H41 H 0.6458 -0.3996 0.4973
C35 C 0.5964(5) -0.2479(13) 0.4663(5)
H42 H 0.5996 -0.2399 0.4924
C36 C 0.4086(3) 0.1884(9) 0.4200(4)
C37 C 0.3707(6) 0.2786(18) 0.4108(6)
H43 H 0.3876 0.3521 0.4339
H44 H 0.3534 0.2273 0.4154
H45 H 0.3472 0.3127 0.3772
C38 C 0.0961(3) 0.2922(10) 0.0201(4)
H46 H 0.0663 0.2579 -0.0100
C1D C -0.3651(3) 0.7726(8) -0.0900(3)
N1D N -0.2221(3) 0.6540(8) -0.0472(3)
H2D H -0.1928 0.6606 -0.0172
Zn2D Zn -0.32502(3) 0.68012(9) -0.13035(4)
O2D O -0.3258(2) 0.7591(6) -0.0443(2)
N2D N -0.0570(2) 0.6632(7) -0.0472(3)
H3D H -0.0592 0.6328 -0.0694
H4D H -0.0292 0.6943 -0.0195
C2D C -0.4111(4) 0.8130(18) -0.1040(5)
H5D H -0.4065 0.9009 -0.0911
H6D H -0.4390 0.8138 -0.1397
H7D H -0.4171 0.7499 -0.0902
Zn3D Zn -0.38484(3) 0.79565(8) -0.25416(4)
N3D N -0.3970(2) 0.5557(6) -0.2232(3)
H8D H -0.4178 0.5388 -0.2546
O3D O -0.3693(2) 0.7557(7) -0.1249(2)
Zn4D Zn -0.44640(3) 0.91192(8) -0.37755(4)
O4D O -0.26284(19) 0.6563(6) -0.0555(2)
N4D N -0.4419(3) -0.0741(6) -0.2692(3)
H11D H -0.4328 -0.1412 -0.2502
H12D H -0.4588 -0.0872 -0.3000
O5D O -0.2701(2) 0.6259(6) -0.1283(2)
N5D N -0.3684(2) 1.0339(6) -0.2830(3)
H16D H -0.3454 1.0464 -0.2512
C5D C -0.2275(3) 0.6421(8) -0.0843(3)
O6D O -0.38050(19) 0.6842(5) -0.2065(2)
C6D C -0.1820(3) 0.6478(9) -0.0732(4)
N6D N -0.3268(2) 1.6659(6) -0.2375(3)
H17D H -0.3089 1.6809 -0.2065
H18D H -0.3383 1.7319 -0.2577
O7D O -0.3531(2) 0.4824(5) -0.1467(2)
N7D N -0.5326(3) 1.0601(7) -0.4546(3)
H19D H -0.5530 1.1105 -0.4805
C7D C -0.1373(3) 0.7019(11) -0.0291(4)
H20D H -0.1352 0.7348 -0.0052
O8D O -0.3021(2) 0.8826(6) -0.1263(2)
C8D C -0.0989(3) 0.6621(8) -0.0561(3)
N8D N -0.6444(4) 1.4551(11) -0.4306(5)
H21D H -0.6398 1.4665 -0.4055
H22D H -0.6652 1.5050 -0.4566
O9D O -0.3227(2) 0.9186(5) -0.1952(2)
C9D C -0.1431(3) 0.6125(11) -0.1003(4)
H23D H -0.1455 0.5823 -0.1246
O10D O -0.4447(2) 0.6710(5) -0.3128(2)
C10D C -0.1842(3) 0.6070(11) -0.1089(4)
H24D H -0.2141 0.5751 -0.1394
O11D O -0.4694(2) 0.7197(6) -0.3839(3)
C11D C -0.3818(3) 0.4586(8) -0.1923(3)
O12D O -0.38959(19) 0.9095(5) -0.3018(2)
C12D C -0.4006(3) 0.3213(8) -0.2137(3)
O13D O -0.4141(2) 1.1136(5) -0.3601(2)
C13D C -0.4277(4) 0.2927(8) -0.2622(4)
H25D H -0.4372 0.3628 -0.2836
O14D O -0.50175(19) 0.9747(5) -0.4496(2)
C14D C -0.4414(3) 0.1636(9) -0.2807(4)
H26D H -0.4588 0.1471 -0.3136
O15D O -0.5013(2) 0.9915(6) -0.3823(3)
C15D C -0.4290(3) 0.0581(7) -0.2498(4)
O16D O -0.4021(2) 0.8380(6) -0.3847(2)
C16D C -0.4024(4) 0.0845(8) -0.2015(4)
H27D H -0.3937 0.0145 -0.1805
O17D O -0.4442(2) 0.8504(6) -0.4646(3)
C17D C -0.3878(3) 0.2166(8) -0.1828(4)
H28D H -0.3696 0.2334 -0.1496
C18D C -0.2952(3) 0.9334(9) -0.1500(3)
C19D C -0.2510(5) 1.0216(16) -0.1231(6)
H29D H -0.2459 1.0354 -0.1436
H30D H -0.2565 1.1065 -0.1161
H31D H -0.2221 0.9797 -0.0923
C20D C -0.4705(3) 0.6503(8) -0.3581(4)
C21D C -0.5042(4) 0.5307(10) -0.3824(4)
H32D H -0.4887 0.4580 -0.3832
H33D H -0.5106 0.5042 -0.3637
H34D H -0.5350 0.5534 -0.4159
C22D C -0.3827(3) 1.1335(7) -0.3129(3)
C23D C -0.3631(3) 1.2688(7) -0.2914(3)
C24D C -0.3320(3) 1.2952(7) -0.2417(4)
H35D H -0.3190 1.2241 -0.2196
C25D C -0.3193(3) 1.4255(7) -0.2234(3)
H36D H -0.2985 1.4408 -0.1896
C26D C -0.3375(3) 1.5321(7) -0.2553(3)
C27D C -0.3663(3) 1.5069(8) -0.3049(3)
H37D H -0.3773 1.5776 -0.3265
C28D C -0.3790(3) 1.3763(8) -0.3225(3)
H38D H -0.3987 1.3605 -0.3561
C29D C -0.5309(3) 1.0645(8) -0.4189(3)
C30D C -0.5639(3) 1.1628(9) -0.4255(4)
C31D C -0.5602(4) 1.1791(11) -0.3879(4)
H39D H -0.5395 1.1215 -0.3606
C32D C -0.5856(4) 1.2769(10) -0.3887(4)
H40D H -0.5801 1.2879 -0.3612
C33D C -0.6186(4) 1.3573(10) -0.4291(4)
C34D C -0.6240(5) 1.3443(13) -0.4694(5)
H41D H -0.6458 1.3996 -0.4973
C35D C -0.5964(5) 1.2479(13) -0.4663(5)
H42D H -0.5996 1.2399 -0.4924
C36D C -0.4086(3) 0.8116(9) -0.4200(4)
C37D C -0.3707(6) 0.7214(18) -0.4108(6)
H43D H -0.3876 0.6479 -0.4339
H44D H -0.3534 0.7727 -0.4154
H45D H -0.3472 0.6873 -0.3772
C38D C -0.0961(3) 0.7078(10) -0.0201(4)
H46D H -0.0663 0.7421 0.0100
O1F O 0.2536(2) 0.0638(5) 0.0318(3)
H1F H 0.2565 0.0623 0.0557
C3F C 0.2781(8) -0.0536(11) 0.0354(8)
H9F H 0.2648 -0.0716 0.0029
H10F H 0.3133 -0.0353 0.0586
C4F C 0.2711(7) -0.1773(15) 0.0528(6)
H13F H 0.2364 -0.1988 0.0289
H14F H 0.2888 -0.2516 0.0558
H15F H 0.2836 -0.1594 0.0846
Zn1B Zn -0.2500 0.7500 0.0000
O2F O 0.1742(2) 0.2591(6) -0.0443(2)
Zn3_2 Zn 0.38484(3) -0.79565(8) 0.25416(4)
Zn3_3 Zn 0.38484(3) 1.20435(8) 0.25416(4)
Zn3D_2 Zn -0.38484(3) -0.20435(8) -0.25416(4)
Zn3D_3 Zn -0.38484(3) 1.79565(8) -0.25416(4)
O4F O 0.23716(19) 0.1563(6) -0.0555(2)
N4_2 N 0.4419(3) 0.0741(6) 0.2692(3)
N4D_2 N -0.4419(3) 0.9259(6) -0.2692(3)
Zn5C Zn -0.5000 1.0000 -0.5000
Zn5C_2 Zn 0.5000 0.0000 0.5000
N6_2 N 0.3268(2) 0.3341(6) 0.2375(3)
N6D_2 N -0.3268(2) 0.6659(6) -0.2375(3)
O14C O -0.00175(19) 0.5253(5) 0.0504(2)
O14G O 0.00175(19) 0.4747(5) -0.0504(2)
O17C O 0.0558(2) 0.6496(6) 0.0354(3)
O17G O -0.0558(2) 0.3504(6) -0.0354(3)
O19? O 0.0007(9) 0.1127(16) -0.0309(7)
H53? H -0.0170 0.1269 -0.0606
C41? C -0.0082(18) 0.0018(19) -0.0260(11)
H54? H 0.0053 -0.0652 -0.0312
H55? H -0.0435 -0.0100 -0.0500
H56? H 0.0065 -0.0070 0.0071
C42? C 0.5000 1.335(2) 0.2500
H57? H 0.5032 1.3614 0.2284
H58? H 0.4652 1.3164 0.2291
O20? O 0.5281(6) 1.2158(16) 0.2761(7)
H59? H 0.5280 1.1699 0.2585
C43? C 0.5146(10) 1.431(4) 0.2802(12)
H60? H 0.5277 1.5024 0.2757
H61? H 0.5400 1.3991 0.3139
H62? H 0.4871 1.4640 0.2733
loop_
_geom_bond_atom_site_label_1
_geom_bond_atom_site_label_2
_geom_bond_site_symmetry_1
_geom_bond_site_symmetry_2
Zn1 O1 1_555 1_555
O1 H1 1_555 1_555
C1 O2 1_555 1_555
N1 H2 1_555 1_555
Zn2 O3 1_555 1_555
O2 Zn1 1_555 1_555
N2 H3 1_555 1_555
H4 N2 1_555 1_555
C2 C1 1_555 1_555
H5 C2 1_555 1_555
H6 C2 1_555 1_555
H7 C2 1_555 1_555
Zn3 O6 1_555 1_555
N3 H8 1_555 1_555
O3 C1 1_555 1_555
C3 O1 1_555 1_555
H9 C3 1_555 1_555
H10 C3 1_555 1_555
Zn4 O11 1_555 1_555
O4 Zn1 1_555 1_555
N4 H11 1_555 1_555
H12 N4 1_555 1_555
C4 C3 1_555 1_555
H13 C4 1_555 1_555
H14 C4 1_555 1_555
H15 C4 1_555 1_555
Zn5 N2 1_555 1_555
O5 Zn2 1_555 1_555
N5 H16 1_555 1_555
C5 N1 1_555 1_555
O6 Zn2 1_555 1_555
C6 C5 1_555 1_555
N6 H17 1_555 1_555
H18 N6 1_555 1_555
O7 Zn2 1_555 1_555
N7 H19 1_555 1_555
C7 C6 1_555 1_555
H20 C7 1_555 1_555
O8 Zn2 1_555 1_555
C8 N2 1_555 1_555
N8 H21 1_555 1_555
H22 N8 1_555 1_555
O9 Zn3 1_555 1_555
C9 C8 1_555 1_555
H23 C9 1_555 1_555
O10 Zn3 1_555 1_555
C10 C6 1_555 1_555
H24 C10 1_555 1_555
O11 C20 1_555 1_555
C11 N3 1_555 1_555
O12 Zn3 1_555 1_555
C12 C11 1_555 1_555
O13 Zn4 1_555 1_555
C13 C12 1_555 1_555
H25 C13 1_555 1_555
O14 Zn4 1_555 1_555
C14 C13 1_555 1_555
H26 C14 1_555 1_555
O15 Zn4 1_555 1_555
C15 N4 1_555 1_555
O16 Zn4 1_555 1_555
C16 C15 1_555 1_555
H27 C16 1_555 1_555
O17 C36 1_555 1_555
C17 C12 1_555 1_555
H28 C17 1_555 1_555
C18 O8 1_555 1_555
C19 C18 1_555 1_555
H29 C19 1_555 1_555
H30 C19 1_555 1_555
H31 C19 1_555 1_555
C20 O10 1_555 1_555
C21 C20 1_555 1_555
H32 C21 1_555 1_555
H33 C21 1_555 1_555
H34 C21 1_555 1_555
C22 N5 1_555 1_555
C23 C22 1_555 1_555
C24 C23 1_555 1_555
H35 C24 1_555 1_555
C25 C24 1_555 1_555
H36 C25 1_555 1_555
C26 N6 1_555 1_555
C27 C26 1_555 1_555
H37 C27 1_555 1_555
C28 C23 1_555 1_555
H38 C28 1_555 1_555
C29 N7 1_555 1_555
C30 C29 1_555 1_555
C31 C30 1_555 1_555
H39 C31 1_555 1_555
C32 C31 1_555 1_555
H40 C32 1_555 1_555
C33 N8 1_555 1_555
C34 C33 1_555 1_555
H41 C34 1_555 1_555
C35 C30 1_555 1_555
H42 C35 1_555 1_555
C36 O16 1_555 1_555
C37 C36 1_555 1_555
H43 C37 1_555 1_555
H44 C37 1_555 1_555
H45 C37 1_555 1_555
C38 C7 1_555 1_555
H46 C38 1_555 1_555
O18 H47 1_555 1_555
C39 O18 1_555 1_555
H48 C39 1_555 1_555
H49 C39 1_555 1_555
C40 C39 1_555 1_555
H50 C40 1_555 1_555
H51 C40 1_555 1_555
H52 C40 1_555 1_555
C1D O2D 1_555 1_555
N1D H2D 1_555 1_555
Zn2D O3D 1_555 1_555
O2D Zn1B 1_555 1_555
N2D Zn5 1_555 1_555
H3D N2D 1_555 1_555
H4D N2D 1_555 1_555
C2D C1D 1_555 1_555
H5D C2D 1_555 1_555
H6D C2D 1_555 1_555
H7D C2D 1_555 1_555
Zn3D O6D 1_555 1_555
N3D H8D 1_555 1_555
O3D C1D 1_555 1_555
Zn4D O11D 1_555 1_555
O4D N1D 1_555 1_555
N4D H11D 1_555 1_555
H12D N4D 1_555 1_555
O5D Zn2D 1_555 1_555
N5D H16D 1_555 1_555
C5D N1D 1_555 1_555
O6D Zn2D 1_555 1_555
C6D C5D 1_555 1_555
N6D H17D 1_555 1_555
H18D N6D 1_555 1_555
O7D Zn2D 1_555 1_555
N7D H19D 1_555 1_555
C7D C6D 1_555 1_555
H20D C7D 1_555 1_555
O8D Zn2D 1_555 1_555
C8D N2D 1_555 1_555
N8D H21D 1_555 1_555
H22D N8D 1_555 1_555
O9D Zn3D 1_555 1_555
C9D C8D 1_555 1_555
H23D C9D 1_555 1_555
O10D Zn3D 1_555 1_555
C10D C6D 1_555 1_555
H24D C10D 1_555 1_555
O11D C20D 1_555 1_555
C11D N3D 1_555 1_555
O12D Zn3D 1_555 1_555
C12D C11D 1_555 1_555
O13D Zn4D 1_555 1_555
C13D C12D 1_555 1_555
H25D C13D 1_555 1_555
O14D Zn4D 1_555 1_555
C14D C13D 1_555 1_555
H26D C14D 1_555 1_555
O15D Zn4D 1_555 1_555
C15D N4D 1_555 1_555
O16D Zn4D 1_555 1_555
C16D C15D 1_555 1_555
H27D C16D 1_555 1_555
O17D C36D 1_555 1_555
C17D C12D 1_555 1_555
H28D C17D 1_555 1_555
C18D O8D 1_555 1_555
C19D C18D 1_555 1_555
H29D C19D 1_555 1_555
H30D C19D 1_555 1_555
H31D C19D 1_555 1_555
C20D O10D 1_555 1_555
C21D C20D 1_555 1_555
H32D C21D 1_555 1_555
H33D C21D 1_555 1_555
H34D C21D 1_555 1_555
C22D N5D 1_555 1_555
C23D C22D 1_555 1_555
C24D C23D 1_555 1_555
H35D C24D 1_555 1_555
C25D C24D 1_555 1_555
H36D C25D 1_555 1_555
C26D N6D 1_555 1_555
C27D C26D 1_555 1_555
H37D C27D 1_555 1_555
C28D C23D 1_555 1_555
H38D C28D 1_555 1_555
C29D N7D 1_555 1_555
C30D C29D 1_555 1_555
C31D C30D 1_555 1_555
H39D C31D 1_555 1_555
C32D C31D 1_555 1_555
H40D C32D 1_555 1_555
C33D N8D 1_555 1_555
C34D C33D 1_555 1_555
H41D C34D 1_555 1_555
C35D C30D 1_555 1_555
H42D C35D 1_555 1_555
C36D O16D 1_555 1_555
C37D C36D 1_555 1_555
H43D C37D 1_555 1_555
H44D C37D 1_555 1_555
H45D C37D 1_555 1_555
C38D C7D 1_555 1_555
H46D C38D 1_555 1_555
O1F Zn1 1_555 1_555
H1F O1F 1_555 1_555
C3F O1F 1_555 1_555
H9F C3F 1_555 1_555
H10F C3F 1_555 1_555
C4F C3F 1_555 1_555
H13F C4F 1_555 1_555
H14F C4F 1_555 1_555
H15F C4F 1_555 1_555
Zn1B O4D 1_555 1_555
O2F Zn1 1_555 1_555
Zn3_2 N6 1_555 1_555
Zn3_3 N4 1_555 1_555
Zn3D_2 N4D 1_555 1_555
Zn3D_3 N6D 1_555 1_555
O4F Zn1 1_555 1_555
N4_2 Zn3 1_555 1_555
N4D_2 Zn3D 1_555 1_555
Zn5C O14D 1_555 1_555
Zn5C_2 O14 1_555 1_555
N6_2 Zn3 1_555 1_555
N6D_2 Zn3D 1_555 1_555
O14C Zn5 1_555 1_555
O14G Zn5 1_555 1_555
O17C Zn5 1_555 1_555
O17G Zn5 1_555 1_555
N1 O4 1_555 1_555
Zn2 O4 1_555 1_555
N3 O6 1_555 1_555
Zn4 O12 1_555 1_555
O5 C5 1_555 1_555
N5 O12 1_555 1_555
O7 C11 1_555 1_555
N7 O14 1_555 1_555
C8 C38 1_555 1_555
O9 C18 1_555 1_555
C9 C10 1_555 1_555
O13 C22 1_555 1_555
C14 C15 1_555 1_555
O15 C29 1_555 1_555
C16 C17 1_555 1_555
O17 Zn5C_2 1_555 1_555
C25 C26 1_555 1_555
C27 C28 1_555 1_555
C32 C33 1_555 1_555
C34 C35 1_555 1_555
Zn2D O4D 1_555 1_555
N3D O6D 1_555 1_555
Zn4D O12D 1_555 1_555
O5D C5D 1_555 1_555
N5D O12D 1_555 1_555
O7D C11D 1_555 1_555
N7D O14D 1_555 1_555
C8D C38D 1_555 1_555
O9D C18D 1_555 1_555
C9D C10D 1_555 1_555
O13D C22D 1_555 1_555
C14D C15D 1_555 1_555
O15D C29D 1_555 1_555
C16D C17D 1_555 1_555
O17D Zn5C 1_555 1_555
C25D C26D 1_555 1_555
C27D C28D 1_555 1_555
C32D C33D 1_555 1_555
C34D C35D 1_555 1_555

#END
