
#######################################################################
#
#                 Cambridge Crystallographic Data Centre
#                                CCDC 
#
#######################################################################
#
# If this CIF has been generated from an entry in the Cambridge 
# Structural Database, then it will include bibliographic, chemical, 
# crystal, experimental, refinement or atomic coordinate data resulting 
# from the CCDC's data processing and validation procedures.
#
#######################################################################

data_MOQSIV
_symmetry_cell_setting           orthorhombic
_symmetry_space_group_name_H-M   'C 2 2 21'
_symmetry_Int_Tables_number      20
_space_group_name_Hall           'C 2n 2'
loop_
_symmetry_equiv_pos_site_id
_symmetry_equiv_pos_as_xyz
1 x,y,z
2 -x,-y,1/2+z
3 x,-y,-z
4 -x,y,1/2-z
5 1/2+x,1/2+y,z
6 1/2-x,1/2-y,1/2+z
7 1/2+x,1/2-y,-z
8 1/2-x,1/2+y,1/2-z
_cell_length_a                   10.5903(18)
_cell_length_b                   24.536(4)
_cell_length_c                   20.907(3)
_cell_angle_alpha                90
_cell_angle_beta                 90
_cell_angle_gamma                90
_cell_volume                     5432.55
loop_
_atom_site_label
_atom_site_type_symbol
_atom_site_fract_x
_atom_site_fract_y
_atom_site_fract_z
Cd1 Cd 1.36368(5) 0.23240(2) 0.56434(2)
N1 N 1.2333(7) 0.2961(3) 0.6017(3)
N2 N 1.0725(7) 0.3549(3) 0.5994(3)
N3 N 0.2361(7) 0.6525(3) 0.9237(3)
N4 N 0.3903(7) 0.5932(3) 0.9294(4)
O1 O 1.4216(5) 0.2704(3) 0.4704(2)
O2 O 1.2411(5) 0.2276(2) 0.45882(19)
O3 O 1.0650(5) 0.3155(2) 0.4175(2)
O4 O 1.0043(5) 0.2497(2) 0.3540(2)
C1 C 1.3277(7) 0.2554(3) 0.4373(4)
C2 C 1.3258(6) 0.2724(3) 0.3682(3)
C3 C 1.4365(6) 0.2755(3) 0.3331(3)
H1 H 1.5125 0.2684 0.3538
C4 C 1.4397(7) 0.2888(3) 0.2682(3)
C5 C 1.3256(7) 0.3019(3) 0.2403(3)
H2 H 1.3244 0.3129 0.1978
C6 C 1.2135(7) 0.2991(3) 0.2734(3)
H3 H 1.1384 0.3070 0.2524
C7 C 1.2102(7) 0.2847(3) 0.3374(3)
C8 C 1.0845(8) 0.2834(4) 0.3723(3)
C9 C 1.1426(8) 0.3190(3) 0.5668(4)
H4 H 1.1291 0.3108 0.5239
C10 C 1.2185(9) 0.3194(3) 0.6600(4)
H5 H 1.2679 0.3114 0.6956
C11 C 1.1240(9) 0.3555(3) 0.6599(3)
H6 H 1.0979 0.3770 0.6941
C12 C 0.9684(8) 0.3877(3) 0.5730(4)
H7 H 0.9131 0.3643 0.5482
H8 H 1.0028 0.4151 0.5444
C13 C 0.8943(11) 0.4148(4) 0.6239(4)
C14 C 0.9367(9) 0.4646(4) 0.6487(4)
H9 H 1.0081 0.4814 0.6319
C15 C 0.8701(10) 0.4887(3) 0.6992(4)
H10 H 0.9012 0.5208 0.7169
C16 C 0.7586(10) 0.4666(4) 0.7242(5)
C17 C 0.7207(9) 0.4177(4) 0.6963(4)
H11 H 0.6470 0.4016 0.7115
C18 C 0.7856(10) 0.3910(4) 0.6470(4)
H12 H 0.7562 0.3582 0.6304
C19 C 0.3573(9) 0.6445(3) 0.9384(4)
H13 H 0.4114 0.6716 0.9530
C20 C 0.1935(10) 0.6014(4) 0.9056(4)
H14 H 0.1109 0.5939 0.8934
C21 C 0.2878(12) 0.5633(5) 0.9077(5)
H15 H 0.2840 0.5265 0.8973
C22 C 0.5121(10) 0.5698(4) 0.9408(5)
H16 H 0.5044 0.5427 0.9744
H17 H 0.5681 0.5982 0.9563
C23 C 0.5739(10) 0.5425(5) 0.8810(4)
C24 C 0.6306(12) 0.5738(4) 0.8358(5)
H18 H 0.6340 0.6115 0.8401
C25 C 0.6835(9) 0.5480(4) 0.7830(5)
H19 H 0.7167 0.5692 0.7502
C26 C 0.6882(9) 0.4925(4) 0.7778(4)
C27 C 0.6320(12) 0.4623(3) 0.8243(4)
H20 H 0.6330 0.4245 0.8211
C28 C 0.5737(11) 0.4861(4) 0.8760(5)
H21 H 0.5348 0.4648 0.9071
Cd1G Cd 0.13632(5) -0.26760(2) 0.93566(2)
Cd1G_2 Cd 0.13632(5) 0.73240(2) 0.93566(2)
Cd1F Cd 0.86368(5) 0.26760(2) 0.43566(2)
Cd1C Cd 1.63632(5) 0.23240(2) -0.06434(2)
Cd1E Cd 2.13632(5) 0.26760(2) 0.06434(2)
N1G N 0.2667(7) -0.2039(3) 0.8983(3)
N2G N 0.4275(7) -0.1451(3) 0.9006(3)
N3G N 1.2639(7) 0.1525(3) 0.5763(3)
N3_2 N 0.2361(7) -0.3475(3) 0.9237(3)
N4G N 1.1097(7) 0.0932(3) 0.5706(4)
O1C O 1.5784(5) 0.2704(3) 0.0296(2)
O1G O 0.0784(5) -0.2296(3) 1.0296(2)
O2C O 1.7589(5) 0.2276(2) 0.04118(19)
O2G O 0.2589(5) -0.2724(2) 1.04118(19)
O3C O 1.9350(5) 0.3155(2) 0.0825(2)
O3F O 1.5650(5) 0.1845(2) 0.5825(2)
O3A O -0.0650(5) -0.3155(2) 0.9175(2)
O4C O 1.9957(5) 0.2497(2) 0.1460(2)
O4F O 1.5043(5) 0.2503(2) 0.6460(2)
O4A O -0.0043(5) -0.2497(2) 0.8540(2)
C1C C 1.6723(7) 0.2554(3) 0.0627(4)
C2C C 1.6742(6) 0.2724(3) 0.1318(3)
C3C C 1.5635(6) 0.2755(3) 0.1669(3)
H1C H 1.4875 0.2684 0.1462
C4C C 1.5603(7) 0.2888(3) 0.2318(3)
C5C C 1.6744(7) 0.3019(3) 0.2597(3)
H2C H 1.6756 0.3129 0.3022
C6C C 1.7865(7) 0.2991(3) 0.2266(3)
H3C H 1.8616 0.3070 0.2476
C7C C 1.7898(7) 0.2847(3) 0.1626(3)
C8C C 1.9155(8) 0.2834(4) 0.1277(3)
C9G C 0.3574(8) -0.1810(3) 0.9332(4)
H4G H 0.3709 -0.1892 0.9761
C10G C 0.2815(9) -0.1806(3) 0.8400(4)
H5G H 0.2321 -0.1886 0.8044
C11G C 0.3760(9) -0.1445(3) 0.8401(3)
H6G H 0.4021 -0.1230 0.8059
C12G C 0.5316(8) -0.1123(3) 0.9270(4)
H7G H 0.5869 -0.1357 0.9518
H8G H 0.4972 -0.0849 0.9556
C13G C 0.6057(11) -0.0852(4) 0.8761(4)
C14G C 0.5633(9) -0.0354(4) 0.8513(4)
H9G H 0.4919 -0.0186 0.8681
C15G C 0.6299(10) -0.0113(3) 0.8008(4)
H10G H 0.5988 0.0208 0.7831
C16G C 0.7414(10) -0.0334(4) 0.7758(5)
C17G C 0.7793(9) -0.0823(4) 0.8037(4)
H11G H 0.8530 -0.0984 0.7885
C18G C 0.7144(10) -0.1090(4) 0.8530(4)
H12G H 0.7438 -0.1418 0.8696
C19G C 1.1427(9) 0.1445(3) 0.5616(4)
H13G H 1.0886 0.1716 0.5470
C20G C 1.3065(10) 0.1014(4) 0.5944(4)
H14G H 1.3891 0.0939 0.6066
C21G C 1.2122(12) 0.0633(5) 0.5923(5)
H15G H 1.2160 0.0265 0.6027
C22G C 0.9879(10) 0.0698(4) 0.5592(5)
H16G H 0.9956 0.0427 0.5256
H17G H 0.9319 0.0982 0.5437
C23G C 0.9261(10) 0.0425(5) 0.6190(4)
C24G C 0.8694(12) 0.0738(4) 0.6642(5)
H18G H 0.8660 0.1115 0.6599
C25G C 0.8165(9) 0.0480(4) 0.7170(5)
H19G H 0.7833 0.0692 0.7498
C26G C 0.8118(9) -0.0075(4) 0.7222(4)
C27G C 0.8680(12) -0.0377(3) 0.6757(4)
H20G H 0.8670 -0.0755 0.6789
C28G C 0.9263(11) -0.0139(4) 0.6240(5)
H21G H 0.9652 -0.0352 0.5929
O5 O 0.5000 0.6779(4) 0.2500
H22 H 0.528(11) 0.693(4) 0.284(3)
H22C H 0.472(11) 0.693(4) 0.216(3)
O6 O 0.127(2) 0.4354(8) 0.4402(12)
loop_
_geom_bond_atom_site_label_1
_geom_bond_atom_site_label_2
_geom_bond_site_symmetry_1
_geom_bond_site_symmetry_2
Cd1 N1 1_555 1_555
N1 C9 1_555 1_555
N2 C9 1_555 1_555
N3 C19 1_555 1_555
N4 C19 1_555 1_555
O1 Cd1 1_555 1_555
O2 Cd1 1_555 1_555
O3 C8 1_555 1_555
O4 C8 1_555 1_555
O5 H22 1_555 1_555
C1 O1 1_555 1_555
C2 C1 1_555 1_555
C3 C2 1_555 1_555
H1 C3 1_555 1_555
C4 C3 1_555 1_555
C5 C4 1_555 1_555
H2 C5 1_555 1_555
C6 C5 1_555 1_555
H3 C6 1_555 1_555
C7 C2 1_555 1_555
C8 C7 1_555 1_555
C9 H4 1_555 1_555
C10 N1 1_555 1_555
H5 C10 1_555 1_555
C11 N2 1_555 1_555
H6 C11 1_555 1_555
C12 N2 1_555 1_555
H7 C12 1_555 1_555
H8 C12 1_555 1_555
C13 C12 1_555 1_555
C14 C13 1_555 1_555
H9 C14 1_555 1_555
C15 C14 1_555 1_555
H10 C15 1_555 1_555
C16 C15 1_555 1_555
C17 C16 1_555 1_555
H11 C17 1_555 1_555
C18 C13 1_555 1_555
H12 C18 1_555 1_555
C19 H13 1_555 1_555
C20 N3 1_555 1_555
H14 C20 1_555 1_555
C21 N4 1_555 1_555
H15 C21 1_555 1_555
C22 N4 1_555 1_555
H16 C22 1_555 1_555
H17 C22 1_555 1_555
C23 C22 1_555 1_555
C24 C23 1_555 1_555
H18 C24 1_555 1_555
C25 C24 1_555 1_555
H19 C25 1_555 1_555
C26 C16 1_555 1_555
C27 C26 1_555 1_555
H20 C27 1_555 1_555
C28 C23 1_555 1_555
H21 C28 1_555 1_555
Cd1G N1G 1_555 1_555
Cd1G_2 N3 1_555 1_555
Cd1F O3 1_555 1_555
Cd1C O1C 1_555 1_555
Cd1E O3C 1_555 1_555
N1G C9G 1_555 1_555
N2G C9G 1_555 1_555
N3G Cd1 1_555 1_555
N3_2 Cd1G 1_555 1_555
N4G C19G 1_555 1_555
O1C C1C 1_555 1_555
O1G Cd1G 1_555 1_555
O2C Cd1C 1_555 1_555
O2G Cd1G 1_555 1_555
O3C C8C 1_555 1_555
O3F Cd1 1_555 1_555
O3A Cd1G 1_555 1_555
O4C Cd1E 1_555 1_555
O4F Cd1 1_555 1_555
O4A Cd1G 1_555 1_555
C1C O2C 1_555 1_555
C2C C1C 1_555 1_555
C3C C2C 1_555 1_555
H1C C3C 1_555 1_555
C4C C4 1_555 1_555
C5C C4C 1_555 1_555
H2C C5C 1_555 1_555
C6C C5C 1_555 1_555
H3C C6C 1_555 1_555
C7C C2C 1_555 1_555
C8C O4C 1_555 1_555
C9G H4G 1_555 1_555
C10G N1G 1_555 1_555
H5G C10G 1_555 1_555
C11G N2G 1_555 1_555
H6G C11G 1_555 1_555
C12G N2G 1_555 1_555
H7G C12G 1_555 1_555
H8G C12G 1_555 1_555
C13G C12G 1_555 1_555
C14G C13G 1_555 1_555
H9G C14G 1_555 1_555
C15G C14G 1_555 1_555
H10G C15G 1_555 1_555
C16G C15G 1_555 1_555
C17G C16G 1_555 1_555
H11G C17G 1_555 1_555
C18G C13G 1_555 1_555
H12G C18G 1_555 1_555
C19G N3G 1_555 1_555
H13G C19G 1_555 1_555
C20G N3G 1_555 1_555
H14G C20G 1_555 1_555
C21G N4G 1_555 1_555
H15G C21G 1_555 1_555
C22G N4G 1_555 1_555
H16G C22G 1_555 1_555
H17G C22G 1_555 1_555
C23G C22G 1_555 1_555
C24G C23G 1_555 1_555
H18G C24G 1_555 1_555
C25G C24G 1_555 1_555
H19G C25G 1_555 1_555
C26G C16G 1_555 1_555
C27G C26G 1_555 1_555
H20G C27G 1_555 1_555
C28G C23G 1_555 1_555
H21G C28G 1_555 1_555
H22C O5 1_555 1_555
O2 C1 1_555 1_555
O4 Cd1F 1_555 1_555
C6 C7 1_555 1_555
C10 C11 1_555 1_555
C17 C18 1_555 1_555
C20 C21 1_555 1_555
C25 C26 1_555 1_555
C27 C28 1_555 1_555
C3C C4C 1_555 1_555
C6C C7C 1_555 1_555
C7C C8C 1_555 1_555
C10G C11G 1_555 1_555
C17G C18G 1_555 1_555
C20G C21G 1_555 1_555
C25G C26G 1_555 1_555
C27G C28G 1_555 1_555

#END
