
#######################################################################
#
#                 Cambridge Crystallographic Data Centre
#                                CCDC 
#
#######################################################################
#
# If this CIF has been generated from an entry in the Cambridge 
# Structural Database, then it will include bibliographic, chemical, 
# crystal, experimental, refinement or atomic coordinate data resulting 
# from the CCDC's data processing and validation procedures.
#
#######################################################################

data_MOSBIG
_symmetry_cell_setting           orthorhombic
_symmetry_space_group_name_H-M   'P n m a'
_symmetry_Int_Tables_number      62
_space_group_name_Hall           '-P 2ac 2n'
loop_
_symmetry_equiv_pos_site_id
_symmetry_equiv_pos_as_xyz
1 x,y,z
2 1/2-x,-y,1/2+z
3 1/2+x,1/2-y,1/2-z
4 -x,1/2+y,-z
5 -x,-y,-z
6 1/2+x,y,1/2-z
7 1/2-x,1/2+y,1/2+z
8 x,1/2-y,z
_cell_length_a                   8.0154(9)
_cell_length_b                   30.175(3)
_cell_length_c                   15.3220(17)
_cell_angle_alpha                90
_cell_angle_beta                 90
_cell_angle_gamma                90
_cell_volume                     3705.85
loop_
_atom_site_label
_atom_site_type_symbol
_atom_site_fract_x
_atom_site_fract_y
_atom_site_fract_z
O8 O -0.065(3) 0.7045(8) 0.4321(16)
N4 N -0.201(2) 0.7500 0.5310(11)
C15 C -0.114(3) 0.7500 0.4574(19)
C16 C -0.2543(17) 0.7918(4) 0.5719(11)
O8G O -0.065(3) 0.7955(8) 0.4321(16)
C16G C -0.2543(17) 0.7082(4) 0.5719(11)
O9 O 0.668(3) 0.8407(7) 0.1664(12)
O11 O 0.409(4) 0.2821(11) 0.770(3)
Eu1 Eu 0.43541(6) 0.907173(16) 0.70442(4)
O1 O 0.2542(9) 0.9599(2) 0.6500(5)
O2 O 0.0012(10) 0.9699(2) 0.7088(5)
O3 O 0.3919(9) 1.0420(2) 0.3850(5)
O4 O 0.2360(9) 1.0969(2) 0.3372(5)
O5 O 0.1568(9) 0.8692(2) 0.6831(4)
O6 O -0.0123(10) 0.8305(2) 0.7695(5)
O7 O 0.4369(9) 0.8825(2) 0.5541(5)
N1 N -0.0730(12) 1.0824(3) 0.5603(7)
N2 N 0.2915(16) 0.7500 0.5531(8)
N3 N 0.4796(17) 0.8944(4) 0.4104(8)
C1 C 0.1171(14) 0.9800(3) 0.6582(8)
C2 C 0.0926(13) 1.0195(3) 0.6002(7)
C3 C -0.0414(13) 1.0484(3) 0.6114(8)
H1 H -0.1146 1.0432 0.6590
C4 C 0.0252(14) 1.0874(3) 0.4908(7)
H2 H 0.0000 1.1106 0.4511
C5 C 0.1622(13) 1.0606(3) 0.4727(7)
C6 C 0.1975(14) 1.0268(3) 0.5298(7)
H3 H 0.2929 1.0086 0.5211
C7 C 0.2682(15) 1.0662(3) 0.3941(8)
C8 C 0.0943(14) 0.8320(3) 0.7100(8)
C9 C 0.1480(14) 0.7896(3) 0.6686(8)
C10 C 0.2420(13) 0.7877(3) 0.5917(8)
H4 H 0.2730 0.8149 0.5650
C11 C 0.0997(18) 0.7500 0.7046(10)
H5 H 0.0318 0.7500 0.7554
C12 C 0.4392(15) 0.9059(4) 0.4869(9)
H6 H 0.4068 0.9360 0.4941
C13 C 0.4784(17) 0.9266(6) 0.3360(10)
H7 H 0.4361 0.9553 0.3563
H8 H 0.5921 0.9303 0.3136
H9 H 0.4061 0.9154 0.2894
C14 C 0.591(3) 0.8562(7) 0.3932(14)
H10 H 0.5890 0.8361 0.4434
H11 H 0.5527 0.8404 0.3410
H12 H 0.7052 0.8668 0.3839
Eu1E Eu 0.93541(6) 0.907173(16) 0.79558(4)
Eu1E_2 Eu -0.06459(6) 0.907173(16) 0.79558(4)
Eu1D Eu 0.56459(6) 1.092827(16) 0.29558(4)
Eu1A Eu 0.06459(6) 1.092827(16) 0.20442(4)
Eu1G Eu 0.43541(6) 0.592827(16) 0.70442(4)
Eu1B Eu -0.06459(6) 0.592827(16) 0.79558(4)
Eu1A_2 Eu 1.06459(6) 1.092827(16) 1.20442(4)
Eu1D_2 Eu 0.56459(6) 1.092827(16) 1.29558(4)
O1E O 0.7542(9) 0.9599(2) 0.8500(5)
O2E O 0.5012(10) 0.9699(2) 0.7912(5)
O2_2 O 1.0012(10) 0.9699(2) 0.7088(5)
O3E O 0.8919(9) 1.0420(2) 1.1150(5)
O3D O 0.6081(9) 0.9580(2) 0.6150(5)
O3A O 1.1081(9) 0.9580(2) 0.8850(5)
O4E O 0.7360(9) 1.0969(2) 1.1628(5)
O4A O 0.2640(9) 0.9031(2) 0.8372(5)
O4D O 0.7640(9) 0.9031(2) 0.6628(5)
O5G O 0.1568(9) 0.6308(2) 0.6831(4)
O5E O 0.6568(9) 0.8692(2) 0.8169(4)
O6G O -0.0123(10) 0.6695(2) 0.7695(5)
O6E O 0.4877(10) 0.8305(2) 0.7305(5)
O6_2 O 0.9877(10) 0.8305(2) 0.7695(5)
O7E O 0.9369(9) 0.8825(2) 0.9459(5)
N1E N 0.4270(12) 1.0824(3) 0.9397(7)
N3E N 0.9796(17) 0.8944(4) 1.0896(8)
C1E C 0.6171(14) 0.9800(3) 0.8418(8)
C2E C 0.5926(13) 1.0195(3) 0.8998(7)
C3E C 0.4586(13) 1.0484(3) 0.8886(8)
H1E H 0.3854 1.0432 0.8410
C4E C 0.5252(14) 1.0874(3) 1.0092(7)
H2E H 0.5000 1.1106 1.0489
C5E C 0.6622(13) 1.0606(3) 1.0273(7)
C6E C 0.6975(14) 1.0268(3) 0.9702(7)
H3E H 0.7929 1.0086 0.9789
C7E C 0.7682(15) 1.0662(3) 1.1059(8)
C8G C 0.0943(14) 0.6680(3) 0.7100(8)
C9G C 0.1480(14) 0.7104(3) 0.6686(8)
C10G C 0.2420(13) 0.7123(3) 0.5917(8)
H4G H 0.2730 0.6851 0.5650
C12E C 0.9392(15) 0.9059(4) 1.0131(9)
H6E H 0.9068 0.9360 1.0059
C13E C 0.9784(17) 0.9266(6) 1.1640(10)
H7E H 0.9361 0.9553 1.1437
H8E H 1.0921 0.9303 1.1864
H9E H 0.9061 0.9154 1.2106
C14E C 1.091(3) 0.8562(7) 1.1068(14)
H10E H 1.0890 0.8361 1.0566
H11E H 1.0527 0.8404 1.1590
H12E H 1.2052 0.8668 1.1161
O10? O 0.657(3) 0.2351(5) 0.6341(13)
C17? C 0.425(6) 0.6590(12) 0.388(3)
H13? H 0.3052 0.6606 0.3772
H14? H 0.4864 0.6693 0.3368
H15? H 0.4534 0.6777 0.4385
loop_
_geom_bond_atom_site_label_1
_geom_bond_atom_site_label_2
_geom_bond_site_symmetry_1
_geom_bond_site_symmetry_2
Eu1 O1 1_555 1_555
O1 C1 1_555 1_555
O2 C1 1_555 1_555
O3 C7 1_555 1_555
O4 C7 1_555 1_555
O5 Eu1 1_555 1_555
O6 C8 1_555 1_555
O7 Eu1 1_555 1_555
O8 C15 1_555 1_555
N1 C3 1_555 1_555
N2 C10 1_555 1_555
N3 C12 1_555 1_555
N4 C15 1_555 1_555
C1 C2 1_555 1_555
C2 C3 1_555 1_555
C3 H1 1_555 1_555
C4 N1 1_555 1_555
H2 C4 1_555 1_555
C5 C4 1_555 1_555
C6 C2 1_555 1_555
H3 C6 1_555 1_555
C7 C5 1_555 1_555
C8 O5 1_555 1_555
C9 C8 1_555 1_555
C10 C9 1_555 1_555
H4 C10 1_555 1_555
C11 C9 1_555 1_555
H5 C11 1_555 1_555
C12 O7 1_555 1_555
H6 C12 1_555 1_555
C13 N3 1_555 1_555
H7 C13 1_555 1_555
H8 C13 1_555 1_555
H9 C13 1_555 1_555
C14 N3 1_555 1_555
H10 C14 1_555 1_555
H11 C14 1_555 1_555
H12 C14 1_555 1_555
C15 O8G 1_555 1_555
C16 N4 1_555 1_555
Eu1E O1E 1_555 1_555
Eu1E_2 O2 1_555 1_555
Eu1D O3 1_555 1_555
Eu1A O4 1_555 1_555
Eu1G O5G 1_555 1_555
Eu1B O6G 1_555 1_555
Eu1A_2 O3E 1_555 1_555
Eu1D_2 O4E 1_555 1_555
O1E C1E 1_555 1_555
O2E Eu1 1_555 1_555
O2_2 Eu1E 1_555 1_555
O3E C7E 1_555 1_555
O3D Eu1 1_555 1_555
O3A Eu1E 1_555 1_555
O4E C7E 1_555 1_555
O4A Eu1 1_555 1_555
O4D Eu1E 1_555 1_555
O5G C8G 1_555 1_555
O5E Eu1E 1_555 1_555
O6G C8G 1_555 1_555
O6E Eu1 1_555 1_555
O6_2 Eu1E 1_555 1_555
O7E Eu1E 1_555 1_555
N1E C3E 1_555 1_555
N3E C12E 1_555 1_555
C1E O2E 1_555 1_555
C2E C1E 1_555 1_555
C3E C2E 1_555 1_555
H1E C3E 1_555 1_555
C4E N1E 1_555 1_555
H2E C4E 1_555 1_555
C5E C4E 1_555 1_555
C6E C2E 1_555 1_555
H3E C6E 1_555 1_555
C7E C5E 1_555 1_555
C8G C9G 1_555 1_555
C9G C11 1_555 1_555
C10G N2 1_555 1_555
H4G C10G 1_555 1_555
C12E O7E 1_555 1_555
H6E C12E 1_555 1_555
C13E N3E 1_555 1_555
H7E C13E 1_555 1_555
H8E C13E 1_555 1_555
H9E C13E 1_555 1_555
C14E N3E 1_555 1_555
H10E C14E 1_555 1_555
H11E C14E 1_555 1_555
H12E C14E 1_555 1_555
C16G N4 1_555 1_555
O6 Eu1E_2 1_555 1_555
C5 C6 1_555 1_555
C5E C6E 1_555 1_555
C9G C10G 1_555 1_555

#END
