
#######################################################################
#
#                 Cambridge Crystallographic Data Centre
#                                CCDC 
#
#######################################################################
#
# If this CIF has been generated from an entry in the Cambridge 
# Structural Database, then it will include bibliographic, chemical, 
# crystal, experimental, refinement or atomic coordinate data resulting 
# from the CCDC's data processing and validation procedures.
#
#######################################################################

data_MOTTUM
_symmetry_cell_setting           monoclinic
_symmetry_space_group_name_H-M   'P 21/c'
_symmetry_Int_Tables_number      14
_space_group_name_Hall           '-P 2ybc'
loop_
_symmetry_equiv_pos_site_id
_symmetry_equiv_pos_as_xyz
1 x,y,z
2 -x,1/2+y,1/2-z
3 -x,-y,-z
4 x,1/2-y,1/2+z
_cell_length_a                   16.1381(14)
_cell_length_b                   12.0964(10)
_cell_length_c                   13.2516(11)
_cell_angle_alpha                90
_cell_angle_beta                 90.2860(10)
_cell_angle_gamma                90
_cell_volume                     2586.85
loop_
_atom_site_label
_atom_site_type_symbol
_atom_site_fract_x
_atom_site_fract_y
_atom_site_fract_z
Zn1 Zn 0.738021(13) 1.090491(18) 0.254775(15)
O1 O 0.67421(8) 1.01171(11) 0.36424(10)
O2 O 0.60379(9) 0.97428(12) 0.22406(10)
O3 O 0.36983(8) 0.72688(12) 0.22848(10)
O4 O 0.31165(8) 0.67000(11) 0.36842(10)
O5 O 0.51254(9) 0.82558(13) 0.63857(10)
H1 H 0.4703(17) 0.803(2) 0.664(2)
O6 O 0.79599(8) 0.96211(12) 0.19037(10)
O7 O 0.87303(10) 0.93978(15) 0.32888(11)
O8 O 1.11608(8) 0.68640(13) 0.30519(10)
O9 O 1.18568(8) 0.68410(11) 0.16197(10)
O10 O 0.98357(9) 0.85827(13) -0.09048(10)
H2 H 1.0254(16) 0.839(2) -0.1166(19)
C1 C 0.61355(11) 0.96830(15) 0.31740(14)
C2 C 0.55180(11) 0.90449(15) 0.37868(14)
C3 C 0.55975(11) 0.89363(16) 0.48273(14)
H3 H 0.6017(13) 0.9301(17) 0.5178(15)
C4 C 0.50246(12) 0.83180(16) 0.53637(14)
C5 C 0.43796(12) 0.77795(16) 0.48656(14)
H4 H 0.4010(14) 0.7366(18) 0.5229(16)
C6 C 0.43095(11) 0.78771(15) 0.38190(14)
C7 C 0.48696(11) 0.85225(16) 0.32880(14)
H5 H 0.4805(12) 0.8603(17) 0.2594(16)
C8 C 0.36691(11) 0.72498(15) 0.32291(14)
C9 C 0.86149(12) 0.93062(16) 0.23696(15)
C10 C 0.92809(11) 0.87920(15) 0.17350(14)
C11 C 0.99245(11) 0.82215(16) 0.22006(14)
H6 H 0.9943(13) 0.8160(18) 0.2930(17)
C12 C 1.05428(11) 0.77417(15) 0.16221(14)
C13 C 1.05254(12) 0.78459(16) 0.05719(14)
H7 H 1.0951(13) 0.7541(17) 0.0157(15)
C14 C 0.98881(11) 0.84346(17) 0.01098(14)
C15 C 0.92655(12) 0.89040(16) 0.06933(14)
H8 H 0.8839(13) 0.9341(17) 0.0383(15)
C16 C 1.12231(11) 0.71107(16) 0.21434(14)
Zn1A Zn 0.261979(13) 0.590491(18) 0.245225(15)
Zn1A_2 Zn 1.261979(13) 0.590491(18) 0.245225(15)
O3A O 0.63017(8) 1.22688(12) 0.27152(10)
O4A O 0.68835(8) 1.17000(11) 0.13158(10)
O9A O 0.81432(8) 1.18410(11) 0.33803(10)
N1 N 0.66134(16) 0.5891(2) 0.52966(17)
H9 H 0.656(2) 0.555(3) 0.595(3)
N2 N 0.67242(15) 0.7283(2) 0.24910(15)
H10 H 0.6264(17) 0.710(2) 0.204(2)
H11 H 0.711(2) 0.781(3) 0.242(2)
C17 C 0.71763(18) 0.6673(3) 0.51112(19)
H12 H 0.7557(18) 0.686(2) 0.566(2)
C18 C 0.72339(16) 0.7157(2) 0.41885(18)
H13 H 0.7639(16) 0.772(2) 0.4026(19)
C19 C 0.66873(14) 0.68225(19) 0.34133(16)
C20 C 0.61139(17) 0.5991(2) 0.3629(2)
H14 H 0.5736(16) 0.573(2) 0.317(2)
C21 C 0.6096(2) 0.5543(3) 0.4575(2)
H15 H 0.5697(17) 0.499(2) 0.474(2)
N3 N 0.82398(12) 0.49790(17) 0.01536(14)
H16 H 0.8221(16) 0.499(2) -0.048(2)
N4 N 0.84538(13) 0.51478(16) 0.32200(13)
H17 H 0.8130(14) 0.4778(19) 0.3607(17)
H18 H 0.8849(16) 0.548(2) 0.3463(18)
C22 C 0.88737(15) 0.5526(2) 0.05730(17)
H19 H 0.9243(16) 0.586(2) 0.013(2)
C23 C 0.89678(14) 0.5591(2) 0.15851(17)
H20 H 0.9403(15) 0.596(2) 0.1850(19)
C24 C 0.83831(12) 0.50819(16) 0.22248(15)
C25 C 0.77295(13) 0.45039(18) 0.17537(16)
H21 H 0.7352(14) 0.4150(18) 0.2101(17)
C26 C 0.76737(14) 0.4471(2) 0.07346(17)
H22 H 0.7259(15) 0.409(2) 0.0365(18)
O11 O 0.74250(10) 0.37012(14) 0.43462(13)
H23 H 0.7315(16) 0.359(2) 0.496(2)
H24 H 0.7582(18) 0.309(3) 0.410(2)
loop_
_geom_bond_atom_site_label_1
_geom_bond_atom_site_label_2
_geom_bond_site_symmetry_1
_geom_bond_site_symmetry_2
Zn1 O1 1_555 1_555
O1 C1 1_555 1_555
O2 C1 1_555 1_555
O3 C8 1_555 1_555
O4 C8 1_555 1_555
O5 H1 1_555 1_555
O6 Zn1 1_555 1_555
O7 C9 1_555 1_555
O8 C16 1_555 1_555
O9 C16 1_555 1_555
O10 H2 1_555 1_555
C1 C2 1_555 1_555
C2 C3 1_555 1_555
C3 H3 1_555 1_555
C4 O5 1_555 1_555
C5 C4 1_555 1_555
H4 C5 1_555 1_555
C6 C5 1_555 1_555
C7 C2 1_555 1_555
H5 C7 1_555 1_555
C8 C6 1_555 1_555
C9 O6 1_555 1_555
C10 C9 1_555 1_555
C11 C10 1_555 1_555
H6 C11 1_555 1_555
C12 C11 1_555 1_555
C13 C12 1_555 1_555
H7 C13 1_555 1_555
C14 O10 1_555 1_555
C15 C10 1_555 1_555
H8 C15 1_555 1_555
C16 C12 1_555 1_555
N1 H9 1_555 1_555
N2 H10 1_555 1_555
H11 N2 1_555 1_555
C17 N1 1_555 1_555
H12 C17 1_555 1_555
C18 C17 1_555 1_555
H13 C18 1_555 1_555
C19 N2 1_555 1_555
C20 C19 1_555 1_555
H14 C20 1_555 1_555
C21 N1 1_555 1_555
H15 C21 1_555 1_555
N3 H16 1_555 1_555
N4 H17 1_555 1_555
H18 N4 1_555 1_555
C22 N3 1_555 1_555
H19 C22 1_555 1_555
C23 C22 1_555 1_555
H20 C23 1_555 1_555
C24 N4 1_555 1_555
C25 C24 1_555 1_555
H21 C25 1_555 1_555
C26 N3 1_555 1_555
H22 C26 1_555 1_555
O11 H23 1_555 1_555
H24 O11 1_555 1_555
Zn1A O3 1_555 1_555
Zn1A_2 O9 1_555 1_555
O3A Zn1 1_555 1_555
O4A Zn1 1_555 1_555
O9A Zn1 1_555 1_555
O4 Zn1A 1_555 1_555
C3 C4 1_555 1_555
C6 C7 1_555 1_555
C13 C14 1_555 1_555
C14 C15 1_555 1_555
C18 C19 1_555 1_555
C20 C21 1_555 1_555
C23 C24 1_555 1_555
C25 C26 1_555 1_555

#END
