
#######################################################################
#
#                 Cambridge Crystallographic Data Centre
#                                CCDC 
#
#######################################################################
#
# If this CIF has been generated from an entry in the Cambridge 
# Structural Database, then it will include bibliographic, chemical, 
# crystal, experimental, refinement or atomic coordinate data resulting 
# from the CCDC's data processing and validation procedures.
#
#######################################################################

data_MOXDOT01
_symmetry_cell_setting           monoclinic
_symmetry_space_group_name_H-M   'P 2/c'
_symmetry_Int_Tables_number      13
_space_group_name_Hall           '-P 2yc'
loop_
_symmetry_equiv_pos_site_id
_symmetry_equiv_pos_as_xyz
1 x,y,z
2 -x,y,1/2-z
3 -x,-y,-z
4 x,-y,1/2+z
_cell_length_a                   22.550(10)
_cell_length_b                   14.187(7)
_cell_length_c                   25.681(12)
_cell_angle_alpha                90
_cell_angle_beta                 92.096(9)
_cell_angle_gamma                90
_cell_volume                     8210.29
loop_
_atom_site_label
_atom_site_type_symbol
_atom_site_fract_x
_atom_site_fract_y
_atom_site_fract_z
C1 C -0.027655(18) 0.70298(3) 0.061246(15)
C2 C -0.130923(5) 0.690070(8) 0.022962(6)
H1 H -0.1161 0.6657 -0.0076
C3 C -0.191537(5) 0.705007(9) 0.026709(6)
H2 H -0.2173 0.6907 -0.0013
C4 C -0.213714(5) 0.741401(12) 0.072329(7)
C5 C -0.175277(7) 0.762858(16) 0.114201(7)
H3 H -0.1901 0.7872 0.1447
C6 C -0.114663(6) 0.747922(15) 0.110454(6)
H4 H -0.0889 0.7623 0.1385
C7 C -0.092485(5) 0.711528(11) 0.064835(6)
C8 C -0.403392(6) 0.790764(18) 0.068251(12)
C9 C -0.370462(5) 0.809233(15) 0.024695(11)
H5 H -0.3891 0.8326 -0.0055
C10 C -0.309650(5) 0.792836(12) 0.026305(10)
H6 H -0.2876 0.8052 -0.0028
C11 C -0.281770(6) 0.757977(13) 0.071474(8)
C12 C -0.314700(7) 0.739509(18) 0.115032(9)
H7 H -0.2960 0.7162 0.1453
C13 C -0.375511(7) 0.75590(2) 0.113424(11)
H8 H -0.3975 0.7435 0.1426
C14 C -0.472042(12) 0.78881(3) 0.06567(2)
C15 C 0.154010(13) 1.17565(2) 0.516550(11)
C16 C 0.154860(5) 1.124270(9) 0.463850(4)
C17 C 0.202490(5) 1.066610(9) 0.452410(4)
H9 H 0.2343 1.0605 0.4762
C18 C 0.202500(6) 1.018050(10) 0.405400(4)
H10 H 0.2344 0.9795 0.3978
C19 C 0.154890(6) 1.027150(10) 0.369830(4)
C20 C 0.107260(6) 1.084820(10) 0.381270(4)
H11 H 0.0754 1.0909 0.3575
C21 C 0.107250(5) 1.133380(9) 0.428280(4)
H12 H 0.0754 1.1720 0.4359
C22 C 0.156200(8) 0.971440(12) 0.321460(5)
C23 C 0.210000(9) 0.961530(14) 0.293760(5)
H13 H 0.2443 0.9888 0.3082
C24 C 0.214080(11) 0.915600(16) 0.248390(6)
H14 H 0.2504 0.9092 0.2328
C25 C 0.160260(12) 0.875970(16) 0.224040(6)
C26 C 0.106560(11) 0.891550(15) 0.247870(6)
H15 H 0.0719 0.8690 0.2316
C27 C 0.102580(9) 0.941020(13) 0.296500(5)
H16 H 0.0661 0.9526 0.3110
C28 C 0.160650(14) 0.82206(2) 0.173100(13)
C29 C 0.350960(12) -0.070690(18) 0.105050(12)
C30 C 0.321730(4) 0.024780(7) 0.111380(4)
C31 C 0.355630(5) 0.104100(7) 0.123620(5)
H17 H 0.3964 0.0984 0.1297
C32 C 0.328610(5) 0.191880(7) 0.126760(5)
H18 H 0.3513 0.2450 0.1349
C33 C 0.267700(5) 0.200340(7) 0.117670(5)
C34 C 0.233800(5) 0.121010(7) 0.105440(6)
H19 H 0.1930 0.1267 0.0994
C35 C 0.260810(4) 0.033230(7) 0.102290(5)
H20 H 0.2381 -0.0198 0.0941
C36 C 0.240070(6) 0.298640(7) 0.116020(7)
C37 C 0.272360(7) 0.375960(7) 0.101850(7)
H21 H 0.3124 0.3684 0.0953
C38 C 0.246660(8) 0.467040(7) 0.096810(8)
H22 H 0.2688 0.5185 0.0863
C39 C 0.189120(8) 0.476210(8) 0.107740(10)
C40 C 0.158310(7) 0.396990(9) 0.122800(10)
H23 H 0.1186 0.4044 0.1303
C41 C 0.181980(6) 0.308870(8) 0.127390(9)
H24 H 0.1594 0.2579 0.1378
C42 C 0.158280(12) 0.568510(18) 0.102120(12)
C43 C 0.354070(11) -0.32937(2) 0.171860(11)
C44 C 0.354390(5) -0.382390(8) 0.223270(4)
C45 C 0.405250(5) -0.391650(9) 0.255100(4)
H25 H 0.4408 -0.3654 0.2450
C46 C 0.402940(5) -0.440170(10) 0.302000(4)
H26 H 0.4370 -0.4464 0.3233
C47 C 0.349760(6) -0.479430(10) 0.317080(4)
C48 C 0.298900(6) -0.470170(10) 0.285260(4)
H27 H 0.2633 -0.4964 0.2953
C49 C 0.301220(5) -0.421650(9) 0.238350(4)
H28 H 0.2672 -0.4155 0.2171
C50 C 0.347920(8) -0.534540(11) 0.366930(4)
C51 C 0.297720(8) -0.530090(13) 0.397040(5)
H29 H 0.2644 -0.4964 0.3856
C52 C 0.298770(10) -0.576740(15) 0.443990(5)
H30 H 0.2658 -0.5717 0.4645
C53 C 0.345820(11) -0.630370(15) 0.462230(5)
C54 C 0.391180(11) -0.636730(14) 0.430160(6)
H31 H 0.4231 -0.6747 0.4405
C55 C 0.393890(9) -0.590080(12) 0.381950(5)
H32 H 0.4264 -0.5974 0.3611
C56 C 0.341980(14) -0.68496(2) 0.512070(10)
Co1 Co 0.091650(2) 0.716605(3) 0.092776(1)
Co2 Co 0.414750(2) -0.217230(3) 0.095610(1)
Co3 Co 0.253000(2) -0.250040(3) 0.095250(1)
O1 O 0.320570(10) -0.143340(15) 0.096950(9)
O2 O 0.406080(9) -0.075600(15) 0.107780(9)
O3 O 0.185860(10) 0.640860(15) 0.091220(9)
O4 O 0.102900(11) 0.575880(16) 0.105250(10)
O5 O 0.209160(10) 0.80264(2) 0.158420(10)
O6 O 0.112190(10) 0.792380(17) 0.157070(8)
O7 O 0.197590(11) 1.164390(19) 0.546200(10)
O8 O 0.109640(9) 1.220370(16) 0.525560(8)
O9 O 0.004209(11) 0.732918(16) 0.097244(9)
O10 O -0.008795(14) 0.65678(3) 0.023826(15)
O11 O 0.399930(8) -0.290030(16) 0.161210(8)
O12 O 0.307740(11) -0.335700(19) 0.143520(10)
O13 O 0.390520(11) -0.720170(17) 0.527680(9)
O14 O 0.295270(12) -0.68778(2) 0.533380(10)
O15 O -0.498201(11) 0.76720(2) 0.099111(12)
O16 O -0.491527(15) 0.85002(3) 0.030055(19)
Co1C Co 0.091650(2) 1.283395(3) 0.592776(1)
Co2_2 Co -0.585250(2) 0.782770(3) 0.095610(1)
Co2C Co 0.414750(2) -0.782770(3) 0.595610(1)
Co3_2 Co 0.253000(2) 0.749960(3) 0.095250(1)
Co3C Co 0.253000(2) 1.250040(3) 0.595250(1)
Co3C_2 Co 0.253000(2) -0.749960(3) 0.595250(1)
O3_2 O 0.185860(10) -0.359140(15) 0.091220(9)
O5_2 O 0.209160(10) -0.19736(2) 0.158420(10)
O7C O 0.197590(11) -0.164390(19) 0.046200(10)
O8C O 0.109640(9) 0.779630(16) 0.025560(8)
O13C O 0.390520(11) -0.279830(17) 0.027680(9)
O14C O 0.295270(12) -0.31222(2) 0.033380(10)
O15_2 O 0.501799(11) -0.23280(2) 0.099111(12)
loop_
_geom_bond_atom_site_label_1
_geom_bond_atom_site_label_2
_geom_bond_site_symmetry_1
_geom_bond_site_symmetry_2
C1 C7 1_555 1_555
C2 H1 1_555 1_555
C3 C2 1_555 1_555
H2 C3 1_555 1_555
C4 C3 1_555 1_555
C5 C4 1_555 1_555
H3 C5 1_555 1_555
C6 C5 1_555 1_555
H4 C6 1_555 1_555
C7 C2 1_555 1_555
C8 C9 1_555 1_555
C9 H5 1_555 1_555
C10 C9 1_555 1_555
H6 C10 1_555 1_555
C11 C4 1_555 1_555
C12 C11 1_555 1_555
H7 C12 1_555 1_555
C13 C8 1_555 1_555
H8 C13 1_555 1_555
C14 C8 1_555 1_555
C15 C16 1_555 1_555
C16 C17 1_555 1_555
C17 H9 1_555 1_555
C18 C17 1_555 1_555
H10 C18 1_555 1_555
C19 C18 1_555 1_555
C20 C19 1_555 1_555
H11 C20 1_555 1_555
C21 C16 1_555 1_555
H12 C21 1_555 1_555
C22 C19 1_555 1_555
C23 C22 1_555 1_555
H13 C23 1_555 1_555
C24 C23 1_555 1_555
H14 C24 1_555 1_555
C25 C24 1_555 1_555
C26 C25 1_555 1_555
H15 C26 1_555 1_555
C27 C22 1_555 1_555
H16 C27 1_555 1_555
C28 C25 1_555 1_555
C29 C30 1_555 1_555
C30 C31 1_555 1_555
C31 H17 1_555 1_555
C32 C31 1_555 1_555
H18 C32 1_555 1_555
C33 C32 1_555 1_555
C34 C33 1_555 1_555
H19 C34 1_555 1_555
C35 C30 1_555 1_555
H20 C35 1_555 1_555
C36 C33 1_555 1_555
C37 C36 1_555 1_555
H21 C37 1_555 1_555
C38 C37 1_555 1_555
H22 C38 1_555 1_555
C39 C38 1_555 1_555
C40 C39 1_555 1_555
H23 C40 1_555 1_555
C41 C36 1_555 1_555
H24 C41 1_555 1_555
C42 C39 1_555 1_555
C43 C44 1_555 1_555
C44 C45 1_555 1_555
C45 H25 1_555 1_555
C46 C45 1_555 1_555
H26 C46 1_555 1_555
C47 C46 1_555 1_555
C48 C47 1_555 1_555
H27 C48 1_555 1_555
C49 C44 1_555 1_555
H28 C49 1_555 1_555
C50 C47 1_555 1_555
C51 C50 1_555 1_555
H29 C51 1_555 1_555
C52 C51 1_555 1_555
H30 C52 1_555 1_555
C53 C52 1_555 1_555
C54 C53 1_555 1_555
H31 C54 1_555 1_555
C55 C50 1_555 1_555
H32 C55 1_555 1_555
C56 C53 1_555 1_555
Co1 O4 1_555 1_555
Co2 O2 1_555 1_555
Co3 O1 1_555 1_555
O1 C29 1_555 1_555
O2 C29 1_555 1_555
O3 C42 1_555 1_555
O4 C42 1_555 1_555
O5 C28 1_555 1_555
O6 C28 1_555 1_555
O7 C15 1_555 1_555
O8 C15 1_555 1_555
O9 C1 1_555 1_555
O10 C1 1_555 1_555
O11 C43 1_555 1_555
O12 C43 1_555 1_555
O13 C56 1_555 1_555
O14 C56 1_555 1_555
O15 C14 1_555 1_555
O16 C14 1_555 1_555
Co1C O8 1_555 1_555
Co2_2 O15 1_555 1_555
Co2C O13 1_555 1_555
Co3_2 O3 1_555 1_555
Co3C O7 1_555 1_555
Co3C_2 O14 1_555 1_555
O3_2 Co3 1_555 1_555
O5_2 Co3 1_555 1_555
O7C Co3 1_555 1_555
O8C Co1 1_555 1_555
O13C Co2 1_555 1_555
O14C Co3 1_555 1_555
O15_2 Co2 1_555 1_555
C6 C7 1_555 1_555
C10 C11 1_555 1_555
C12 C13 1_555 1_555
C20 C21 1_555 1_555
C26 C27 1_555 1_555
C34 C35 1_555 1_555
C40 C41 1_555 1_555
C48 C49 1_555 1_555
C54 C55 1_555 1_555
Co1 O6 1_555 1_555
Co1 O9 1_555 1_555
Co2 O11 1_555 1_555
Co3 O12 1_555 1_555
O5 Co3_2 1_555 1_555

#END
