
#######################################################################
#
#                 Cambridge Crystallographic Data Centre
#                                CCDC 
#
#######################################################################
#
# If this CIF has been generated from an entry in the Cambridge 
# Structural Database, then it will include bibliographic, chemical, 
# crystal, experimental, refinement or atomic coordinate data resulting 
# from the CCDC's data processing and validation procedures.
#
#######################################################################

data_MOXNUK
_symmetry_cell_setting           orthorhombic
_symmetry_space_group_name_H-M   'P 21 21 21'
_symmetry_Int_Tables_number      19
_space_group_name_Hall           'P 2ac 2ab'
loop_
_symmetry_equiv_pos_site_id
_symmetry_equiv_pos_as_xyz
1 x,y,z
2 1/2-x,-y,1/2+z
3 -x,1/2+y,1/2-z
4 1/2+x,1/2-y,-z
_cell_length_a                   13.3950(8)
_cell_length_b                   13.5119(8)
_cell_length_c                   17.6200(10)
_cell_angle_alpha                90
_cell_angle_beta                 90
_cell_angle_gamma                90
_cell_volume                     3189.08
loop_
_atom_site_label
_atom_site_type_symbol
_atom_site_fract_x
_atom_site_fract_y
_atom_site_fract_z
Co1 Co 1.23366(7) 1.48936(7) 1.42449(4)
O1 O 1.1264(4) 1.5593(4) 1.5890(3)
C1 C 1.0684(6) 1.5575(5) 1.5303(5)
Co2 Co 1.26945(7) 1.50904(7) 1.58330(4)
O2 O 1.0982(4) 1.5310(4) 1.4672(3)
C2 C 0.8045(5) 1.8201(5) 1.5180(4)
O3 O 0.7748(4) 1.8646(4) 1.5756(2)
C3 C 0.9193(5) 1.5231(5) 1.6079(5)
H1 H 0.9211 1.4539 1.5954
H2 H 0.8516 1.5428 1.6174
H3 H 0.9588 1.5347 1.6525
O4 O 0.8119(4) 1.8533(4) 1.4513(3)
C4 C 0.9616(5) 1.5835(5) 1.5416(4)
C5 C 0.9006(6) 1.5627(6) 1.4719(4)
H4 H 0.8679 1.4989 1.4767
H5 H 0.9435 1.5609 1.4276
C6 C 0.8223(6) 1.6444(5) 1.4630(4)
H6 H 0.8327 1.6804 1.4160
H7 H 0.7556 1.6166 1.4627
C7 C 0.8364(5) 1.7120(5) 1.5307(4)
H8 H 0.7953 1.6857 1.5720
C8 C 0.9477(5) 1.6996(6) 1.5549(4)
C9 C 0.9681(7) 1.7367(7) 1.6365(4)
H9 H 1.0388 1.7412 1.6446
H10 H 0.9397 1.6912 1.6723
H11 H 0.9384 1.8008 1.6432
C10 C 1.0185(6) 1.7559(8) 1.5052(8)
H12 H 1.0851 1.7495 1.5247
H13 H 0.9998 1.8245 1.5044
H14 H 1.0159 1.7298 1.4545
O5 O 1.7038(4) 1.1528(3) 1.5445(3)
O6 O 1.7174(4) 1.1327(4) 1.4208(2)
O7 O 1.4045(4) 1.4597(4) 1.5466(3)
O8 O 1.3793(4) 1.4525(4) 1.4216(3)
C11 C 1.6981(5) 1.1860(5) 1.4781(4)
C12 C 1.4317(6) 1.4480(6) 1.4780(5)
C13 C 1.7378(6) 1.3338(6) 1.4028(5)
H15 H 1.8056 1.3368 1.4202
H16 H 1.7155 1.3991 1.3896
H17 H 1.7339 1.2917 1.3590
C14 C 1.6715(5) 1.2921(5) 1.4658(3)
C15 C 1.6843(6) 1.3556(5) 1.5387(4)
H18 H 1.6683 1.3166 1.5833
H19 H 1.7527 1.3785 1.5431
C16 C 1.6153(6) 1.4409(6) 1.5322(4)
H20 H 1.6525 1.5012 1.5226
H21 H 1.5778 1.4492 1.5789
C17 C 1.5431(6) 1.4187(5) 1.4648(4)
H22 H 1.5673 1.4550 1.4203
C18 C 1.5576(5) 1.3062(5) 1.4493(4)
C19 C 1.5310(7) 1.2831(6) 1.3695(4)
H23 H 1.4657 1.3087 1.3586
H24 H 1.5312 1.2127 1.3623
H25 H 1.5788 1.3130 1.3360
C20 C 1.4947(4) 1.2429(7) 1.5026(8)
H26 H 1.4252 1.2569 1.4944
H27 H 1.5119 1.2577 1.5542
H28 H 1.5073 1.1741 1.4926
O9 O 1.3134(3) 1.5226(3) 1.6927(2)
O10 O 1.3095(3) 1.5250(4) 1.8163(2)
C21 C 1.2690(4) 1.5036(4) 1.7550(3)
C22 C 1.1696(5) 1.4551(5) 1.7534(4)
H29 H 1.1711 1.3966 1.7842
H30 H 1.1532 1.4375 1.7021
H31 H 1.1202 1.4999 1.7727
Co1A Co 1.26634(7) 1.51064(7) 1.92449(4)
Co1C Co 0.73366(7) 2.01064(7) 1.57551(4)
Co1C_2 Co 1.73366(7) 1.01064(7) 1.57551(4)
Co2C Co 0.76945(7) 1.99096(7) 1.41670(4)
Co2C_2 Co 1.76945(7) 0.99096(7) 1.41670(4)
O3C O 1.2748(4) 1.6354(4) 1.4244(2)
O4C O 1.3119(4) 1.6467(4) 1.5487(3)
O5C O 1.2038(4) 1.3472(3) 1.4555(3)
O6C O 1.2174(4) 1.3673(4) 1.5792(2)
O10A O 1.1905(3) 1.4750(4) 1.3163(2)
N1 N 1.6800(8) 1.2912(5) 1.7513(6)
N2 N 1.5230(8) 1.3038(8) 1.7321(7)
C23 C 1.7793(9) 1.2566(9) 1.7594(8)
H32 H 1.7945 1.2114 1.7189
H33 H 1.7863 1.2233 1.8072
H34 H 1.8245 1.3117 1.7575
C24 C 1.6058(10) 1.2431(10) 1.7368(9)
H35 H 1.6049 1.1749 1.7297
C25 C 1.6562(13) 1.3877(11) 1.7645(9)
H36 H 1.6962 1.4395 1.7814
C26 C 1.5533(14) 1.3868(8) 1.7453(9)
H37 H 1.5137 1.4433 1.7430
C27 C 1.4333(12) 1.2777(12) 1.7129(8)
H38 H 1.4358 1.2231 1.6773
H39 H 1.3990 1.3327 1.6890
C28 C 1.3768(11) 1.2457(9) 1.7866(6)
H40 H 1.3916 1.2935 1.8261
H41 H 1.3057 1.2491 1.7767
C29 C 1.3977(14) 1.1550(11) 1.8136(8)
H42 H 1.3571 1.1420 1.8573
H43 H 1.4669 1.1517 1.8275
H44 H 1.3839 1.1065 1.7751
loop_
_geom_bond_atom_site_label_1
_geom_bond_atom_site_label_2
_geom_bond_site_symmetry_1
_geom_bond_site_symmetry_2
Co1 Co2 1_555 1_555
O1 C1 1_555 1_555
C1 O2 1_555 1_555
Co2 O1 1_555 1_555
O2 Co1 1_555 1_555
C2 O3 1_555 1_555
O3 Co1C 1_555 1_555
C3 H1 1_555 1_555
H2 C3 1_555 1_555
H3 C3 1_555 1_555
O4 C2 1_555 1_555
C4 C1 1_555 1_555
C5 C4 1_555 1_555
H4 C5 1_555 1_555
H5 C5 1_555 1_555
C6 C5 1_555 1_555
H6 C6 1_555 1_555
H7 C6 1_555 1_555
C7 C2 1_555 1_555
H8 C7 1_555 1_555
C8 C4 1_555 1_555
C9 C8 1_555 1_555
H9 C9 1_555 1_555
H10 C9 1_555 1_555
H11 C9 1_555 1_555
C10 C8 1_555 1_555
H12 C10 1_555 1_555
H13 C10 1_555 1_555
H14 C10 1_555 1_555
O5 C11 1_555 1_555
O6 C11 1_555 1_555
O7 Co2 1_555 1_555
O8 Co1 1_555 1_555
C11 C14 1_555 1_555
C12 O7 1_555 1_555
C13 H15 1_555 1_555
H16 C13 1_555 1_555
H17 C13 1_555 1_555
C14 C13 1_555 1_555
C15 C14 1_555 1_555
H18 C15 1_555 1_555
H19 C15 1_555 1_555
C16 C15 1_555 1_555
H20 C16 1_555 1_555
H21 C16 1_555 1_555
C17 C12 1_555 1_555
H22 C17 1_555 1_555
C18 C14 1_555 1_555
C19 C18 1_555 1_555
H23 C19 1_555 1_555
H24 C19 1_555 1_555
H25 C19 1_555 1_555
C20 C18 1_555 1_555
H26 C20 1_555 1_555
H27 C20 1_555 1_555
H28 C20 1_555 1_555
O9 Co2 1_555 1_555
O10 C21 1_555 1_555
C21 O9 1_555 1_555
C22 C21 1_555 1_555
H29 C22 1_555 1_555
H30 C22 1_555 1_555
H31 C22 1_555 1_555
N1 C23 1_555 1_555
N2 C24 1_555 1_555
C23 H32 1_555 1_555
H33 C23 1_555 1_555
H34 C23 1_555 1_555
C24 N1 1_555 1_555
H35 C24 1_555 1_555
C25 N1 1_555 1_555
H36 C25 1_555 1_555
C26 N2 1_555 1_555
H37 C26 1_555 1_555
C27 N2 1_555 1_555
H38 C27 1_555 1_555
H39 C27 1_555 1_555
C28 C27 1_555 1_555
H40 C28 1_555 1_555
H41 C28 1_555 1_555
C29 C28 1_555 1_555
H42 C29 1_555 1_555
H43 C29 1_555 1_555
H44 C29 1_555 1_555
Co1A O10 1_555 1_555
Co1C Co2C 1_555 1_555
Co1C_2 O5 1_555 1_555
Co2C O4 1_555 1_555
Co2C_2 O6 1_555 1_555
O3C Co1 1_555 1_555
O4C Co2 1_555 1_555
O5C Co1 1_555 1_555
O6C Co2 1_555 1_555
O10A Co1 1_555 1_555
C3 C4 1_555 1_555
C6 C7 1_555 1_555
C7 C8 1_555 1_555
O8 C12 1_555 1_555
C16 C17 1_555 1_555
C17 C18 1_555 1_555
C25 C26 1_555 1_555
Co1C_2 Co2C_2 1_555 1_555

#END
