
#######################################################################
#
#                 Cambridge Crystallographic Data Centre
#                                CCDC 
#
#######################################################################
#
# If this CIF has been generated from an entry in the Cambridge 
# Structural Database, then it will include bibliographic, chemical, 
# crystal, experimental, refinement or atomic coordinate data resulting 
# from the CCDC's data processing and validation procedures.
#
#######################################################################

data_MOZFIR
_symmetry_cell_setting           triclinic
_symmetry_space_group_name_H-M   'P 1'
_symmetry_Int_Tables_number      1
_space_group_name_Hall           'P 1'
loop_
_symmetry_equiv_pos_site_id
_symmetry_equiv_pos_as_xyz
1 x,y,z
_cell_length_a                   5.990(4)
_cell_length_b                   7.435(4)
_cell_length_c                   13.323(3)
_cell_angle_alpha                102.89(3)
_cell_angle_beta                 101.55(3)
_cell_angle_gamma                90.85(3)
_cell_volume                     565.583
loop_
_atom_site_label
_atom_site_type_symbol
_atom_site_fract_x
_atom_site_fract_y
_atom_site_fract_z
C1 C -0.002(3) 0.119(2) -0.5413(12)
C2 C 0.154(3) 0.2108(19) -0.4360(11)
H1 H 0.1369 0.1403 -0.3837
C3 C 0.399(2) 0.208(2) -0.4505(9)
H2 H 0.4278 0.0805 -0.4814
C4 C 0.560(3) 0.268(2) -0.3435(13)
C5 C 0.9430(19) 0.5683(15) 0.1319(8)
C6 C 1.131(2) 0.4316(17) 0.1292(9)
H3 H 1.2734 0.4965 0.1280
C7 C 1.1613(18) 0.3619(14) 0.2292(8)
H4 H 1.2476 0.4586 0.2871
C8 C 1.2936(19) 0.1834(14) 0.2241(8)
C9 C 0.2756(18) 0.5534(14) -0.1086(8)
C10 C 0.4079(19) 0.7259(15) -0.1119(9)
H5 H 0.3281 0.7803 -0.1686
C11 C 0.446(2) 0.8707(17) -0.0038(9)
H6 H 0.3031 0.9327 -0.0014
C12 C 0.626(2) 1.0155(14) -0.0057(9)
O1 O -0.1772(15) 0.2018(12) -0.5800(7)
O2 O 0.0371(14) -0.0361(11) -0.5885(6)
O3 O 0.1058(15) 0.3981(11) -0.3984(6)
H7 H 0.0197 0.4331 -0.4453
O4 O 0.4295(15) 0.3169(12) -0.5216(7)
H8 H 0.5615 0.3129 -0.5300
O5 O 0.7009(15) 0.3964(12) -0.3190(7)
O6 O 0.5322(16) 0.1694(13) -0.2771(7)
O7 O 0.9637(15) 0.7040(11) 0.2058(7)
O8 O 0.7695(15) 0.5318(12) 0.0548(7)
O9 O 1.0662(13) 0.2863(10) 0.0334(6)
O10 O 0.9449(14) 0.3262(11) 0.2535(7)
O11 O 1.4961(14) 0.1963(11) 0.2178(6)
O12 O 1.1901(14) 0.0421(12) 0.2309(6)
O13 O 0.3735(15) 0.4097(13) -0.1109(7)
O14 O 0.0710(14) 0.5707(11) -0.1066(9)
O15 O 0.6272(15) 0.6694(11) -0.1312(7)
O16 O 0.4981(13) 0.8000(10) 0.0849(6)
O17 O 0.7987(14) 1.0360(10) 0.0683(6)
O18 O 0.6007(15) 1.0973(12) -0.0795(7)
O19 O -0.4728(14) -0.1628(13) -0.6960(8)
H9 H -0.5910 -0.2163 -0.7399
H10 H -0.4975 -0.0500 -0.6741
O20 O 1.0184(14) 0.1472(12) -0.1908(8)
H11 H 1.1375 0.1583 -0.2150
H12 H 1.0528 0.1638 -0.1242
Tb1 Tb 0.76233(6) 0.36241(5) -0.11857(4)
Tb2 Tb -0.19953(5) 0.00015(4) -0.75947(3)
O14_2 O 1.0710(14) 0.5707(11) -0.1066(9)
O18_2 O 0.6007(15) 0.0973(12) -0.0795(7)
Tb2_2 Tb 0.80047(5) 1.00015(4) 0.24053(3)
Tb2_3 Tb 0.80047(5) 0.00015(4) 0.24053(3)
Tb2_4 Tb 1.80047(5) 0.00015(4) 0.24053(3)
O7_2 O -0.0363(15) -0.2960(11) -0.7942(7)
O10_2 O -0.0551(14) 0.3262(11) -0.7465(7)
O11_2 O -0.5039(14) 0.1963(11) -0.7822(6)
O12_2 O 0.1901(14) 0.0421(12) -0.7691(6)
O16_2 O -0.5019(13) -0.2000(10) -0.9151(6)
O17_2 O -0.2013(14) 0.0360(10) -0.9317(6)
Tb1_2 Tb -0.23767(6) 0.36241(5) -0.11857(4)
Tb1_3 Tb 0.76233(6) 1.36241(5) -0.11857(4)
O21 O -0.0091(17) -0.3985(13) -0.5616(8)
H13 H 0.0257 -0.2829 -0.5423
H14 H -0.0155 -0.4348 -0.6274
O22 O -0.4292(19) -0.3124(14) -0.5094(9)
H15 H -0.4501 -0.4083 -0.5596
H16 H -0.3719 -0.3415 -0.4519
O23 O -0.290(3) -0.1753(17) -0.2829(11)
H17 H -0.1616 -0.2176 -0.2908
H18 H -0.2887 -0.1391 -0.2176
loop_
_geom_bond_atom_site_label_1
_geom_bond_atom_site_label_2
_geom_bond_site_symmetry_1
_geom_bond_site_symmetry_2
C1 C2 1_555 1_555
C2 H1 1_555 1_555
C3 C2 1_555 1_555
H2 C3 1_555 1_555
C4 C3 1_555 1_555
C5 C6 1_555 1_555
C6 H3 1_555 1_555
C7 C6 1_555 1_555
H4 C7 1_555 1_555
C8 C7 1_555 1_555
C9 C10 1_555 1_555
C10 H5 1_555 1_555
C11 C10 1_555 1_555
H6 C11 1_555 1_555
C12 C11 1_555 1_555
O1 C1 1_555 1_555
O2 C1 1_555 1_555
O3 C2 1_555 1_555
H7 O3 1_555 1_555
O4 C3 1_555 1_555
H8 O4 1_555 1_555
O5 C4 1_555 1_555
O6 C4 1_555 1_555
O7 C5 1_555 1_555
O8 C5 1_555 1_555
O9 C6 1_555 1_555
O10 C7 1_555 1_555
O11 C8 1_555 1_555
O12 C8 1_555 1_555
O13 C9 1_555 1_555
O14 C9 1_555 1_555
O15 C10 1_555 1_555
O16 C11 1_555 1_555
O17 C12 1_555 1_555
O18 C12 1_555 1_555
O19 H9 1_555 1_555
H10 O19 1_555 1_555
O20 H11 1_555 1_555
H12 O20 1_555 1_555
O21 H13 1_555 1_555
H14 O21 1_555 1_555
O22 H15 1_555 1_555
H16 O22 1_555 1_555
O23 H17 1_555 1_555
H18 O23 1_555 1_555
Tb1 O5 1_555 1_555
Tb2 O1 1_555 1_555
O14_2 Tb1 1_555 1_555
O18_2 Tb1 1_555 1_555
Tb2_2 O7 1_555 1_555
Tb2_3 O10 1_555 1_555
Tb2_4 O11 1_555 1_555
O7_2 Tb2 1_555 1_555
O10_2 Tb2 1_555 1_555
O11_2 Tb2 1_555 1_555
O12_2 Tb2 1_555 1_555
O16_2 Tb2 1_555 1_555
O17_2 Tb2 1_555 1_555
Tb1_2 O14 1_555 1_555
Tb1_3 O18 1_555 1_555
O2 Tb2 1_555 1_555
O6 Tb1 1_555 1_555
O8 Tb1 1_555 1_555
O9 Tb1 1_555 1_555
O12 Tb2_3 1_555 1_555
O13 Tb1 1_555 1_555
O15 Tb1 1_555 1_555
O16 Tb2_2 1_555 1_555
O17 Tb2_2 1_555 1_555
O19 Tb2 1_555 1_555
O20 Tb1 1_555 1_555

#END
