
#######################################################################
#
#                 Cambridge Crystallographic Data Centre
#                                CCDC 
#
#######################################################################
#
# If this CIF has been generated from an entry in the Cambridge 
# Structural Database, then it will include bibliographic, chemical, 
# crystal, experimental, refinement or atomic coordinate data resulting 
# from the CCDC's data processing and validation procedures.
#
#######################################################################

data_MUFXUI
_symmetry_cell_setting           triclinic
_symmetry_space_group_name_H-M   'P -1'
_symmetry_Int_Tables_number      2
_space_group_name_Hall           '-P 1'
loop_
_symmetry_equiv_pos_site_id
_symmetry_equiv_pos_as_xyz
1 x,y,z
2 -x,-y,-z
_cell_length_a                   8.5627(15)
_cell_length_b                   14.078(3)
_cell_length_c                   20.297(4)
_cell_angle_alpha                88.568(3)
_cell_angle_beta                 86.325(4)
_cell_angle_gamma                81.382(3)
_cell_volume                     2413.82
loop_
_atom_site_label
_atom_site_type_symbol
_atom_site_fract_x
_atom_site_fract_y
_atom_site_fract_z
Tb1 Tb 1.27365(10) 0.76272(6) -0.01904(4)
Tb2 Tb 1.23516(11) 0.48561(6) 0.24797(5)
O1 O 1.2127(12) 0.6751(8) 0.0792(6)
O2 O 1.0180(5) 0.6144(3) 0.2640(2)
O3 O 1.1900(13) 0.5422(8) 0.1358(6)
O4 O 1.1058(5) 0.3738(7) 0.1967(5)
O5 O 1.4401(14) 0.4175(8) 0.1752(6)
O6 O 1.4023(5) 0.6017(3) 0.23428(19)
O7 O 1.5895(13) 0.3113(8) 0.1140(6)
O8 O 1.3632(5) 0.3452(5) 0.30550(16)
O9 O 1.0642(13) 0.6884(8) -0.0567(6)
O10 O 0.8079(12) 0.6998(6) -0.0799(3)
O11 O 1.2552(12) 0.8911(8) 0.0647(5)
O12 O 1.1114(13) 0.9897(8) 0.1364(6)
O13 O 0.5256(13) 0.7466(8) 0.0292(6)
O14 O 0.5000(13) 0.8557(8) -0.0507(5)
O15 O 0.8287(12) 1.1193(8) 0.0947(5)
O16 O 0.6984(11) 1.0365(8) 0.1743(6)
O17 O 1.2739(13) 0.5362(8) 0.3557(6)
O18 O 1.2240(11) 0.6641(8) 0.4177(5)
O19 O 1.0281(13) 0.6816(8) 0.6137(6)
O20 O 0.9553(13) 0.5623(8) 0.6752(6)
N1 N 1.4004(16) 0.5856(10) -0.0120(7)
N2 N 1.0721(16) 0.5743(10) 0.5083(7)
N3 N 0.9996(16) 0.8360(10) 0.0229(8)
N4 N 0.6946(16) 0.9241(10) 0.0565(7)
C1 C 1.2521(19) 0.5866(12) 0.0915(9)
C2 C 1.390(2) 0.5374(12) 0.0464(9)
C3 C 1.4921(19) 0.4539(12) 0.0608(9)
C4 C 1.507(2) 0.3886(12) 0.1216(9)
C5 C 1.130(2) 0.9327(12) 0.0909(9)
C6 C 0.976(2) 0.9124(12) 0.0629(9)
C7 C 0.822(2) 0.9547(12) 0.0760(9)
C8 C 0.721(2) 0.8492(12) 0.0163(9)
C9 C 0.865(2) 0.8025(13) -0.0031(9)
C10 C 0.921(2) 0.7191(13) -0.0480(10)
C11 C 0.779(2) 1.0443(12) 0.1203(9)
C12 C 0.574(2) 0.8138(12) -0.0027(9)
C13 C 1.204(2) 0.5812(13) 0.4019(9)
C14 C 1.088(2) 0.5383(12) 0.4530(9)
C15 C 0.9801(19) 0.5477(12) 0.5580(9)
C16 C 0.9860(19) 0.6016(12) 0.6223(9)
H1 H 1.4202(12) 0.6481(3) 0.2668(2)
H2 H 0.9301(5) 0.6253(8) 0.2975(2)
H3 H 1.0219(13) 0.6770(3) 0.2429(3)
H4 H 1.0015(4) 0.3615(9) 0.2138(3)
H5 H 1.1167(12) 0.3538(15) 0.1516(3)
H6 H 1.4959(5) 0.5957(10) 0.2038(2)
H7 H 1.4544(6) 0.3088(6) 0.2817(3)
H8 H 1.3926(12) 0.3459(12) 0.35109(16)
Tb3 Tb 1.11784(10) 0.76033(6) 0.51433(4)
Tb4 Tb 1.21131(11) 1.02985(7) 0.24113(5)
O21 O 1.3417(5) 1.1520(3) 0.1720(2)
O22 O 1.0233(6) 1.1622(5) 0.1925(2)
O23 O 1.1990(7) 1.1754(3) 0.3102(2)
O24 O 1.4340(5) 0.9470(4) 0.1698(2)
O25 O 1.1446(4) 0.8831(4) 0.5906(3)
O26 O 1.4573(15) 1.0075(9) 0.2913(7)
O27 O 1.5598(11) 1.0918(9) 0.3667(6)
O28 O 1.0769(13) 0.8857(8) 0.4325(6)
O29 O 1.1486(4) 0.9997(4) 0.3633(4)
O30 O 1.2184(14) 0.8613(9) 0.2567(7)
O31 O 1.3649(13) 0.6933(8) 0.5571(6)
O32 O 0.9436(16) 1.0068(10) 0.2623(7)
O33 O 1.6205(13) 0.6827(8) 0.5668(5)
O34 O 1.8458(14) 0.8422(9) 0.5458(5)
O35 O 1.8731(13) 0.7403(8) 0.4592(6)
N5 N 1.3568(16) 0.8329(10) 0.4723(7)
N6 N 1.6228(17) 0.9157(10) 0.4311(8)
C17 C 1.491(2) 1.0231(13) 0.3533(10)
C18 C 1.478(2) 0.9440(13) 0.4065(10)
C19 C 1.346(2) 0.9022(12) 0.4272(9)
C20 C 1.498(2) 0.8001(12) 0.4949(9)
C21 C 1.626(2) 0.8395(13) 0.4747(10)
C22 C 1.788(2) 0.8068(13) 0.4976(10)
C23 C 1.497(2) 0.7170(12) 0.5439(9)
C24 C 1.177(2) 0.9332(12) 0.4023(9)
H9 H 1.2344(5) 0.9074(7) 0.6091(5)
H10 H 1.0514(3) 0.9271(4) 0.6083(4)
H11 H 1.4293(6) 1.1261(6) 0.1413(3)
H12 H 1.2812(6) 1.2038(3) 0.1463(3)
H13 H 0.9496(7) 1.1521(7) 0.1594(2)
H14 H 0.9596(11) 1.2024(5) 0.2257(2)
H15 H 1.2540(8) 1.2318(3) 0.3069(5)
H16 H 1.1797(15) 1.1651(7) 0.3577(2)
H17 H 1.3774(6) 0.9356(6) 0.1312(2)
H18 H 1.5130(5) 0.9865(4) 0.1535(5)
H19 H 1.28510 0.84150 0.28510
H20 H 1.24660 0.83370 0.22030
H21 H 0.85240 1.01580 0.24700
H22 H 0.93690 1.02630 0.30180
O1A O 1.7873(12) 0.3249(8) -0.0792(6)
O3A O 1.8100(13) 0.4578(8) -0.1358(6)
O5A O 1.5599(14) 0.5825(8) -0.1752(6)
O7A O 1.4105(13) 0.6887(8) -0.1140(6)
N1A N 1.5996(16) 0.4144(10) 0.0120(7)
C1A C 1.7479(19) 0.4134(12) -0.0915(9)
C2A C 1.610(2) 0.4626(12) -0.0464(9)
C3A C 1.5079(19) 0.5461(12) -0.0608(9)
C4A C 1.493(2) 0.6114(12) -0.1216(9)
O17A O 0.7261(13) 0.4638(8) 0.6443(6)
O18A O 0.7760(11) 0.3359(8) 0.5823(5)
O19A O 0.9719(13) 0.3184(8) 0.3863(6)
O20A O 1.0447(13) 0.4377(8) 0.3248(6)
N2A N 0.9279(16) 0.4257(10) 0.4917(7)
C13A C 0.796(2) 0.4188(13) 0.5981(9)
C14A C 0.912(2) 0.4617(12) 0.5470(9)
C15A C 1.0199(19) 0.4523(12) 0.4420(9)
C16A C 1.0140(19) 0.3984(12) 0.3777(9)
Tb1A Tb 0.72635(10) 0.23728(6) 1.01904(4)
Tb2A Tb 0.76484(11) 0.51439(6) 0.75203(5)
O2A O 0.9820(5) 0.3856(3) 0.7360(2)
O4A O 0.8942(5) 0.6262(7) 0.8033(5)
O6A O 0.5977(5) 0.3983(3) 0.76572(19)
O8A O 0.6368(5) 0.6548(5) 0.69450(16)
O9A O 0.9358(13) 0.3116(8) 1.0567(6)
O10A O 1.1921(12) 0.3002(6) 1.0799(3)
O11A O 0.7448(12) 0.1089(8) 0.9353(5)
O12A O 0.8886(13) 0.0103(8) 0.8636(6)
O13A O 1.4744(13) 0.2534(8) 0.9708(6)
O14A O 1.5000(13) 0.1443(8) 1.0507(5)
O15A O 1.1713(12) -0.1193(8) 0.9053(5)
O16A O 1.3016(11) -0.0365(8) 0.8257(6)
N3A N 1.0004(16) 0.1640(10) 0.9771(8)
N4A N 1.3054(16) 0.0759(10) 0.9435(7)
C5A C 0.870(2) 0.0673(12) 0.9091(9)
C6A C 1.024(2) 0.0876(12) 0.9371(9)
C7A C 1.178(2) 0.0453(12) 0.9240(9)
C8A C 1.279(2) 0.1508(12) 0.9837(9)
C9A C 1.135(2) 0.1975(13) 1.0031(9)
C10A C 1.079(2) 0.2809(13) 1.0480(10)
C11A C 1.221(2) -0.0443(12) 0.8797(9)
C12A C 1.426(2) 0.1862(12) 1.0027(9)
H1A H 0.5798(12) 0.3519(3) 0.7332(2)
H2A H 1.0699(5) 0.3747(8) 0.7025(2)
H3A H 0.9781(13) 0.3230(3) 0.7571(3)
H4A H 0.9985(4) 0.6385(9) 0.7862(3)
H5A H 0.8833(12) 0.6462(15) 0.8484(3)
H6A H 0.5041(5) 0.4043(10) 0.7962(2)
H7A H 0.5456(6) 0.6912(6) 0.7183(3)
H8A H 0.6074(12) 0.6541(12) 0.64891(16)
Tb3A Tb 0.88216(10) 0.23967(6) 0.48567(4)
Tb4A Tb 0.78869(11) -0.02985(7) 0.75887(5)
O21A O 0.6583(5) -0.1520(3) 0.8280(2)
O22A O 0.9767(6) -0.1622(5) 0.8075(2)
O23A O 0.8010(7) -0.1754(3) 0.6898(2)
O24A O 0.5660(5) 0.0530(4) 0.8302(2)
O25A O 0.8554(4) 0.1169(4) 0.4094(3)
O26A O 0.5427(15) -0.0075(9) 0.7087(7)
O27A O 0.4402(11) -0.0918(9) 0.6333(6)
O28A O 0.9231(13) 0.1143(8) 0.5675(6)
O29A O 0.8514(4) 0.0003(4) 0.6367(4)
O30A O 0.7816(14) 0.1387(9) 0.7433(7)
O31A O 0.6351(13) 0.3067(8) 0.4429(6)
O32A O 1.0564(16) -0.0068(10) 0.7377(7)
O33A O 0.3795(13) 0.3173(8) 0.4332(5)
O34A O 0.1542(14) 0.1578(9) 0.4542(5)
O35A O 0.1269(13) 0.2597(8) 0.5408(6)
N5A N 0.6432(16) 0.1671(10) 0.5277(7)
N6A N 0.3772(17) 0.0843(10) 0.5689(8)
C17A C 0.509(2) -0.0231(13) 0.6467(10)
C18A C 0.522(2) 0.0560(13) 0.5935(10)
C19A C 0.654(2) 0.0978(12) 0.5728(9)
C20A C 0.502(2) 0.1999(12) 0.5051(9)
C21A C 0.374(2) 0.1605(13) 0.5253(10)
C22A C 0.212(2) 0.1932(13) 0.5024(10)
C23A C 0.503(2) 0.2830(12) 0.4561(9)
C24A C 0.823(2) 0.0668(12) 0.5977(9)
H9A H 0.7656(5) 0.0926(7) 0.3909(5)
H10A H 0.9486(3) 0.0729(4) 0.3917(4)
H11A H 0.5707(6) -0.1261(6) 0.8587(3)
H12A H 0.7188(6) -0.2038(3) 0.8537(3)
H13A H 1.0504(7) -0.1521(7) 0.8406(2)
H14A H 1.0404(11) -0.2024(5) 0.7743(2)
H15A H 0.7460(8) -0.2318(3) 0.6931(5)
H16A H 0.8203(15) -0.1651(7) 0.6423(2)
H17A H 0.6226(6) 0.0644(6) 0.8688(2)
H18A H 0.4870(5) 0.0135(4) 0.8465(5)
H19A H 0.71490 0.15850 0.71490
H20A H 0.75340 0.16630 0.77970
H21A H 1.14760 -0.01580 0.75300
H22A H 1.06310 -0.02630 0.69820
Tb1_2 Tb 0.27365(10) 0.76272(6) -0.01904(4)
Tb1_3 Tb 1.27365(10) -0.23728(6) 0.98096(4)
Tb1A_2 Tb 0.72635(10) 1.23728(6) 0.01904(4)
Tb1A_3 Tb 1.72635(10) 0.23728(6) 0.01904(4)
Tb1A_4 Tb 1.72635(10) 0.23728(6) 1.01904(4)
Tb2A_2 Tb 1.76484(11) 0.51439(6) -0.24797(5)
O1A_2 O 0.7873(12) 0.3249(8) 0.9208(6)
O3A_2 O 0.8100(13) 0.4578(8) 0.8642(6)
O5A_2 O 0.5599(14) 0.5825(8) 0.8248(6)
O7_2 O 0.5895(13) 0.3113(8) 1.1140(6)
O13_2 O 1.5256(13) 0.7466(8) 0.0292(6)
O13A_2 O 0.4744(13) 0.2534(8) 0.9708(6)
O14_2 O 1.5000(13) 0.8557(8) -0.0507(5)
O14A_2 O 0.5000(13) 0.1443(8) 1.0507(5)
O15_2 O 0.8287(12) 0.1193(8) 1.0947(5)
O15A_2 O 1.1713(12) 0.8807(8) -0.0947(5)
N1A_2 N 0.5996(16) 0.4144(10) 1.0120(7)
Tb3_2 Tb 2.11784(10) 0.76033(6) 0.51433(4)
Tb3A_2 Tb -0.11784(10) 0.23967(6) 0.48567(4)
O34_2 O 0.8458(14) 0.8422(9) 0.5458(5)
O34A_2 O 1.1542(14) 0.1578(9) 0.4542(5)
O35_2 O 0.8731(13) 0.7403(8) 0.4592(6)
O35A_2 O 1.1269(13) 0.2597(8) 0.5408(6)
O36 O 0.4514(5) 0.7269(5) 0.3261(3)
H23 H 0.3835(6) 0.7010(7) 0.3609(3)
H24 H 0.5596(5) 0.7004(12) 0.3379(7)
O37 O -0.3822(19) 1.4910(11) 0.3872(9)
O38 O -0.2338(9) 1.6472(8) 0.3567(5)
O39 O 0.8873(19) 0.8387(12) 0.3180(9)
O40 O 0.7093(17) 0.7929(11) 0.2103(8)
H25 H 0.63960 0.76180 0.19720
O41 O 0.6229(14) 0.6356(10) 0.1395(7)
H26 H 0.63290 0.68960 0.12160
H27 H 0.70420 0.59500 0.12940
O42 O 1.0338(17) 0.7655(9) 0.1840(6)
H28 H 1.09820 0.74380 0.15280
H29 H 0.94200 0.75330 0.17700
O43 O 0.877(2) 0.5079(12) 0.0924(9)
H30 H 0.84150 0.47560 0.12400
H31 H 0.97700 0.49170 0.08710
O44 O -0.1488(18) 1.3001(9) 0.2613(8)
H32 H -0.19800 1.34690 0.24000
H33 H -0.18270 1.30210 0.30150
O45 O 0.5981(14) 1.2166(8) 0.2587(7)
H34 H 0.57740 1.18000 0.29090
H35 H 0.57370 1.19380 0.22310
loop_
_geom_bond_atom_site_label_1
_geom_bond_atom_site_label_2
_geom_bond_site_symmetry_1
_geom_bond_site_symmetry_2
Tb1 O1 1_555 1_555
Tb2 O2 1_555 1_555
O1 C1 1_555 1_555
O2 H2 1_555 1_555
O3 Tb2 1_555 1_555
O4 Tb2 1_555 1_555
O5 Tb2 1_555 1_555
O6 Tb2 1_555 1_555
O7 C4 1_555 1_555
O8 Tb2 1_555 1_555
O9 Tb1 1_555 1_555
O10 C10 1_555 1_555
O11 Tb1 1_555 1_555
O12 C5 1_555 1_555
O13 C12 1_555 1_555
O14 C12 1_555 1_555
O15 C11 1_555 1_555
O16 C11 1_555 1_555
O17 Tb2 1_555 1_555
O18 C13 1_555 1_555
O19 C16 1_555 1_555
O20 C16 1_555 1_555
N1 Tb1 1_555 1_555
N2 C14 1_555 1_555
N3 Tb1 1_555 1_555
N4 C7 1_555 1_555
C1 O3 1_555 1_555
C2 N1 1_555 1_555
C3 C2 1_555 1_555
C4 O5 1_555 1_555
C5 O11 1_555 1_555
C6 N3 1_555 1_555
C7 C6 1_555 1_555
C8 N4 1_555 1_555
C9 N3 1_555 1_555
C10 O9 1_555 1_555
C11 C7 1_555 1_555
C12 C8 1_555 1_555
C13 O17 1_555 1_555
C14 C13 1_555 1_555
C15 N2 1_555 1_555
C16 C15 1_555 1_555
H1 O6 1_555 1_555
H3 O2 1_555 1_555
H4 O4 1_555 1_555
H5 O4 1_555 1_555
H6 O6 1_555 1_555
H7 O8 1_555 1_555
H8 O8 1_555 1_555
Tb3 O18 1_555 1_555
Tb4 O12 1_555 1_555
O21 Tb4 1_555 1_555
O22 Tb4 1_555 1_555
O23 Tb4 1_555 1_555
O24 Tb4 1_555 1_555
O25 Tb3 1_555 1_555
O26 Tb4 1_555 1_555
O27 C17 1_555 1_555
O28 Tb3 1_555 1_555
O29 Tb4 1_555 1_555
O30 Tb4 1_555 1_555
O31 Tb3 1_555 1_555
O32 Tb4 1_555 1_555
O33 C23 1_555 1_555
O34 C22 1_555 1_555
O35 C22 1_555 1_555
N5 Tb3 1_555 1_555
N6 C18 1_555 1_555
C17 O26 1_555 1_555
C18 C17 1_555 1_555
C19 N5 1_555 1_555
C20 N5 1_555 1_555
C21 N6 1_555 1_555
C22 C21 1_555 1_555
C23 O31 1_555 1_555
C24 O28 1_555 1_555
H9 O25 1_555 1_555
H10 O25 1_555 1_555
H11 O21 1_555 1_555
H12 O21 1_555 1_555
H13 O22 1_555 1_555
H14 O22 1_555 1_555
H15 O23 1_555 1_555
H16 O23 1_555 1_555
H17 O24 1_555 1_555
H18 O24 1_555 1_555
H19 O30 1_555 1_555
H20 O30 1_555 1_555
H21 O32 1_555 1_555
H22 O32 1_555 1_555
O36 H23 1_555 1_555
H24 O36 1_555 1_555
O40 H25 1_555 1_555
O41 H26 1_555 1_555
H27 O41 1_555 1_555
O42 H28 1_555 1_555
H29 O42 1_555 1_555
O43 H30 1_555 1_555
H31 O43 1_555 1_555
O44 H32 1_555 1_555
H33 O44 1_555 1_555
O45 H34 1_555 1_555
H35 O45 1_555 1_555
O1A C1A 1_555 1_555
O3A C1A 1_555 1_555
O5A C4A 1_555 1_555
O7A Tb1 1_555 1_555
N1A C3 1_555 1_555
C1A C2A 1_555 1_555
C2A N1A 1_555 1_555
C3A N1 1_555 1_555
C4A O7A 1_555 1_555
O17A C13A 1_555 1_555
O18A C13A 1_555 1_555
O19A C16A 1_555 1_555
O20A Tb2 1_555 1_555
N2A C14A 1_555 1_555
C13A C14A 1_555 1_555
C14A C15 1_555 1_555
C15A C14 1_555 1_555
C16A O20A 1_555 1_555
Tb1A O9A 1_555 1_555
Tb2A O20 1_555 1_555
O2A Tb2A 1_555 1_555
O4A Tb2A 1_555 1_555
O6A Tb2A 1_555 1_555
O8A Tb2A 1_555 1_555
O9A C10A 1_555 1_555
O10A C10A 1_555 1_555
O11A Tb1A 1_555 1_555
O12A C5A 1_555 1_555
O13A C12A 1_555 1_555
O14A C12A 1_555 1_555
O15A C11A 1_555 1_555
O16A C11A 1_555 1_555
N3A Tb1A 1_555 1_555
N4A C7A 1_555 1_555
C5A O11A 1_555 1_555
C6A N3A 1_555 1_555
C7A C6A 1_555 1_555
C8A N4A 1_555 1_555
C9A N3A 1_555 1_555
C10A C9A 1_555 1_555
C11A C7A 1_555 1_555
C12A C8A 1_555 1_555
H1A O6A 1_555 1_555
H2A O2A 1_555 1_555
H3A O2A 1_555 1_555
H4A O4A 1_555 1_555
H5A O4A 1_555 1_555
H6A O6A 1_555 1_555
H7A O8A 1_555 1_555
H8A O8A 1_555 1_555
Tb3A O18A 1_555 1_555
Tb4A O12A 1_555 1_555
O21A Tb4A 1_555 1_555
O22A Tb4A 1_555 1_555
O23A Tb4A 1_555 1_555
O24A Tb4A 1_555 1_555
O25A Tb3A 1_555 1_555
O26A Tb4A 1_555 1_555
O27A C17A 1_555 1_555
O28A Tb3A 1_555 1_555
O29A Tb4A 1_555 1_555
O30A Tb4A 1_555 1_555
O31A Tb3A 1_555 1_555
O32A Tb4A 1_555 1_555
O33A C23A 1_555 1_555
O34A C22A 1_555 1_555
O35A C22A 1_555 1_555
N5A Tb3A 1_555 1_555
N6A C18A 1_555 1_555
C17A O26A 1_555 1_555
C18A C17A 1_555 1_555
C19A N5A 1_555 1_555
C20A N5A 1_555 1_555
C21A N6A 1_555 1_555
C22A C21A 1_555 1_555
C23A O31A 1_555 1_555
C24A O28A 1_555 1_555
H9A O25A 1_555 1_555
H10A O25A 1_555 1_555
H11A O21A 1_555 1_555
H12A O21A 1_555 1_555
H13A O22A 1_555 1_555
H14A O22A 1_555 1_555
H15A O23A 1_555 1_555
H16A O23A 1_555 1_555
H17A O24A 1_555 1_555
H18A O24A 1_555 1_555
H19A O30A 1_555 1_555
H20A O30A 1_555 1_555
H21A O32A 1_555 1_555
H22A O32A 1_555 1_555
Tb1_2 O13 1_555 1_555
Tb1_3 O15A 1_555 1_555
Tb1A_2 O15 1_555 1_555
Tb1A_3 O7 1_555 1_555
Tb1A_4 O13A 1_555 1_555
Tb2A_2 O3A 1_555 1_555
O1A_2 Tb1A 1_555 1_555
O3A_2 Tb2A 1_555 1_555
O5A_2 Tb2A 1_555 1_555
O7_2 Tb1A 1_555 1_555
O13_2 Tb1 1_555 1_555
O13A_2 Tb1A 1_555 1_555
O14_2 Tb1 1_555 1_555
O14A_2 Tb1A 1_555 1_555
O15_2 Tb1A 1_555 1_555
O15A_2 Tb1 1_555 1_555
N1A_2 Tb1A 1_555 1_555
Tb3_2 O34 1_555 1_555
Tb3A_2 O34A 1_555 1_555
O34_2 Tb3 1_555 1_555
O34A_2 Tb3A 1_555 1_555
O35_2 Tb3 1_555 1_555
O35A_2 Tb3A 1_555 1_555
O14 Tb1_2 1_555 1_555
O19 Tb3 1_555 1_555
N2 Tb3 1_555 1_555
C1 C2 1_555 1_555
C3 C4 1_555 1_555
C5 C6 1_555 1_555
C8 C9 1_555 1_555
C9 C10 1_555 1_555
O29 C24 1_555 1_555
O35 Tb3_2 1_555 1_555
C18 C19 1_555 1_555
C19 C24 1_555 1_555
C20 C21 1_555 1_555
C20 C23 1_555 1_555
O1A Tb1A_3 1_555 1_555
O5A Tb2A_2 1_555 1_555
N1A Tb1A_3 1_555 1_555
C2A C3A 1_555 1_555
C3A C4A 1_555 1_555
O17A Tb2A 1_555 1_555
O19A Tb3A 1_555 1_555
N2A C15A 1_555 1_555
N2A Tb3A 1_555 1_555
C15A C16A 1_555 1_555
O14A Tb1A_4 1_555 1_555
C5A C6A 1_555 1_555
C8A C9A 1_555 1_555
O29A C24A 1_555 1_555
O35A Tb3A_2 1_555 1_555
C18A C19A 1_555 1_555
C19A C24A 1_555 1_555
C20A C21A 1_555 1_555
C20A C23A 1_555 1_555

#END
