
#######################################################################
#
#                 Cambridge Crystallographic Data Centre
#                                CCDC 
#
#######################################################################
#
# If this CIF has been generated from an entry in the Cambridge 
# Structural Database, then it will include bibliographic, chemical, 
# crystal, experimental, refinement or atomic coordinate data resulting 
# from the CCDC's data processing and validation procedures.
#
#######################################################################

data_MURTUO
_symmetry_cell_setting           monoclinic
_symmetry_space_group_name_H-M   'P 21/c'
_symmetry_Int_Tables_number      14
_space_group_name_Hall           '-P 2ybc'
loop_
_symmetry_equiv_pos_site_id
_symmetry_equiv_pos_as_xyz
1 x,y,z
2 -x,1/2+y,1/2-z
3 -x,-y,-z
4 x,1/2-y,1/2+z
_cell_length_a                   5.2240(10)
_cell_length_b                   26.055(5)
_cell_length_c                   8.800(2)
_cell_angle_alpha                90
_cell_angle_beta                 97.38(3)
_cell_angle_gamma                90
_cell_volume                     1187.86
loop_
_atom_site_label
_atom_site_type_symbol
_atom_site_fract_x
_atom_site_fract_y
_atom_site_fract_z
Lu1 Lu 0.40348(2) 0.340833(4) 0.521439(12)
O1 O 0.6000(4) 0.33354(9) 0.3076(2)
O2 O 1.0041(4) 0.33613(10) 0.4103(3)
C1 C 0.8350(5) 0.33150(10) 0.2954(3)
C2 C 0.9236(6) 0.32403(12) 0.1417(3)
H1 H 1.005(7) 0.3558(15) 0.120(4)
H2 H 1.056(9) 0.2984(19) 0.149(5)
C3 C 0.7100(7) 0.31015(12) 0.0159(3)
H3 H 0.586(8) 0.3353(16) 0.013(5)
H4 H 0.769(9) 0.3057(18) -0.079(5)
C4 C 0.5868(5) 0.25860(10) 0.0330(3)
O3 O 0.3731(4) 0.24838(8) -0.0461(2)
O4 O 0.6977(4) 0.22414(7) 0.1198(2)
O5 O 0.1887(4) 0.41599(8) 0.6099(3)
O6 O 0.3578(5) 0.42179(9) 0.3963(3)
C5 C 0.2197(6) 0.44039(12) 0.4895(4)
C6 C 0.0903(10) 0.49114(17) 0.4508(6)
H5 H 0.2238 0.5170 0.4500
H6 H 0.0005 0.4889 0.3474
O7 O 0.7134(4) 0.38393(9) 0.6794(3)
H7 H 0.696(9) 0.4022(18) 0.747(5)
H8 H 0.845(10) 0.3877(19) 0.660(5)
O8 O 0.1987(4) 0.30923(8) 0.7173(2)
H9 H 0.065(8) 0.2985(15) 0.690(4)
H10 H 0.255(8) 0.2896(17) 0.787(5)
C6B C -0.0903(10) 0.50886(17) 0.5492(6)
C5B C -0.2197(6) 0.55961(12) 0.5105(4)
O5B O -0.1887(4) 0.58401(8) 0.3901(3)
O6B O -0.3578(5) 0.57821(9) 0.6037(3)
H5B H -0.2238 0.4830 0.5500
H6B H -0.0005 0.5111 0.6526
O1_2 O -0.4000(4) 0.33354(9) 0.3076(2)
O2_2 O 0.0041(4) 0.33613(10) 0.4103(3)
C1_2 C -0.1650(5) 0.33150(10) 0.2954(3)
C2_2 C -0.0764(6) 0.32403(12) 0.1417(3)
H1_2 H 0.005(7) 0.3558(15) 0.120(4)
H2_2 H 0.056(9) 0.2984(19) 0.149(5)
C3_2 C -0.2900(7) 0.31015(12) 0.0159(3)
H3_2 H -0.414(8) 0.3353(16) 0.013(5)
H4_2 H -0.231(9) 0.3057(18) -0.079(5)
C4_2 C -0.4132(5) 0.25860(10) 0.0330(3)
O3_2 O -0.6269(4) 0.24838(8) -0.0461(2)
O4_2 O -0.3023(4) 0.22414(7) 0.1198(2)
Lu1_2 Lu -0.59652(2) 0.340833(4) 0.521439(12)
O7_2 O -0.2866(4) 0.38393(9) 0.6794(3)
H7_2 H -0.304(9) 0.4022(18) 0.747(5)
H8_2 H -0.155(10) 0.3877(19) 0.660(5)
O8_2 O -0.8013(4) 0.30923(8) 0.7173(2)
H9_2 H -0.935(8) 0.2985(15) 0.690(4)
H10_2 H -0.745(8) 0.2896(17) 0.787(5)
O3C O 0.3731(4) 0.25162(8) 0.4539(2)
O4C O 0.6977(4) 0.27586(7) 0.6198(2)
Lu1_3 Lu 1.40348(2) 0.340833(4) 0.521439(12)
Lu1C Lu 0.40348(2) 0.159167(4) 0.021439(12)
Lu1B Lu -0.40348(2) 0.659167(4) 0.478561(12)
Lu1C_2 Lu -0.59652(2) 0.159167(4) 0.021439(12)
O2_3 O -0.9959(4) 0.33613(10) 0.4103(3)
O3C_2 O -0.6269(4) 0.25162(8) 0.4539(2)
O4C_2 O -0.3023(4) 0.27586(7) 0.6198(2)
O5_2 O -0.8113(4) 0.41599(8) 0.6099(3)
O6_2 O -0.6422(5) 0.42179(9) 0.3963(3)
O9 O 0.7512(7) 0.44595(12) 0.9379(4)
H11 H 0.738(9) 0.477(2) 0.905(5)
H12 H 0.914(8) 0.4390(18) 0.993(5)
O10 O 0.2861(7) 0.44718(13) 0.0903(4)
H13 H 0.415(9) 0.4386(19) 0.050(5)
H14 H 0.302(10) 0.440(2) 0.187(6)
loop_
_geom_bond_atom_site_label_1
_geom_bond_atom_site_label_2
_geom_bond_site_symmetry_1
_geom_bond_site_symmetry_2
Lu1 O1 1_555 1_555
O1 C1 1_555 1_555
O2 C1 1_555 1_555
C1 C2 1_555 1_555
C2 H1 1_555 1_555
H2 C2 1_555 1_555
C3 C2 1_555 1_555
H3 C3 1_555 1_555
H4 C3 1_555 1_555
C4 C3 1_555 1_555
O3 C4 1_555 1_555
O4 C4 1_555 1_555
O5 Lu1 1_555 1_555
O6 Lu1 1_555 1_555
C5 O5 1_555 1_555
C6 C5 1_555 1_555
H5 C6 1_555 1_555
H6 C6 1_555 1_555
O7 Lu1 1_555 1_555
H7 O7 1_555 1_555
H8 O7 1_555 1_555
O8 Lu1 1_555 1_555
H9 O8 1_555 1_555
H10 O8 1_555 1_555
O9 H11 1_555 1_555
H12 O9 1_555 1_555
O10 H13 1_555 1_555
H14 O10 1_555 1_555
C6B C6 1_555 1_555
C5B C6B 1_555 1_555
O5B C5B 1_555 1_555
O6B C5B 1_555 1_555
H5B C6B 1_555 1_555
H6B C6B 1_555 1_555
O1_2 C1_2 1_555 1_555
O2_2 Lu1 1_555 1_555
C1_2 O2_2 1_555 1_555
C2_2 C1_2 1_555 1_555
H1_2 C2_2 1_555 1_555
H2_2 C2_2 1_555 1_555
C3_2 C2_2 1_555 1_555
H3_2 C3_2 1_555 1_555
H4_2 C3_2 1_555 1_555
C4_2 C3_2 1_555 1_555
O3_2 C4_2 1_555 1_555
O4_2 C4_2 1_555 1_555
Lu1_2 O1_2 1_555 1_555
O7_2 Lu1_2 1_555 1_555
H7_2 O7_2 1_555 1_555
H8_2 O7_2 1_555 1_555
O8_2 Lu1_2 1_555 1_555
H9_2 O8_2 1_555 1_555
H10_2 O8_2 1_555 1_555
O3C Lu1 1_555 1_555
O4C Lu1 1_555 1_555
Lu1_3 O2 1_555 1_555
Lu1C O3 1_555 1_555
Lu1B O5B 1_555 1_555
Lu1C_2 O3_2 1_555 1_555
O2_3 Lu1_2 1_555 1_555
O3C_2 Lu1_2 1_555 1_555
O4C_2 Lu1_2 1_555 1_555
O5_2 Lu1_2 1_555 1_555
O6_2 Lu1_2 1_555 1_555
O4 Lu1C 1_555 1_555
O6 C5 1_555 1_555
O6B Lu1B 1_555 1_555
O4_2 Lu1C_2 1_555 1_555

#END
