
#######################################################################
#
#                 Cambridge Crystallographic Data Centre
#                                CCDC 
#
#######################################################################
#
# If this CIF has been generated from an entry in the Cambridge 
# Structural Database, then it will include bibliographic, chemical, 
# crystal, experimental, refinement or atomic coordinate data resulting 
# from the CCDC's data processing and validation procedures.
#
#######################################################################

data_MUVGOA
_symmetry_cell_setting           orthorhombic
_symmetry_space_group_name_H-M   'P c c a'
_symmetry_Int_Tables_number      54
_space_group_name_Hall           '-P 2a 2ac'
loop_
_symmetry_equiv_pos_site_id
_symmetry_equiv_pos_as_xyz
1 x,y,z
2 1/2-x,-y,z
3 1/2+x,-y,1/2-z
4 -x,y,1/2-z
5 -x,-y,-z
6 1/2+x,y,-z
7 1/2-x,y,1/2+z
8 x,-y,1/2+z
_cell_length_a                   22.857(6)
_cell_length_b                   12.614(3)
_cell_length_c                   14.604(4)
_cell_angle_alpha                90
_cell_angle_beta                 90
_cell_angle_gamma                90
_cell_volume                     4210.6
loop_
_atom_site_label
_atom_site_type_symbol
_atom_site_fract_x
_atom_site_fract_y
_atom_site_fract_z
Zn1 Zn 0.2500 0.5000 0.23858(3)
N1 N 0.25175(8) 0.6203(2) 0.13683(18)
N2 N 0.24885(8) 0.6211(2) -0.15911(19)
N3 N 0.04160(17) 1.1388(2) -0.1496(3)
N4 N 0.15505(11) 0.50331(15) 0.23996(16)
N5 N 0.04757(16) 1.1406(2) 0.1444(2)
C1 C 0.13947(12) 0.8141(2) -0.08975(18)
C2 C 0.16429(11) 0.7757(2) -0.00828(15)
C3 C 0.23353(10) 0.65474(18) 0.07010(16)
C4 C 0.23168(10) 0.65509(19) -0.09176(16)
C9 C 0.21048(11) 0.69682(19) -0.01014(15)
C10 C 0.12414(11) 0.4147(2) 0.2234(2)
C11 C 0.06341(11) 0.4112(2) 0.22778(19)
C12 C 0.03251(12) 0.50335(16) 0.24770(18)
C13 C 0.14397(13) 0.8171(2) 0.07432(18)
C14 C 0.06457(11) 0.5954(2) 0.2634(2)
C15 C 0.03302(15) 1.0237(2) -0.0021(2)
C16 C 0.03714(13) 1.0914(2) -0.0839(2)
C17 C 0.04053(13) 1.0916(2) 0.0795(2)
C18 C 0.09781(13) 0.8943(2) -0.0874(2)
C19 C 0.07940(14) 0.9365(2) -0.00432(19)
C20 C 0.12535(12) 0.5907(2) 0.2596(2)
C23 C 0.10248(14) 0.8962(2) 0.0765(2)
H1 H 0.096(2) 0.927(4) 0.138(3)
H2 H 0.1598(16) 0.799(2) 0.132(2)
H3 H 0.1548(12) 0.790(2) -0.153(2)
H4 H 0.0811(17) 0.920(3) -0.149(3)
H5 H 0.0491(12) 0.348(2) 0.2040(19)
H6 H 0.1436(11) 0.362(2) 0.2042(19)
H7 H 0.1454(13) 0.649(2) 0.276(2)
H8 H 0.0482(14) 0.659(2) 0.293(2)
Zn1F Zn 0.2500 0.5000 -0.26142(3)
Zn1D Zn -0.2500 1.5000 -0.23858(3)
Zn1B Zn -0.2500 1.5000 0.26142(3)
Zn1B_2 Zn -0.2500 0.5000 0.26142(3)
N1D N -0.25175(8) 1.3797(2) -0.13683(18)
N1A N 0.24825(8) 0.3797(2) 0.13683(18)
N2D N -0.24885(8) 1.3789(2) 0.15911(19)
N2F N 0.25115(8) 0.6211(2) 0.34089(19)
N2G N 0.24885(8) 0.3789(2) 0.34089(19)
N3D N -0.04160(17) 0.8612(2) 0.1496(3)
N4C N -0.15505(11) 0.50331(15) 0.26004(16)
N4A N 0.34495(11) 0.49669(15) 0.23996(16)
N5D N -0.04757(16) 0.8594(2) -0.1444(2)
C1D C -0.13947(12) 1.1859(2) 0.08975(18)
C2D C -0.16429(11) 1.2243(2) 0.00828(15)
C3D C -0.23353(10) 1.34526(18) -0.07010(16)
C4D C -0.23168(10) 1.34491(19) 0.09176(16)
C9D C -0.21048(11) 1.30318(19) 0.01014(15)
C10C C -0.12414(11) 0.4147(2) 0.2766(2)
C11C C -0.06341(11) 0.4112(2) 0.27222(19)
C12C C -0.03251(12) 0.50335(16) 0.25230(18)
C13D C -0.14397(13) 1.1829(2) -0.07432(18)
C14C C -0.06457(11) 0.5954(2) 0.2366(2)
C15D C -0.03302(15) 0.9763(2) 0.0021(2)
C16D C -0.03714(13) 0.9086(2) 0.0839(2)
C17D C -0.04053(13) 0.9084(2) -0.0795(2)
C18D C -0.09781(13) 1.1057(2) 0.0874(2)
C19D C -0.07940(14) 1.0635(2) 0.00432(19)
C20C C -0.12535(12) 0.5907(2) 0.2404(2)
C23D C -0.10248(14) 1.1038(2) -0.0765(2)
H1D H -0.096(2) 1.073(4) -0.138(3)
H2D H -0.1598(16) 1.201(2) -0.132(2)
H3D H -0.1548(12) 1.210(2) 0.153(2)
H4D H -0.0811(17) 1.080(3) 0.149(3)
H5C H -0.0491(12) 0.348(2) 0.2960(19)
H6C H -0.1436(11) 0.362(2) 0.2958(19)
H7C H -0.1454(13) 0.649(2) 0.224(2)
H8C H -0.0482(14) 0.659(2) 0.207(2)
F1 F 0.6184(5) 0.5144(6) 0.0113(5)
F2 F 0.5682(4) 0.3249(6) 0.0062(3)
C5 C 0.5616(4) 0.5064(5) 0.0057(4)
C6 C 0.5361(3) 0.4097(5) 0.0038(4)
C7 C 0.5249(5) 0.5989(6) 0.0006(4)
F1D F 0.3816(5) 0.4856(6) -0.0113(5)
F2D F 0.4318(4) 0.6751(6) -0.0062(3)
C5D C 0.4384(4) 0.4936(5) -0.0057(4)
C6D C 0.4639(3) 0.5903(5) -0.0038(4)
C7D C 0.4751(5) 0.4011(6) -0.0006(4)
F3 F 0.6805(4) 0.1287(6) 0.0034(7)
F4 F 0.6832(3) 0.1280(6) 0.1970(5)
C8 C 0.7500 0.0000 -0.0010(5)
C21 C 0.7153(2) 0.0638(5) 0.0461(6)
C22 C 0.7170(2) 0.0629(5) 0.1500(4)
C24 C 0.7500 0.0000 0.1909(6)
F3A F 0.8195(4) -0.1287(6) 0.0034(7)
F4A F 0.8168(3) -0.1280(6) 0.1970(5)
C21A C 0.7847(2) -0.0638(5) 0.0461(6)
C22A C 0.7830(2) -0.0629(5) 0.1500(4)
loop_
_geom_bond_atom_site_label_1
_geom_bond_atom_site_label_2
_geom_bond_site_symmetry_1
_geom_bond_site_symmetry_2
Zn1 N1 1_555 1_555
F1 C5 1_555 1_555
F2 C6 1_555 1_555
F3 C21 1_555 1_555
F4 C22 1_555 1_555
N1 C3 1_555 1_555
N2 C4 1_555 1_555
N3 C16 1_555 1_555
N4 Zn1 1_555 1_555
N5 C17 1_555 1_555
C1 C2 1_555 1_555
C2 C9 1_555 1_555
C3 C9 1_555 1_555
C4 C9 1_555 1_555
C5 C6 1_555 1_555
C6 C7D 1_555 1_555
C7 C5 1_555 1_555
C8 C21 1_555 1_555
C10 N4 1_555 1_555
C11 C10 1_555 1_555
C12 C11 1_555 1_555
C13 C2 1_555 1_555
C14 C12 1_555 1_555
C15 C16 1_555 1_555
C17 C15 1_555 1_555
C18 C1 1_555 1_555
C19 C15 1_555 1_555
C20 N4 1_555 1_555
C21 C22 1_555 1_555
C22 C24 1_555 1_555
C23 C13 1_555 1_555
C24 C22A 1_555 1_555
H1 C23 1_555 1_555
H2 C13 1_555 1_555
H3 C1 1_555 1_555
H4 C18 1_555 1_555
H5 C11 1_555 1_555
H6 C10 1_555 1_555
H7 C20 1_555 1_555
H8 C14 1_555 1_555
Zn1F N2 1_555 1_555
Zn1D N1D 1_555 1_555
Zn1B N2D 1_555 1_555
Zn1B_2 N4C 1_555 1_555
F1D C5D 1_555 1_555
F2D C6D 1_555 1_555
F3A C21A 1_555 1_555
F4A C22A 1_555 1_555
N1D C3D 1_555 1_555
N1A Zn1 1_555 1_555
N2D C4D 1_555 1_555
N2F Zn1 1_555 1_555
N2G Zn1 1_555 1_555
N3D C16D 1_555 1_555
N4C C10C 1_555 1_555
N4A Zn1 1_555 1_555
N5D C17D 1_555 1_555
C1D C2D 1_555 1_555
C2D C9D 1_555 1_555
C3D C9D 1_555 1_555
C4D C9D 1_555 1_555
C5D C6D 1_555 1_555
C6D C7 1_555 1_555
C7D C5D 1_555 1_555
C10C C11C 1_555 1_555
C11C C12C 1_555 1_555
C12C C12 1_555 1_555
C13D C2D 1_555 1_555
C14C C12C 1_555 1_555
C15D C15 1_555 1_555
C16D C15D 1_555 1_555
C17D C15D 1_555 1_555
C18D C1D 1_555 1_555
C19D C15D 1_555 1_555
C20C N4C 1_555 1_555
C21A C8 1_555 1_555
C22A C21A 1_555 1_555
C23D C13D 1_555 1_555
H1D C23D 1_555 1_555
H2D C13D 1_555 1_555
H3D C1D 1_555 1_555
H4D C18D 1_555 1_555
H5C C11C 1_555 1_555
H6C C10C 1_555 1_555
H7C C20C 1_555 1_555
H8C C14C 1_555 1_555
C14 C20 1_555 1_555
C18 C19 1_555 1_555
C19 C23 1_555 1_555
C14C C20C 1_555 1_555
C18D C19D 1_555 1_555
C19D C23D 1_555 1_555

#END
