
#######################################################################
#
#                 Cambridge Crystallographic Data Centre
#                                CCDC 
#
#######################################################################
#
# If this CIF has been generated from an entry in the Cambridge 
# Structural Database, then it will include bibliographic, chemical, 
# crystal, experimental, refinement or atomic coordinate data resulting 
# from the CCDC's data processing and validation procedures.
#
#######################################################################

data_NADNEM
_symmetry_cell_setting           cubic
_symmetry_space_group_name_H-M   'P 21 3'
_symmetry_Int_Tables_number      198
_space_group_name_Hall           'P 2ac 2ab 3'
loop_
_symmetry_equiv_pos_site_id
_symmetry_equiv_pos_as_xyz
1 x,y,z
2 1/2-x,-y,1/2+z
3 -x,1/2+y,1/2-z
4 1/2+x,1/2-y,-z
5 z,x,y
6 1/2+z,1/2-x,-y
7 1/2-z,-x,1/2+y
8 -z,1/2+x,1/2-y
9 y,z,x
10 -y,1/2+z,1/2-x
11 1/2+y,1/2-z,-x
12 1/2-y,-z,1/2+x
_cell_length_a                   15.6597(16)
_cell_length_b                   15.6597(16)
_cell_length_c                   15.6597(16)
_cell_angle_alpha                90
_cell_angle_beta                 90
_cell_angle_gamma                90
_cell_volume                     3840.17
loop_
_atom_site_label
_atom_site_type_symbol
_atom_site_fract_x
_atom_site_fract_y
_atom_site_fract_z
Ag1 Ag 0.702140(13) 0.297860(13) 0.797860(13)
P1 P 0.61228(5) 0.38772(5) 0.88772(5)
N1 N 0.58526(15) 0.19451(17) 0.55729(15)
C1 C 0.5827(2) 0.13664(18) 0.48715(18)
C2 C 0.5176(2) 0.1427(2) 0.4282(2)
H1 H 0.4776 0.1864 0.4318
C3 C 0.6715(2) 0.4630(2) 0.9540(2)
C4 C 0.6543(3) 0.5483(2) 0.9606(3)
H2 H 0.6085 0.5712 0.9305
C5 C 0.7397(3) 0.4308(3) 0.9996(3)
H3 H 0.7536 0.3732 0.9960
C6 C 0.7034(3) 0.6007(3) 1.0108(3)
H4 H 0.6910 0.6587 1.0139
C7 C 0.7699(3) 0.5683(4) 1.0557(4)
H5 H 0.8032 0.6039 1.0897
C8 C 0.7873(3) 0.4852(4) 1.0510(3)
H6 H 0.8323 0.4631 1.0828
C9 C 0.65064(19) 0.2080(2) 0.61207(19)
H7 H 0.7042 0.1830 0.6064
N2 N 0.63011(17) 0.26015(17) 0.67378(16)
C10 C 0.5465(2) 0.2818(2) 0.6576(2)
H8 H 0.5140 0.3186 0.6911
C11 C 0.5185(2) 0.2427(3) 0.5874(2)
H9 H 0.4644 0.2472 0.5634
C3F C 0.5460(2) 0.3285(2) 0.9630(2)
C4F C 0.5394(3) 0.3457(3) 1.0483(2)
H2F H 0.5695 0.3915 1.0712
C6F C 0.4892(3) 0.2966(3) 1.1007(3)
H4F H 0.4861 0.3090 1.1587
C7F C 0.4443(4) 0.2301(3) 1.0683(4)
H5F H 0.4103 0.1968 1.1039
C8F C 0.4490(3) 0.2127(3) 0.9852(4)
C5F C 0.5004(3) 0.2603(3) 0.9308(3)
H3F H 0.5040 0.2464 0.8732
H6F H 0.4172 0.1677 0.9631
C3I C 0.5370(2) 0.4540(2) 0.8285(2)
C4I C 0.4517(2) 0.4606(3) 0.8457(3)
H2I H 0.4288 0.4305 0.8915
C6I C 0.3993(3) 0.5108(3) 0.7966(3)
H4I H 0.3413 0.5139 0.8090
C7I C 0.4317(4) 0.5557(4) 0.7301(3)
H5I H 0.3961 0.5897 0.6968
C8I C 0.5148(4) 0.5510(3) 0.7127(3)
C5I C 0.5692(3) 0.4996(3) 0.7603(3)
H3I H 0.6268 0.4960 0.7464
H6I H 0.5369 0.5828 0.6677
C1G C 0.51285(18) 0.0827(2) 0.36336(18)
N1G N 0.44271(15) 0.08526(15) 0.30549(17)
C9G C 0.38793(19) 0.15064(19) 0.2920(2)
H7G H 0.3936 0.2042 0.3170
N2G N 0.32622(16) 0.13011(17) 0.23985(17)
C10G C 0.3424(2) 0.0465(2) 0.2182(2)
H8G H 0.3089 0.0140 0.1814
C11G C 0.4126(2) 0.0185(2) 0.2573(3)
H9G H 0.4366 -0.0356 0.2528
C2G C 0.5718(2) 0.0176(2) 0.3573(2)
C1J C 0.63664(18) 0.01285(18) 0.4173(2)
N1J N 0.69451(17) -0.05729(15) 0.41474(15)
C9J C 0.7080(2) -0.11207(19) 0.34936(19)
H7J H 0.6830 -0.1064 0.2958
N2J N 0.76015(17) -0.17378(16) 0.36989(17)
C10J C 0.7818(2) -0.1576(2) 0.4535(2)
H8J H 0.8186 -0.1911 0.4860
C11J C 0.7427(3) -0.0874(2) 0.4815(2)
H9J H 0.7472 -0.0634 0.5356
C2J C 0.6427(2) 0.0718(2) 0.4824(2)
H1J H 0.6864 0.0682 0.5224
H1G H 0.5682 -0.0224 0.3136
N2F N 0.82622(16) 0.36989(17) 0.76015(17)
N2I N 0.73985(17) 0.17378(16) 0.86989(17)
Ag1C Ag 0.202140(13) 0.202140(13) 0.202140(13)
Ag1A Ag 0.797860(13) -0.297860(13) 0.297860(13)
S1 S 0.88665(5) 0.11335(5) 0.61335(5)
O1 O 0.81073(16) 0.06441(16) 0.62554(17)
F1 F 1.0290(2) 0.0798(3) 0.5380(3)
C12 C 0.9527(3) 0.0473(3) 0.5473(3)
O1F O 0.87446(17) 0.18927(16) 0.56441(16)
O1I O 0.93559(16) 0.12554(17) 0.68927(16)
F1I F 0.9202(3) 0.0380(3) 0.4710(2)
F1F F 0.9620(3) -0.0290(2) 0.5798(3)
loop_
_geom_bond_atom_site_label_1
_geom_bond_atom_site_label_2
_geom_bond_site_symmetry_1
_geom_bond_site_symmetry_2
Ag1 P1 1_555 1_555
S1 O1 1_555 1_555
P1 C3 1_555 1_555
N1 C1 1_555 1_555
C1 C2 1_555 1_555
C2 H1 1_555 1_555
C3 C4 1_555 1_555
C4 H2 1_555 1_555
C5 C3 1_555 1_555
H3 C5 1_555 1_555
C6 C4 1_555 1_555
H4 C6 1_555 1_555
C7 C6 1_555 1_555
H5 C7 1_555 1_555
C8 C5 1_555 1_555
H6 C8 1_555 1_555
C9 N1 1_555 1_555
H7 C9 1_555 1_555
N2 Ag1 1_555 1_555
C10 N2 1_555 1_555
H8 C10 1_555 1_555
C11 N1 1_555 1_555
H9 C11 1_555 1_555
F1 C12 1_555 1_555
C12 S1 1_555 1_555
O1F S1 1_555 1_555
O1I S1 1_555 1_555
F1I C12 1_555 1_555
F1F C12 1_555 1_555
C3F P1 1_555 1_555
C4F C3F 1_555 1_555
H2F C4F 1_555 1_555
C6F C4F 1_555 1_555
H4F C6F 1_555 1_555
C7F C6F 1_555 1_555
H5F C7F 1_555 1_555
C8F C7F 1_555 1_555
C5F C3F 1_555 1_555
H3F C5F 1_555 1_555
H6F C8F 1_555 1_555
C3I P1 1_555 1_555
C4I C3I 1_555 1_555
H2I C4I 1_555 1_555
C6I C4I 1_555 1_555
H4I C6I 1_555 1_555
C7I C6I 1_555 1_555
H5I C7I 1_555 1_555
C8I C7I 1_555 1_555
C5I C3I 1_555 1_555
H3I C5I 1_555 1_555
H6I C8I 1_555 1_555
C1G C2 1_555 1_555
N1G C1G 1_555 1_555
C9G N1G 1_555 1_555
H7G C9G 1_555 1_555
N2G C9G 1_555 1_555
C10G N2G 1_555 1_555
H8G C10G 1_555 1_555
C11G N1G 1_555 1_555
H9G C11G 1_555 1_555
C2G C1G 1_555 1_555
C1J C2G 1_555 1_555
N1J C1J 1_555 1_555
C9J N1J 1_555 1_555
H7J C9J 1_555 1_555
N2J C9J 1_555 1_555
C10J N2J 1_555 1_555
H8J C10J 1_555 1_555
C11J N1J 1_555 1_555
H9J C11J 1_555 1_555
C2J C1 1_555 1_555
H1J C2J 1_555 1_555
H1G C2G 1_555 1_555
N2F Ag1 1_555 1_555
N2I Ag1 1_555 1_555
Ag1C N2G 1_555 1_555
Ag1A N2J 1_555 1_555
C7 C8 1_555 1_555
C9 N2 1_555 1_555
C10 C11 1_555 1_555
C8F C5F 1_555 1_555
C8I C5I 1_555 1_555
C10G C11G 1_555 1_555
C1J C2J 1_555 1_555
C10J C11J 1_555 1_555

#END
