
#######################################################################
#
#                 Cambridge Crystallographic Data Centre
#                                CCDC 
#
#######################################################################
#
# If this CIF has been generated from an entry in the Cambridge 
# Structural Database, then it will include bibliographic, chemical, 
# crystal, experimental, refinement or atomic coordinate data resulting 
# from the CCDC's data processing and validation procedures.
#
#######################################################################

data_NADZID
_symmetry_cell_setting           monoclinic
_symmetry_space_group_name_H-M   'P 21/n'
_symmetry_Int_Tables_number      14
_space_group_name_Hall           '-P 2yn'
loop_
_symmetry_equiv_pos_site_id
_symmetry_equiv_pos_as_xyz
1 x,y,z
2 1/2-x,1/2+y,1/2-z
3 -x,-y,-z
4 1/2+x,1/2-y,1/2+z
_cell_length_a                   8.8326(18)
_cell_length_b                   10.159(2)
_cell_length_c                   13.979(3)
_cell_angle_alpha                90
_cell_angle_beta                 90.00(3)
_cell_angle_gamma                90
_cell_volume                     1254.34
loop_
_atom_site_label
_atom_site_type_symbol
_atom_site_fract_x
_atom_site_fract_y
_atom_site_fract_z
Y1 Y 0.25011(11) 0.50007(12) 0.11321(7)
C1 C -0.1061(12) 0.3637(12) 0.0921(9)
C2 C -0.1912(13) 0.3041(12) 0.1733(8)
C3 C -0.3491(14) 0.3048(14) 0.1730(10)
H1 H -0.4021 0.3432 0.1228
C4 C -0.4265(14) 0.2467(15) 0.2496(11)
C5 C -0.1061(13) 0.1342(12) 0.4086(8)
C6 C -0.1924(12) 0.1968(12) 0.3262(9)
C7 C -0.1134(13) 0.2504(13) 0.2490(9)
H2 H -0.0081 0.2497 0.2488
C8 C -0.3498(14) 0.1938(13) 0.3268(10)
H3 H -0.4023 0.1572 0.3779
C9 C -0.598(2) 0.241(2) 0.2442(14)
O1 O 0.0273(9) 0.3975(10) 0.1063(6)
O2 O 0.258(5) 0.500(4) 0.278(3)
O3 O -0.6657(18) 0.3255(16) 0.1918(11)
O4 O 0.0273(9) 0.1012(9) 0.3935(6)
O5 O -0.1740(10) 0.3780(10) 0.0139(6)
O6 O -0.1740(10) 0.1221(10) 0.4857(7)
O7 O -0.6645(17) 0.1748(15) 0.3078(11)
Y1_2 Y -0.74989(11) 0.50007(12) 0.11321(7)
Y1A Y 0.24989(11) 0.00007(12) 0.38679(7)
Y1B Y -0.25011(11) 0.49993(12) -0.11321(7)
Y1C Y -0.24989(11) -0.00007(12) 0.61321(7)
Y1A_2 Y -0.75011(11) 0.00007(12) 0.38679(7)
O3_2 O 0.3343(18) 0.3255(16) 0.1918(11)
O4A O 0.4727(9) 0.6012(9) 0.1065(6)
O5B O 0.1740(10) 0.6220(10) -0.0139(6)
O6C O 0.3260(10) 0.3779(10) -0.0143(7)
O7A O 0.1645(17) 0.6748(15) 0.1922(11)
loop_
_geom_bond_atom_site_label_1
_geom_bond_atom_site_label_2
_geom_bond_site_symmetry_1
_geom_bond_site_symmetry_2
Y1 O1 1_555 1_555
C1 C2 1_555 1_555
C2 C3 1_555 1_555
C3 H1 1_555 1_555
C4 C3 1_555 1_555
C5 C6 1_555 1_555
C6 C7 1_555 1_555
C7 C2 1_555 1_555
H2 C7 1_555 1_555
C8 C4 1_555 1_555
H3 C8 1_555 1_555
C9 C4 1_555 1_555
O1 C1 1_555 1_555
O2 Y1 1_555 1_555
O3 C9 1_555 1_555
O4 C5 1_555 1_555
O5 C1 1_555 1_555
O6 C5 1_555 1_555
O7 C9 1_555 1_555
Y1_2 O3 1_555 1_555
Y1A O4 1_555 1_555
Y1B O5 1_555 1_555
Y1C O6 1_555 1_555
Y1A_2 O7 1_555 1_555
O3_2 Y1 1_555 1_555
O4A Y1 1_555 1_555
O5B Y1 1_555 1_555
O6C Y1 1_555 1_555
O7A Y1 1_555 1_555
C6 C8 1_555 1_555

#END
