
#######################################################################
#
#                 Cambridge Crystallographic Data Centre
#                                CCDC 
#
#######################################################################
#
# If this CIF has been generated from an entry in the Cambridge 
# Structural Database, then it will include bibliographic, chemical, 
# crystal, experimental, refinement or atomic coordinate data resulting 
# from the CCDC's data processing and validation procedures.
#
#######################################################################

data_NALWOO
_symmetry_cell_setting           orthorhombic
_symmetry_space_group_name_H-M   'P n a 21'
_symmetry_Int_Tables_number      33
_space_group_name_Hall           'P 2c -2n'
loop_
_symmetry_equiv_pos_site_id
_symmetry_equiv_pos_as_xyz
1 x,y,z
2 -x,-y,1/2+z
3 1/2-x,1/2+y,1/2+z
4 1/2+x,1/2-y,z
_cell_length_a                   7.3162(11)
_cell_length_b                   19.404(3)
_cell_length_c                   26.155(4)
_cell_angle_alpha                90
_cell_angle_beta                 90
_cell_angle_gamma                90
_cell_volume                     3713.06
loop_
_atom_site_label
_atom_site_type_symbol
_atom_site_fract_x
_atom_site_fract_y
_atom_site_fract_z
Ba1 Ba 0.60171(4) 0.306261(14) 0.00702(3)
O1 O 0.2503(7) 0.3169(2) 0.0483(2)
C1 C -0.0979(9) 0.6884(3) 0.1962(3)
C2 C -0.0897(8) 0.8745(3) 0.0060(5)
H1 H -0.1318 0.8749 -0.0280
O2 O -0.0268(6) 0.3283(2) 0.0143(3)
C3 C -0.0921(11) 0.8134(4) 0.0344(3)
H2 H -0.1292 0.7724 0.0182
O3 O 0.0609(8) 1.0519(3) 0.0199(2)
C4 C -0.1579(12) 0.6870(3) 0.2512(3)
C5 C -0.2677(10) 0.6840(3) 0.3543(3)
C6 C -0.0048(10) 0.6834(3) 0.0934(3)
H3 H 0.0202 0.6816 0.0581
C7 C -0.2496(10) 0.6284(3) 0.2712(3)
H4 H -0.2709 0.5905 0.2496
O4 O 0.6413(14) 0.3293(6) 0.1103(4)
C8 C -0.1287(9) 0.7421(4) 0.2830(3)
H5 H -0.0697 0.7816 0.2703
C9 C -0.0398(9) 0.6265(3) 0.1744(3)
H6 H -0.0300 0.5866 0.1945
C10 C 0.0043(9) 0.6243(3) 0.1218(3)
C11 C -0.3073(11) 0.6256(4) 0.3201(3)
H7 H -0.3716 0.5870 0.3322
C12 C -0.0980(9) 0.7479(4) 0.1672(3)
H8 H -0.1307 0.7900 0.1825
C13 C -0.0509(9) 0.7468(3) 0.1161(2)
O5 O -0.4292(7) 0.6296(3) 0.4229(2)
O6 O -0.3069(7) 0.7332(3) 0.43613(18)
C14 C -0.0412(12) 0.8109(3) 0.0860(3)
C15 C -0.1866(10) 0.7401(3) 0.3347(2)
H9 H -0.1678 0.7789 0.3556
C16 C -0.3354(11) 0.6819(3) 0.4088(3)
C17 C -0.0138(9) 1.0004(3) 0.0013(4)
O7 O -0.0926(7) 1.0018(3) -0.0439(2)
H10 H -0.0274 1.0237 -0.0642
C18 C -0.0247(9) 0.9344(3) 0.0284(3)
C19 C 0.0484(9) 0.5556(3) 0.0985(3)
C20 C 0.0254(10) 0.8723(3) 0.1072(3)
H11 H 0.0664 0.8725 0.1413
C21 C 0.1504(11) 0.5087(4) 0.1241(3)
H12 H 0.2034 0.5207 0.1556
C22 C -0.0246(10) 0.5381(3) 0.0507(3)
H13 H -0.0888 0.5713 0.0317
C23 C 0.1778(11) 0.4425(4) 0.1042(3)
H14 H 0.2498 0.4104 0.1220
C24 C 0.0322(10) 0.9322(4) 0.0792(3)
H15 H 0.0762 0.9727 0.0947
C25 C -0.0036(10) 0.4739(3) 0.0314(2)
H16 H -0.0582 0.4625 0.0000
C26 C 0.0978(8) 0.4243(4) 0.0576(3)
C27 C 0.1092(9) 0.3503(4) 0.0392(3)
Ba1C Ba 0.10171(4) 0.193739(14) 0.00702(3)
Ba1_2 Ba -0.39829(4) 0.306261(14) 0.00702(3)
Ba1C_2 Ba 0.10171(4) 1.193739(14) 0.00702(3)
Ba1A Ba -0.60171(4) 0.693739(14) 0.50702(3)
Ba1B Ba -0.10171(4) 0.806261(14) 0.50702(3)
O1C O 0.7503(7) 0.1831(2) 0.0483(2)
O2_2 O 0.9732(6) 0.3283(2) 0.0143(3)
O2C O 0.4732(6) 0.1717(2) 0.0143(3)
O3C O 0.5609(8) 0.4481(3) 0.0199(2)
O5A O 0.4292(7) 0.3704(3) -0.0771(2)
O6A O 0.3069(7) 0.2668(3) -0.06387(18)
O6B O 0.8069(7) 0.2332(3) -0.06387(18)
loop_
_geom_bond_atom_site_label_1
_geom_bond_atom_site_label_2
_geom_bond_site_symmetry_1
_geom_bond_site_symmetry_2
Ba1 O1 1_555 1_555
O1 C27 1_555 1_555
C1 C4 1_555 1_555
C2 H1 1_555 1_555
O2 C27 1_555 1_555
C3 C2 1_555 1_555
H2 C3 1_555 1_555
O3 C17 1_555 1_555
C4 C7 1_555 1_555
C5 C11 1_555 1_555
C6 H3 1_555 1_555
C7 H4 1_555 1_555
O4 Ba1 1_555 1_555
C8 C4 1_555 1_555
H5 C8 1_555 1_555
C9 C1 1_555 1_555
H6 C9 1_555 1_555
C10 C6 1_555 1_555
C11 C7 1_555 1_555
H7 C11 1_555 1_555
C12 C1 1_555 1_555
H8 C12 1_555 1_555
C13 C6 1_555 1_555
O5 C16 1_555 1_555
O6 C16 1_555 1_555
C14 C3 1_555 1_555
C15 C5 1_555 1_555
H9 C15 1_555 1_555
C16 C5 1_555 1_555
C17 O7 1_555 1_555
O7 H10 1_555 1_555
C18 C2 1_555 1_555
C19 C10 1_555 1_555
C20 C14 1_555 1_555
H11 C20 1_555 1_555
C21 C19 1_555 1_555
H12 C21 1_555 1_555
C22 C19 1_555 1_555
H13 C22 1_555 1_555
C23 C21 1_555 1_555
H14 C23 1_555 1_555
C24 C18 1_555 1_555
H15 C24 1_555 1_555
C25 C22 1_555 1_555
H16 C25 1_555 1_555
C26 C23 1_555 1_555
C27 C26 1_555 1_555
Ba1C O1 1_555 1_555
Ba1_2 O2 1_555 1_555
Ba1C_2 O3 1_555 1_555
Ba1A O5 1_555 1_555
Ba1B O6 1_555 1_555
O1C Ba1 1_555 1_555
O2_2 Ba1 1_555 1_555
O2C Ba1 1_555 1_555
O3C Ba1 1_555 1_555
O5A Ba1 1_555 1_555
O6A Ba1 1_555 1_555
O6B Ba1 1_555 1_555
O2 Ba1C 1_555 1_555
C8 C15 1_555 1_555
C9 C10 1_555 1_555
C12 C13 1_555 1_555
C13 C14 1_555 1_555
O6 Ba1A 1_555 1_555
C17 C18 1_555 1_555
C20 C24 1_555 1_555
C25 C26 1_555 1_555
Ba1C O2C 1_555 1_555
Ba1C O6A 1_555 1_555

#END
