
#######################################################################
#
#                 Cambridge Crystallographic Data Centre
#                                CCDC 
#
#######################################################################
#
# If this CIF has been generated from an entry in the Cambridge 
# Structural Database, then it will include bibliographic, chemical, 
# crystal, experimental, refinement or atomic coordinate data resulting 
# from the CCDC's data processing and validation procedures.
#
#######################################################################

data_NASCIV
_symmetry_cell_setting           tetragonal
_symmetry_space_group_name_H-M   'I -4 c 2'
_symmetry_Int_Tables_number      120
_space_group_name_Hall           'I -4 -2c'
loop_
_symmetry_equiv_pos_site_id
_symmetry_equiv_pos_as_xyz
1 x,y,z
2 -x,-y,z
3 y,-x,-z
4 -y,x,-z
5 x,-y,1/2+z
6 -x,y,1/2+z
7 y,x,1/2-z
8 -y,-x,1/2-z
9 1/2+x,1/2+y,1/2+z
10 1/2-x,1/2-y,1/2+z
11 1/2+y,1/2-x,1/2-z
12 1/2-y,1/2+x,1/2-z
13 1/2+x,1/2-y,z
14 1/2-x,1/2+y,z
15 1/2+y,1/2+x,-z
16 1/2-y,1/2-x,-z
_cell_length_a                   18.2313(15)
_cell_length_b                   18.2313(15)
_cell_length_c                   9.5189(16)
_cell_angle_alpha                90
_cell_angle_beta                 90
_cell_angle_gamma                90
_cell_volume                     3163.89
loop_
_atom_site_label
_atom_site_type_symbol
_atom_site_fract_x
_atom_site_fract_y
_atom_site_fract_z
Cd1 Cd 0.87358(2) 0.71703(2) 0.82412(5)
C1 C 0.8362(4) 0.5431(4) 0.7508(7)
H1 H 0.8592 0.5479 0.6617
C2 C 0.8257(4) 0.6743(4) 0.5000
H2 H 0.8626 0.6374 0.5000
C3 C 0.8894(5) 0.8894(5) 0.7500
C4 C 0.9477(6) 0.9477(6) 0.7500
C5 C 0.9303(6) 1.0189(5) 0.7500(15)
H3 H 0.8802 1.0330 0.7500
N1 N 0.8336(3) 0.5941(3) 0.8472(6)
N2 N 0.7951(4) 0.5706(3) 0.9570(6)
N3 N 0.7753(4) 0.5020(6) 0.9215(9)
N4 N 0.8015(4) 0.4836(3) 0.7967(6)
N5 N 0.8128(3) 0.7183(3) 0.6059(6)
N6 N 0.7576(3) 0.7607(4) 0.5621(6)
O1 O 0.8989(4) 0.8354(4) 0.8230(10)
Cd1O Cd 0.78297(2) 0.62642(2) 1.17588(5)
Cd1J Cd 1.21703(2) 0.62642(2) 0.67588(5)
Cd1E Cd 1.12642(2) 0.71703(2) 0.32412(5)
Cd1K Cd 0.78297(2) 0.37358(2) 0.67588(5)
Cd1F Cd 0.71703(2) 0.87358(2) 0.67588(5)
Cd1I Cd 0.62642(2) 0.78297(2) 0.32412(5)
Cd1O_2 Cd 0.78297(2) 0.62642(2) 0.17588(5)
Cd1G Cd 1.28297(2) 1.12642(2) 0.67588(5)
Cd1A Cd 1.12642(2) 1.28297(2) 0.82412(5)
Cd1E_2 Cd 1.12642(2) 0.71703(2) 1.32412(5)
Cd1I_2 Cd 0.62642(2) 0.78297(2) 1.32412(5)
Cd1D Cd 0.87358(2) 0.28297(2) 1.32412(5)
Cd1K_2 Cd 0.78297(2) 0.37358(2) 1.67588(5)
C1O C 0.9569(4) 0.6638(4) 1.2492(7)
C1J C 1.0431(4) 0.6638(4) 0.7492(7)
C1D C 0.8362(4) 0.4569(4) 1.2508(7)
H1O H 0.9521 0.6408 1.3383
H1J H 1.0479 0.6408 0.8383
H1D H 0.8592 0.4521 1.1617
C2F C 0.6743(4) 0.8257(4) 1.0000
H2F H 0.6374 0.8626 1.0000
C3A C 1.1106(5) 1.1106(5) 0.7500
C4A C 1.0523(6) 1.0523(6) 0.7500
C5G C 0.9811(5) 1.0697(6) 0.7500(15)
C5A C 1.0697(6) 0.9811(5) 0.7500(15)
C5F C 1.0189(5) 0.9303(6) 0.7500(15)
H3F H 1.0330 0.8802 0.7500
H3A H 1.1198 0.9670 0.7500
H3G H 0.9670 1.1198 0.7500
N1O N 0.9059(3) 0.6664(3) 1.1528(6)
N1J N 1.0941(3) 0.6664(3) 0.6528(6)
N1D N 0.8336(3) 0.4059(3) 1.3472(6)
N1E N 1.1664(3) 0.5941(3) 0.3472(6)
N2O N 0.9294(3) 0.7049(4) 1.0430(6)
N2J N 1.0706(3) 0.7049(4) 0.5430(6)
N2D N 0.7951(4) 0.4294(3) 1.4570(6)
N2E N 1.2049(4) 0.5706(3) 0.4570(6)
N3O N 0.9980(6) 0.7247(4) 1.0785(9)
N3J N 1.0020(6) 0.7247(4) 0.5785(9)
N3D N 0.7753(4) 0.4980(6) 1.4215(9)
N4O N 1.0164(3) 0.6985(4) 1.2033(6)
N4J N 0.9836(3) 0.6985(4) 0.7033(6)
N4D N 0.8015(4) 0.5164(3) 1.2967(6)
N4A N 1.1985(4) 0.5164(3) 0.7967(6)
N4O_2 N 1.0164(3) 0.6985(4) 0.2033(6)
N5O N 0.7817(3) 0.6872(3) 0.3941(6)
N5F N 0.7183(3) 0.8128(3) 0.8941(6)
N5I N 0.6872(3) 0.7817(3) 1.1059(6)
N5O_2 N 0.7817(3) 0.6872(3) 1.3941(6)
N5J N 1.2183(3) 0.6872(3) 0.8941(6)
N5E N 1.1872(3) 0.7183(3) 0.1059(6)
N6O N 0.7393(4) 0.7424(3) 0.4379(6)
N6F N 0.7607(4) 0.7576(3) 0.9379(6)
N6I N 0.7424(3) 0.7393(4) 1.0621(6)
N6L N 1.2576(3) 0.7393(4) 0.5621(6)
N6C N 1.2393(4) 0.7576(3) 0.4379(6)
O1G O 1.1646(4) 1.1011(4) 0.6770(10)
O1A O 1.1011(4) 1.1646(4) 0.8230(10)
O1F O 0.8354(4) 0.8989(4) 0.6770(10)
O1O O 0.6646(4) 0.6011(4) 1.1770(10)
O1J O 1.3354(4) 0.6011(4) 0.6770(10)
O1E O 1.1011(4) 0.8354(4) 0.3230(10)
loop_
_geom_bond_atom_site_label_1
_geom_bond_atom_site_label_2
_geom_bond_site_symmetry_1
_geom_bond_site_symmetry_2
Cd1 N1 1_555 1_555
C1 H1 1_555 1_555
C2 H2 1_555 1_555
C3 C4 1_555 1_555
C4 C5 1_555 1_555
C5 H3 1_555 1_555
N1 C1 1_555 1_555
N2 N1 1_555 1_555
N3 N2 1_555 1_555
N4 C1 1_555 1_555
N5 Cd1 1_555 1_555
N6 N5 1_555 1_555
O1 Cd1 1_555 1_555
Cd1O N2 1_555 1_555
Cd1J N1J 1_555 1_555
Cd1E N1E 1_555 1_555
Cd1K N4 1_555 1_555
Cd1F N6 1_555 1_555
Cd1I N6O 1_555 1_555
Cd1O_2 N5O 1_555 1_555
Cd1G O1G 1_555 1_555
Cd1A O1A 1_555 1_555
Cd1E_2 N4O 1_555 1_555
Cd1I_2 N5I 1_555 1_555
Cd1D N1D 1_555 1_555
Cd1K_2 N2D 1_555 1_555
C1O H1O 1_555 1_555
C1J H1J 1_555 1_555
C1D H1D 1_555 1_555
C2F H2F 1_555 1_555
C3A C4A 1_555 1_555
C4A C5G 1_555 1_555
C5G C5 1_555 1_555
C5A C4A 1_555 1_555
C5F C4 1_555 1_555
H3F C5F 1_555 1_555
H3A C5A 1_555 1_555
H3G C5G 1_555 1_555
N1O Cd1O 1_555 1_555
N1J C1J 1_555 1_555
N1D C1D 1_555 1_555
N1E N2E 1_555 1_555
N2O Cd1 1_555 1_555
N2J Cd1E 1_555 1_555
N2D N1D 1_555 1_555
N2E Cd1J 1_555 1_555
N3O N2O 1_555 1_555
N3J N2J 1_555 1_555
N3D N2D 1_555 1_555
N4O C1O 1_555 1_555
N4J Cd1 1_555 1_555
N4D Cd1O 1_555 1_555
N4A Cd1J 1_555 1_555
N4O_2 Cd1E 1_555 1_555
N5O C2 1_555 1_555
N5F Cd1F 1_555 1_555
N5I C2F 1_555 1_555
N5O_2 Cd1O 1_555 1_555
N5J Cd1J 1_555 1_555
N5E Cd1E 1_555 1_555
N6O N6 1_555 1_555
N6F Cd1 1_555 1_555
N6I Cd1O 1_555 1_555
N6L Cd1J 1_555 1_555
N6C Cd1E 1_555 1_555
O1G C3A 1_555 1_555
O1A C3A 1_555 1_555
O1F C3 1_555 1_555
O1O Cd1O 1_555 1_555
O1J Cd1J 1_555 1_555
O1E Cd1E 1_555 1_555
C2 N5 1_555 1_555
C3 O1 1_555 1_555
N3 N4 1_555 1_555
Cd1F O1F 1_555 1_555
C1O N1O 1_555 1_555
C1J N4J 1_555 1_555
C1D N4D 1_555 1_555
C2F N5F 1_555 1_555
C5A C5F 1_555 1_555
N1O N2O 1_555 1_555
N1J N2J 1_555 1_555
N3O N4O 1_555 1_555
N3J N4J 1_555 1_555
N3D N4D 1_555 1_555
N5O N6O 1_555 1_555
N5F N6F 1_555 1_555
N5I N6I 1_555 1_555
N6F N6I 1_555 1_555
N6L N6C 1_555 1_555

#END
