
#######################################################################
#
#                 Cambridge Crystallographic Data Centre
#                                CCDC 
#
#######################################################################
#
# If this CIF has been generated from an entry in the Cambridge 
# Structural Database, then it will include bibliographic, chemical, 
# crystal, experimental, refinement or atomic coordinate data resulting 
# from the CCDC's data processing and validation procedures.
#
#######################################################################

data_NAVFUM
_symmetry_cell_setting           monoclinic
_symmetry_space_group_name_H-M   'P 21/c'
_symmetry_Int_Tables_number      14
_space_group_name_Hall           '-P 2ybc'
loop_
_symmetry_equiv_pos_site_id
_symmetry_equiv_pos_as_xyz
1 x,y,z
2 -x,1/2+y,1/2-z
3 -x,-y,-z
4 x,1/2-y,1/2+z
_cell_length_a                   7.7286(2)
_cell_length_b                   7.5874(2)
_cell_length_c                   17.9816(3)
_cell_angle_alpha                90
_cell_angle_beta                 98.2140(10)
_cell_angle_gamma                90
_cell_volume                     1043.62
loop_
_atom_site_label
_atom_site_type_symbol
_atom_site_fract_x
_atom_site_fract_y
_atom_site_fract_z
Fe1 Fe 0.62459(7) -0.06133(8) -0.63687(3)
Fe2 Fe 0.72445(7) -0.18472(8) -0.30750(3)
P1 P 0.55016(14) 0.07134(14) -0.80990(6)
H1 H 0.6580 0.1403 -0.7989
O1 O 0.4231(4) 0.1797(4) -0.86445(16)
O2 O 0.2077(4) 0.6538(4) -0.87657(17)
O3 O 0.5934(4) -0.0386(4) -0.40707(15)
O4 O 0.4790(4) 0.0455(4) -0.73557(16)
O5 O 0.2989(4) 0.0909(4) -0.48606(16)
O6 O 0.1549(4) 0.3592(4) -0.79851(16)
O7 O 0.5973(4) -0.0989(4) -0.84487(17)
O8 O -0.1023(4) 0.4717(4) -0.77575(17)
O9 O -0.0524(4) 0.7529(4) -0.85914(16)
C1 C 0.0369(5) 0.4753(6) -0.8037(2)
C2 C 0.0668(5) 0.6412(6) -0.8505(2)
C3 C 0.5864(5) -0.0382(5) -0.4782(2)
Fe1B Fe 0.37541(7) 0.06133(8) -0.36313(3)
Fe1A Fe 0.37541(7) 0.43867(8) -0.86313(3)
Fe1A_2 Fe 0.37541(7) -0.56133(8) -0.86313(3)
Fe2B Fe 0.27555(7) 0.18472(8) -0.69250(3)
Fe2C Fe -0.27555(7) 0.68472(8) -0.80750(3)
Fe2C_2 Fe 0.72445(7) -0.31528(8) -0.80750(3)
Fe2B_2 Fe 0.27555(7) -0.81528(8) -0.69250(3)
Fe2B_3 Fe 1.27555(7) 0.18472(8) -0.69250(3)
P1A P 0.44984(14) -0.42866(14) -0.69010(6)
H1A H 0.3420 -0.3597 -0.7011
O1A O 0.5769(4) -0.3203(4) -0.63555(16)
O2A O 0.7923(4) 0.1538(4) -0.62343(17)
O3B O 0.4066(4) 0.0386(4) -0.59293(15)
O3C O 0.5934(4) 0.5386(4) -0.90707(15)
O4B O 0.5210(4) -0.0455(4) -0.26443(16)
O4A O 0.5210(4) 0.5455(4) -0.76443(16)
O4A_2 O 0.5210(4) -0.4545(4) -0.76443(16)
O5C O 0.2989(4) 0.4091(4) -0.98606(16)
O5B O 0.7011(4) -0.0909(4) -0.51394(16)
O6B O 0.8451(4) -0.3592(4) -0.20149(16)
O6A O 0.8451(4) -0.1408(4) -0.70149(16)
O7A O 0.4027(4) 0.4011(4) -0.65513(17)
O7C O 0.5973(4) -0.4011(4) -0.34487(17)
O7A_2 O 0.4027(4) -0.5989(4) -0.65513(17)
O8C O 0.8977(4) 0.0283(4) -0.27575(17)
O8A O 0.1023(4) -0.0283(4) -0.72425(17)
O8A_2 O 1.1023(4) -0.0283(4) -0.72425(17)
O9A O 0.0524(4) 0.2529(4) -0.64086(16)
O9C O 0.9476(4) -0.2529(4) -0.35914(16)
O9A_2 O 1.0524(4) 0.2529(4) -0.64086(16)
C1A C 0.9631(5) -0.0247(6) -0.6963(2)
C2A C 0.9332(5) 0.1412(6) -0.6495(2)
C3B C 0.4136(5) 0.0382(5) -0.5218(2)
C4 C 0.1827(7) -0.0393(7) 0.0013(3)
H2 H 0.2815 -0.1162 0.0167
H3 H 0.2225 0.0579 -0.0269
C5 C 0.1144(6) 0.0293(6) 0.0684(2)
H4 H 0.0848 -0.0689 0.0987
H5 H 0.2048 0.0977 0.0984
N1 N 0.0413(8) -0.1405(8) -0.0481(3)
H6 H 0.0819 -0.1761 -0.0901
H7 H 0.0121 -0.2369 -0.0235
C4B C -0.1827(7) 0.0393(7) -0.0013(3)
H2B H -0.2815 0.1162 -0.0167
H3B H -0.2225 -0.0579 0.0269
C5B C -0.1144(6) -0.0293(6) -0.0684(2)
H4B H -0.0848 0.0689 -0.0987
H5B H -0.2048 -0.0977 -0.0984
N1B N -0.0413(8) 0.1405(8) 0.0481(3)
H6B H -0.0819 0.1761 0.0901
H7B H -0.0121 0.2369 0.0235
loop_
_geom_bond_atom_site_label_1
_geom_bond_atom_site_label_2
_geom_bond_site_symmetry_1
_geom_bond_site_symmetry_2
Fe1 O4 1_555 1_555
Fe2 O3 1_555 1_555
P1 H1 1_555 1_555
O1 P1 1_555 1_555
O2 C2 1_555 1_555
O3 C3 1_555 1_555
O4 P1 1_555 1_555
O5 Fe1B 1_555 1_555
O6 C1 1_555 1_555
O7 P1 1_555 1_555
O8 C1 1_555 1_555
O9 C2 1_555 1_555
C1 C2 1_555 1_555
C3 O5B 1_555 1_555
C4 H2 1_555 1_555
H3 C4 1_555 1_555
C5 C4 1_555 1_555
H4 C5 1_555 1_555
H5 C5 1_555 1_555
N1 C4 1_555 1_555
H6 N1 1_555 1_555
H7 N1 1_555 1_555
Fe1B O3 1_555 1_555
Fe1A O1 1_555 1_555
Fe1A_2 O4A_2 1_555 1_555
Fe2B O4 1_555 1_555
Fe2C O8 1_555 1_555
Fe2C_2 O7 1_555 1_555
Fe2B_2 O7A_2 1_555 1_555
Fe2B_3 O8A_2 1_555 1_555
P1A H1A 1_555 1_555
O1A Fe1 1_555 1_555
O2A Fe1 1_555 1_555
O3B Fe1 1_555 1_555
O3C Fe1A 1_555 1_555
O4B Fe2 1_555 1_555
O4A Fe1A 1_555 1_555
O4A_2 Fe2C_2 1_555 1_555
O5C Fe1A 1_555 1_555
O5B Fe1 1_555 1_555
O6B Fe2 1_555 1_555
O6A Fe1 1_555 1_555
O7A Fe2B 1_555 1_555
O7C Fe2 1_555 1_555
O7A_2 P1A 1_555 1_555
O8C Fe2 1_555 1_555
O8A Fe2B 1_555 1_555
O8A_2 C1A 1_555 1_555
O9A Fe2B 1_555 1_555
O9C Fe2 1_555 1_555
O9A_2 Fe2B_3 1_555 1_555
C1A O6A 1_555 1_555
C2A O2A 1_555 1_555
C3B O5 1_555 1_555
C4B H2B 1_555 1_555
H3B C4B 1_555 1_555
C5B N1 1_555 1_555
H4B C5B 1_555 1_555
H5B C5B 1_555 1_555
N1B C5 1_555 1_555
H6B N1B 1_555 1_555
H7B N1B 1_555 1_555
O2 Fe1A 1_555 1_555
O6 Fe1A 1_555 1_555
O6 Fe2B 1_555 1_555
O9 Fe2C 1_555 1_555
C3 C3B 1_555 1_555
Fe1B O4B 1_555 1_555
Fe2B O3B 1_555 1_555
Fe2C_2 O6A 1_555 1_555
P1A O1A 1_555 1_555
P1A O4A_2 1_555 1_555
O3B C3B 1_555 1_555
O9A_2 C2A 1_555 1_555
C1A C2A 1_555 1_555
C4B C5B 1_555 1_555
C4B N1B 1_555 1_555

#END
