
#######################################################################
#
#                 Cambridge Crystallographic Data Centre
#                                CCDC 
#
#######################################################################
#
# If this CIF has been generated from an entry in the Cambridge 
# Structural Database, then it will include bibliographic, chemical, 
# crystal, experimental, refinement or atomic coordinate data resulting 
# from the CCDC's data processing and validation procedures.
#
#######################################################################

data_NAXVOY03
_symmetry_cell_setting           monoclinic
_symmetry_space_group_name_H-M   'P 21/n'
_symmetry_Int_Tables_number      14
_space_group_name_Hall           '-P 2yn'
loop_
_symmetry_equiv_pos_site_id
_symmetry_equiv_pos_as_xyz
1 x,y,z
2 1/2-x,1/2+y,1/2-z
3 -x,-y,-z
4 1/2+x,1/2-y,1/2+z
_cell_length_a                   11.3410(10)
_cell_length_b                   9.8490(10)
_cell_length_c                   14.5470(10)
_cell_angle_alpha                90
_cell_angle_beta                 91.3880(10)
_cell_angle_gamma                90
_cell_volume                     1624.39
loop_
_atom_site_label
_atom_site_type_symbol
_atom_site_fract_x
_atom_site_fract_y
_atom_site_fract_z
Mg1 Mg 0.25630(4) 0.07865(5) 0.13466(3)
Mg2 Mg 0.0000 0.0000 0.0000
Mg3 Mg 0.23959(4) -0.11154(5) 0.30995(3)
Mg4 Mg 0.5000 0.0000 0.0000
O1 O 0.13085(9) -0.00628(10) 0.22016(7)
O2 O 0.15667(9) 0.25581(10) 0.11107(7)
O3 O 0.30791(9) 0.20033(10) 0.24662(7)
O4 O 0.39844(9) 0.15190(10) 0.06251(7)
O5 O 0.34948(9) -0.08188(10) 0.19644(7)
O6 O 0.18300(9) -0.02614(10) 0.02513(7)
O7 O -0.03733(10) 0.00024(11) 0.13788(8)
O8 O 0.01995(9) 0.20736(11) 0.00254(7)
O9 O 0.38861(9) 0.37372(10) 0.09632(7)
O10 O 0.51753(10) -0.10690(11) 0.12100(7)
O11 O 0.35024(9) -0.10617(11) -0.03262(7)
O12 O 0.31514(9) 0.05728(10) 0.36636(7)
C1 C 0.01951(13) -0.01602(15) 0.21012(11)
H1 H -0.0237 -0.0378 0.2633
C2 C 0.07874(13) 0.28741(15) 0.05008(10)
H2 H 0.0646 0.3815 0.0403
C3 C 0.33073(13) 0.16996(15) 0.33051(10)
H3 H 0.3624 0.2398 0.3688
C4 C 0.43056(13) 0.27603(15) 0.05515(10)
H4 H 0.4925 0.2947 0.0142
C5 C 0.45151(13) -0.13176(16) 0.18478(11)
H5 H 0.4796 -0.1945 0.2298
C6 C 0.24239(13) -0.10101(15) -0.02910(11)
H6 H 0.1988 -0.1577 -0.0704
Mg1B Mg -0.25630(4) -0.07865(5) -0.13466(3)
Mg1A Mg 0.24370(4) -0.42135(5) 0.36534(3)
Mg1B_2 Mg 0.74370(4) -0.07865(5) -0.13466(3)
Mg3B Mg -0.23959(4) 0.11154(5) -0.30995(3)
Mg3A Mg 0.26041(4) 0.38846(5) 0.19005(3)
Mg3C Mg -0.26041(4) -0.38846(5) -0.19005(3)
Mg3A_2 Mg 0.26041(4) -0.61154(5) 0.19005(3)
Mg3B_2 Mg 0.76041(4) 0.11154(5) -0.30995(3)
Mg4_2 Mg -0.5000 0.0000 0.0000
Mg4A Mg 0.0000 -0.5000 0.5000
O1B O -0.13085(9) 0.00628(10) -0.22016(7)
O2B O -0.15667(9) -0.25581(10) -0.11107(7)
O2A O 0.34333(9) -0.24419(10) 0.38893(7)
O2C O -0.34333(9) 0.24419(10) -0.38893(7)
O3A O 0.19209(9) -0.29967(10) 0.25338(7)
O3B O -0.30791(9) -0.20033(10) -0.24662(7)
O3C O -0.19209(9) 0.29967(10) -0.25338(7)
O4A O 0.10156(9) -0.34810(10) 0.43749(7)
O4B O 0.60156(9) -0.15190(10) -0.06251(7)
O4B_2 O -0.39844(9) -0.15190(10) -0.06251(7)
O5B O 0.65052(9) 0.08188(10) -0.19644(7)
O5B_2 O -0.34948(9) 0.08188(10) -0.19644(7)
O6B O -0.18300(9) 0.02614(10) -0.02513(7)
O7B O 0.03733(10) -0.00024(11) -0.13788(8)
O8B O -0.01995(9) -0.20736(11) -0.00254(7)
O9A O 0.11139(9) -0.12628(10) 0.40368(7)
O9C O -0.11139(9) 0.12628(10) -0.40368(7)
O10B O 0.48247(10) 0.10690(11) -0.12100(7)
O11B O -0.35024(9) 0.10617(11) 0.03262(7)
O11B_2 O 0.64976(9) 0.10617(11) 0.03262(7)
O12A O 0.18486(9) -0.44272(10) 0.13364(7)
O12B O -0.31514(9) -0.05728(10) -0.36636(7)
C1B C -0.01951(13) 0.01602(15) -0.21012(11)
H1B H 0.0237 0.0378 -0.2633
C2B C -0.07874(13) -0.28741(15) -0.05008(10)
H2B H -0.0646 -0.3815 -0.0403
C3A C 0.16927(13) -0.33004(15) 0.16949(10)
H3A H 0.1376 -0.2602 0.1312
C4A C 0.06944(13) -0.22397(15) 0.44485(10)
H4A H 0.0075 -0.2053 0.4858
C5B C 0.54849(13) 0.13176(16) -0.18478(11)
H5B H 0.5204 0.1945 -0.2298
C6B C -0.24239(13) 0.10101(15) 0.02910(11)
H6B H -0.1988 0.1577 0.0704
loop_
_geom_bond_atom_site_label_1
_geom_bond_atom_site_label_2
_geom_bond_site_symmetry_1
_geom_bond_site_symmetry_2
Mg1 O1 1_555 1_555
Mg2 O6 1_555 1_555
Mg3 O1 1_555 1_555
Mg4 O4 1_555 1_555
O1 C1 1_555 1_555
O2 Mg1 1_555 1_555
O3 Mg1 1_555 1_555
O4 Mg1 1_555 1_555
O5 Mg1 1_555 1_555
O6 Mg1 1_555 1_555
O7 Mg2 1_555 1_555
O8 Mg2 1_555 1_555
O9 C4 1_555 1_555
O10 Mg4 1_555 1_555
O11 Mg4 1_555 1_555
O12 Mg3 1_555 1_555
C1 O7 1_555 1_555
H1 C1 1_555 1_555
C2 O2 1_555 1_555
H2 C2 1_555 1_555
C3 O3 1_555 1_555
H3 C3 1_555 1_555
C4 O4 1_555 1_555
H4 C4 1_555 1_555
C5 O5 1_555 1_555
H5 C5 1_555 1_555
C6 O6 1_555 1_555
H6 C6 1_555 1_555
Mg1B O1B 1_555 1_555
Mg1A O2A 1_555 1_555
Mg1B_2 O4B 1_555 1_555
Mg3B O1B 1_555 1_555
Mg3A O2 1_555 1_555
Mg3C O2B 1_555 1_555
Mg3A_2 O12A 1_555 1_555
Mg3B_2 O5B 1_555 1_555
Mg4_2 O4B_2 1_555 1_555
Mg4A O4A 1_555 1_555
O1B C1B 1_555 1_555
O2B Mg1B 1_555 1_555
O2A Mg3 1_555 1_555
O2C Mg3B 1_555 1_555
O3A Mg3 1_555 1_555
O3B Mg1B 1_555 1_555
O3C Mg3B 1_555 1_555
O4A Mg1A 1_555 1_555
O4B Mg4 1_555 1_555
O4B_2 Mg1B 1_555 1_555
O5B Mg1B_2 1_555 1_555
O5B_2 Mg1B 1_555 1_555
O6B Mg2 1_555 1_555
O7B Mg2 1_555 1_555
O8B Mg2 1_555 1_555
O9A Mg3 1_555 1_555
O9C Mg3B 1_555 1_555
O10B Mg4 1_555 1_555
O11B Mg4_2 1_555 1_555
O11B_2 Mg4 1_555 1_555
O12A C3A 1_555 1_555
O12B Mg3B 1_555 1_555
C1B O7B 1_555 1_555
H1B C1B 1_555 1_555
C2B O2B 1_555 1_555
H2B C2B 1_555 1_555
C3A O3A 1_555 1_555
H3A C3A 1_555 1_555
C4A O4A 1_555 1_555
H4A C4A 1_555 1_555
C5B O5B 1_555 1_555
H5B C5B 1_555 1_555
C6B O6B 1_555 1_555
H6B C6B 1_555 1_555
Mg3 O5 1_555 1_555
O3 Mg3A 1_555 1_555
O8 C2 1_555 1_555
O9 Mg3A 1_555 1_555
O10 C5 1_555 1_555
O11 C6 1_555 1_555
O12 C3 1_555 1_555
Mg1B O6B 1_555 1_555
Mg1A O3A 1_555 1_555
Mg3B O5B_2 1_555 1_555
Mg3C O3B 1_555 1_555
O8B C2B 1_555 1_555
O9A C4A 1_555 1_555
O10B C5B 1_555 1_555
O11B C6B 1_555 1_555

#END
