
#######################################################################
#
#                 Cambridge Crystallographic Data Centre
#                                CCDC 
#
#######################################################################
#
# If this CIF has been generated from an entry in the Cambridge 
# Structural Database, then it will include bibliographic, chemical, 
# crystal, experimental, refinement or atomic coordinate data resulting 
# from the CCDC's data processing and validation procedures.
#
#######################################################################

data_NAXVOY02
_symmetry_cell_setting           monoclinic
_symmetry_space_group_name_H-M   'P 21/n'
_symmetry_Int_Tables_number      14
_space_group_name_Hall           '-P 2yn'
loop_
_symmetry_equiv_pos_site_id
_symmetry_equiv_pos_as_xyz
1 x,y,z
2 1/2-x,1/2+y,1/2-z
3 -x,-y,-z
4 1/2+x,1/2-y,1/2+z
_cell_length_a                   11.3590(10)
_cell_length_b                   9.8850(10)
_cell_length_c                   14.5840(10)
_cell_angle_alpha                90
_cell_angle_beta                 91.3700(10)
_cell_angle_gamma                90
_cell_volume                     1637.08
loop_
_atom_site_label
_atom_site_type_symbol
_atom_site_fract_x
_atom_site_fract_y
_atom_site_fract_z
Mg1 Mg 0.25624(4) 0.07763(4) 0.13469(3)
Mg2 Mg 0.0000 0.0000 0.0000
Mg3 Mg 0.23967(4) -0.11316(4) 0.30929(3)
Mg4 Mg 0.5000 0.0000 0.0000
O1 O 0.13080(8) -0.00857(9) 0.21943(7)
O2 O 0.15673(8) 0.25443(9) 0.11163(6)
O3 O 0.30704(8) 0.19857(9) 0.24709(6)
O4 O 0.39855(8) 0.15113(9) 0.06296(6)
O5 O 0.34937(8) -0.08267(9) 0.19604(7)
O6 O 0.18312(8) -0.02597(10) 0.02483(7)
O7 O -0.03668(9) -0.00178(11) 0.13763(7)
O8 O 0.01984(9) 0.20660(11) 0.00391(7)
O9 O 0.38848(9) 0.37161(10) 0.09732(7)
O10 O 0.51676(9) -0.10730(11) 0.12039(7)
O11 O 0.35009(9) -0.10484(11) -0.03291(7)
O12 O 0.31438(9) 0.05526(10) 0.36560(7)
C1 C 0.02008(12) -0.01842(15) 0.20926(10)
H1 H -0.0230 -0.0408 0.2622
C2 C 0.07862(13) 0.28579(15) 0.05137(10)
H2 H 0.0642 0.3795 0.0421
C3 C 0.32948(12) 0.16759(14) 0.33031(10)
H3 H 0.3607 0.2370 0.3689
C4 C 0.43044(12) 0.27471(14) 0.05628(10)
H4 H 0.4925 0.2936 0.0157
C5 C 0.45097(13) -0.13227(15) 0.18382(10)
H5 H 0.4790 -0.1953 0.2284
C6 C 0.24262(12) -0.09956(15) -0.02966(10)
H6 H 0.1992 -0.1552 -0.0714
Mg1B Mg -0.25624(4) -0.07763(4) -0.13469(3)
Mg1A Mg 0.24376(4) -0.42237(4) 0.36531(3)
Mg1B_2 Mg 0.74376(4) -0.07763(4) -0.13469(3)
Mg3B Mg -0.23967(4) 0.11316(4) -0.30929(3)
Mg3A Mg 0.26033(4) 0.38684(4) 0.19071(3)
Mg3C Mg -0.26033(4) -0.38684(4) -0.19071(3)
Mg3A_2 Mg 0.26033(4) -0.61316(4) 0.19071(3)
Mg3B_2 Mg 0.76033(4) 0.11316(4) -0.30929(3)
Mg4_2 Mg -0.5000 0.0000 0.0000
Mg4A Mg 0.0000 -0.5000 0.5000
O1B O -0.13080(8) 0.00857(9) -0.21943(7)
O2B O -0.15673(8) -0.25443(9) -0.11163(6)
O2A O 0.34327(8) -0.24557(9) 0.38837(6)
O2C O -0.34327(8) 0.24557(9) -0.38837(6)
O3A O 0.19296(8) -0.30143(9) 0.25291(6)
O3B O -0.30704(8) -0.19857(9) -0.24709(6)
O3C O -0.19296(8) 0.30143(9) -0.25291(6)
O4A O 0.10145(8) -0.34887(9) 0.43704(6)
O4B O 0.60145(8) -0.15113(9) -0.06296(6)
O4B_2 O -0.39855(8) -0.15113(9) -0.06296(6)
O5B O 0.65063(8) 0.08267(9) -0.19604(7)
O5B_2 O -0.34937(8) 0.08267(9) -0.19604(7)
O6B O -0.18312(8) 0.02597(10) -0.02483(7)
O7B O 0.03668(9) 0.00178(11) -0.13763(7)
O8B O -0.01984(9) -0.20660(11) -0.00391(7)
O9A O 0.11152(9) -0.12839(10) 0.40268(7)
O9C O -0.11152(9) 0.12839(10) -0.40268(7)
O10B O 0.48324(9) 0.10730(11) -0.12039(7)
O11B O -0.35009(9) 0.10484(11) 0.03291(7)
O11B_2 O 0.64991(9) 0.10484(11) 0.03291(7)
O12A O 0.18562(9) -0.44474(10) 0.13440(7)
O12B O -0.31438(9) -0.05526(10) -0.36560(7)
C1B C -0.02008(12) 0.01842(15) -0.20926(10)
H1B H 0.0230 0.0408 -0.2622
C2B C -0.07862(13) -0.28579(15) -0.05137(10)
H2B H -0.0642 -0.3795 -0.0421
C3A C 0.17052(12) -0.33241(14) 0.16969(10)
H3A H 0.1393 -0.2630 0.1311
C4A C 0.06956(12) -0.22529(14) 0.44372(10)
H4A H 0.0075 -0.2064 0.4843
C5B C 0.54903(13) 0.13227(15) -0.18382(10)
H5B H 0.5210 0.1953 -0.2284
C6B C -0.24262(12) 0.09956(15) 0.02966(10)
H6B H -0.1992 0.1552 0.0714
loop_
_geom_bond_atom_site_label_1
_geom_bond_atom_site_label_2
_geom_bond_site_symmetry_1
_geom_bond_site_symmetry_2
Mg1 O1 1_555 1_555
Mg2 O6 1_555 1_555
Mg3 O1 1_555 1_555
Mg4 O4 1_555 1_555
O1 C1 1_555 1_555
O2 Mg1 1_555 1_555
O3 Mg1 1_555 1_555
O4 Mg1 1_555 1_555
O5 Mg1 1_555 1_555
O6 Mg1 1_555 1_555
O7 Mg2 1_555 1_555
O8 Mg2 1_555 1_555
O9 C4 1_555 1_555
O10 Mg4 1_555 1_555
O11 Mg4 1_555 1_555
O12 Mg3 1_555 1_555
C1 O7 1_555 1_555
H1 C1 1_555 1_555
C2 O2 1_555 1_555
H2 C2 1_555 1_555
C3 O3 1_555 1_555
H3 C3 1_555 1_555
C4 O4 1_555 1_555
H4 C4 1_555 1_555
C5 O5 1_555 1_555
H5 C5 1_555 1_555
C6 O6 1_555 1_555
H6 C6 1_555 1_555
Mg1B O1B 1_555 1_555
Mg1A O2A 1_555 1_555
Mg1B_2 O4B 1_555 1_555
Mg3B O1B 1_555 1_555
Mg3A O2 1_555 1_555
Mg3C O2B 1_555 1_555
Mg3A_2 O12A 1_555 1_555
Mg3B_2 O5B 1_555 1_555
Mg4_2 O4B_2 1_555 1_555
Mg4A O4A 1_555 1_555
O1B C1B 1_555 1_555
O2B Mg1B 1_555 1_555
O2A Mg3 1_555 1_555
O2C Mg3B 1_555 1_555
O3A Mg3 1_555 1_555
O3B Mg1B 1_555 1_555
O3C Mg3B 1_555 1_555
O4A Mg1A 1_555 1_555
O4B Mg4 1_555 1_555
O4B_2 Mg1B 1_555 1_555
O5B Mg1B_2 1_555 1_555
O5B_2 Mg1B 1_555 1_555
O6B Mg2 1_555 1_555
O7B Mg2 1_555 1_555
O8B Mg2 1_555 1_555
O9A Mg3 1_555 1_555
O9C Mg3B 1_555 1_555
O10B Mg4 1_555 1_555
O11B Mg4_2 1_555 1_555
O11B_2 Mg4 1_555 1_555
O12A C3A 1_555 1_555
O12B Mg3B 1_555 1_555
C1B O7B 1_555 1_555
H1B C1B 1_555 1_555
C2B O2B 1_555 1_555
H2B C2B 1_555 1_555
C3A O3A 1_555 1_555
H3A C3A 1_555 1_555
C4A O4A 1_555 1_555
H4A C4A 1_555 1_555
C5B O5B 1_555 1_555
H5B C5B 1_555 1_555
C6B O6B 1_555 1_555
H6B C6B 1_555 1_555
Mg3 O5 1_555 1_555
O3 Mg3A 1_555 1_555
O8 C2 1_555 1_555
O9 Mg3A 1_555 1_555
O10 C5 1_555 1_555
O11 C6 1_555 1_555
O12 C3 1_555 1_555
Mg1B O6B 1_555 1_555
Mg1A O3A 1_555 1_555
Mg3B O5B_2 1_555 1_555
Mg3C O3B 1_555 1_555
O8B C2B 1_555 1_555
O9A C4A 1_555 1_555
O10B C5B 1_555 1_555
O11B C6B 1_555 1_555

#END
