
#######################################################################
#
#                 Cambridge Crystallographic Data Centre
#                                CCDC 
#
#######################################################################
#
# If this CIF has been generated from an entry in the Cambridge 
# Structural Database, then it will include bibliographic, chemical, 
# crystal, experimental, refinement or atomic coordinate data resulting 
# from the CCDC's data processing and validation procedures.
#
#######################################################################

data_NAYGUR
_symmetry_cell_setting           orthorhombic
_symmetry_space_group_name_H-M   'P 21 21 21'
_symmetry_Int_Tables_number      19
_space_group_name_Hall           'P 2ac 2ab'
loop_
_symmetry_equiv_pos_site_id
_symmetry_equiv_pos_as_xyz
1 x,y,z
2 1/2-x,-y,1/2+z
3 -x,1/2+y,1/2-z
4 1/2+x,1/2-y,-z
_cell_length_a                   6.9676(3)
_cell_length_b                   17.4113(8)
_cell_length_c                   18.6278(9)
_cell_angle_alpha                90
_cell_angle_beta                 90
_cell_angle_gamma                90
_cell_volume                     2259.83
loop_
_atom_site_label
_atom_site_type_symbol
_atom_site_fract_x
_atom_site_fract_y
_atom_site_fract_z
C1 C 0.9120(5) 0.60467(14) -0.41012(14)
H1 H 0.7855 0.5891 -0.3978
C2 C 1.2187(5) 0.60726(14) -0.42064(14)
H2 H 1.3505 0.5938 -0.4170
C3 C 1.0892(5) 0.38850(15) -0.09465(14)
H3 H 1.2137 0.4012 -0.1117
C4 C 0.7835(5) 0.39117(14) -0.07565(14)
H4 H 0.6523 0.4060 -0.0770
C5 C 0.9054(5) 0.49362(14) -0.15850(14)
H5 H 0.9968 0.5343 -0.1442
H6 H 0.7738 0.5145 -0.1539
C6 C 0.9414(5) 0.47178(14) -0.23512(14)
H7 H 0.8744 0.4292 -0.2549
C7 C 1.0627(5) 0.50963(14) -0.27570(15)
H8 H 1.1373 0.5493 -0.2546
C8 C 1.0882(6) 0.49296(14) -0.35344(14)
H9 H 1.2155 0.4693 -0.3617
H10 H 0.9885 0.4564 -0.3697
N1 N 0.9566(4) 0.66796(12) -0.44482(11)
N2 N 1.0728(4) 0.56555(12) -0.39482(11)
N3 N 1.0476(4) 0.33036(12) -0.05212(12)
N4 N 0.9272(4) 0.42696(12) -0.11005(11)
N5 N 1.1523(4) 0.66991(12) -0.45185(12)
N6 N 0.8530(4) 0.33250(12) -0.03985(12)
O1 O 1.1812(3) 0.23524(11) 0.18748(9)
O2 O 0.9651(3) 0.23186(10) 0.08617(9)
O3 O 0.8953(3) 0.31462(11) 0.18627(10)
O4 O 0.8696(3) 0.17703(11) 0.19989(10)
S1 S 0.97920(12) 0.23975(3) 0.16535(3)
Cu2 Cu 0.70779(5) 0.250640(18) 0.008220(15)
N1A N 0.5434(4) 0.33204(12) 0.05518(11)
N3C N 0.5476(4) 0.16964(12) 0.05212(12)
N5B N 0.8477(4) 0.16991(12) -0.04815(12)
O2C O 0.4651(3) 0.26814(10) -0.08617(9)
Cu2A Cu 0.79221(5) 0.749360(18) -0.491780(15)
Cu2C Cu 1.20779(5) 0.249360(18) -0.008220(15)
Cu2B Cu 1.29221(5) 0.750640(18) -0.508220(15)
O5 O 0.7607(3) 0.58800(10) 0.00887(10)
O6 O 1.0978(3) 0.56192(11) -0.00353(10)
O7 O 0.9301(4) 0.51972(10) 0.10274(10)
O8 O 0.9877(3) 0.65567(10) 0.08265(9)
S2 S 0.94561(12) 0.58019(3) 0.04797(3)
O9 O 0.6749(4) 0.84269(14) 0.11597(12)
H11 H 0.767(6) 0.847(2) 0.135(2)
H12 H 0.663(6) 0.866(2) 0.081(2)
O10 O 0.3054(4) 0.68136(11) 0.16829(11)
H13 H 0.232(6) 0.6785(18) 0.1368(19)
H14 H 0.256(5) 0.6791(18) 0.2128(17)
O11 O 0.7072(4) 0.69579(11) 0.17627(11)
H15 H 0.796(6) 0.6800(18) 0.1498(19)
H16 H 0.750(5) 0.7058(18) 0.2169(17)
O12 O 0.2728(4) 0.82759(11) 0.11187(10)
H17 H 0.282(6) 0.8577(15) 0.0737(13)
H18 H 0.188(6) 0.8443(18) 0.1425(19)
O13 O 0.4819(4) 0.80487(12) 0.26057(11)
H19 H 0.555(6) 0.785(2) 0.2824(19)
H20 H 0.371(6) 0.8047(19) 0.2799(19)
O14 O 0.4985(4) 0.71510(12) 0.02855(11)
H21 H 0.503(6) 0.741(2) -0.0019(18)
H22 H 0.596(6) 0.6926(19) 0.0210(19)
Cu1 Cu 0.49135(6) 0.762735(16) 0.143387(15)
O15 O 0.9838(4) 0.88465(11) 0.19413(10)
H23 H 0.965(6) 0.9237(18) 0.2071(17)
H24 H 1.014(5) 0.8609(17) 0.2283(17)
O16 O 0.5013(4) 0.96825(11) 0.74622(11)
H25 H 0.484(6) 0.9674(18) 0.7899(19)
H26 H 0.539(6) 0.9311(19) 0.7323(17)
O17 O 0.9495(4) 0.99787(12) 0.04990(12)
H27 H 1.044(6) 0.979(2) 0.0300(19)
H28 H 0.852(6) 0.978(2) 0.035(2)
loop_
_geom_bond_atom_site_label_1
_geom_bond_atom_site_label_2
_geom_bond_site_symmetry_1
_geom_bond_site_symmetry_2
C1 H1 1_555 1_555
C2 H2 1_555 1_555
C3 H3 1_555 1_555
C4 H4 1_555 1_555
C5 H5 1_555 1_555
H6 C5 1_555 1_555
C6 C5 1_555 1_555
H7 C6 1_555 1_555
C7 C6 1_555 1_555
H8 C7 1_555 1_555
C8 C7 1_555 1_555
H9 C8 1_555 1_555
H10 C8 1_555 1_555
N1 C1 1_555 1_555
N2 C1 1_555 1_555
N3 C3 1_555 1_555
N4 C3 1_555 1_555
N5 C2 1_555 1_555
N6 C4 1_555 1_555
O1 S1 1_555 1_555
O2 S1 1_555 1_555
O3 S1 1_555 1_555
O4 S1 1_555 1_555
O5 S2 1_555 1_555
O6 S2 1_555 1_555
O7 S2 1_555 1_555
O8 S2 1_555 1_555
O9 H11 1_555 1_555
H12 O9 1_555 1_555
O10 H13 1_555 1_555
H14 O10 1_555 1_555
O11 H15 1_555 1_555
H16 O11 1_555 1_555
O12 H17 1_555 1_555
H18 O12 1_555 1_555
O13 H19 1_555 1_555
H20 O13 1_555 1_555
O14 H21 1_555 1_555
H22 O14 1_555 1_555
O15 H23 1_555 1_555
H24 O15 1_555 1_555
O16 H25 1_555 1_555
H26 O16 1_555 1_555
O17 H27 1_555 1_555
H28 O17 1_555 1_555
Cu1 O9 1_555 1_555
Cu2 N6 1_555 1_555
N1A Cu2 1_555 1_555
N3C Cu2 1_555 1_555
N5B Cu2 1_555 1_555
O2C Cu2 1_555 1_555
Cu2A N1 1_555 1_555
Cu2C N3 1_555 1_555
Cu2B N5 1_555 1_555
C2 N2 1_555 1_555
C4 N4 1_555 1_555
C5 N4 1_555 1_555
C8 N2 1_555 1_555
N1 N5 1_555 1_555
N3 N6 1_555 1_555
O2 Cu2 1_555 1_555
O2 Cu2C 1_555 1_555
O10 Cu1 1_555 1_555
O11 Cu1 1_555 1_555
O12 Cu1 1_555 1_555
O13 Cu1 1_555 1_555
O14 Cu1 1_555 1_555

#END
