
#######################################################################
#
#                 Cambridge Crystallographic Data Centre
#                                CCDC 
#
#######################################################################
#
# If this CIF has been generated from an entry in the Cambridge 
# Structural Database, then it will include bibliographic, chemical, 
# crystal, experimental, refinement or atomic coordinate data resulting 
# from the CCDC's data processing and validation procedures.
#
#######################################################################

data_NAYXOC
_symmetry_cell_setting           orthorhombic
_symmetry_space_group_name_H-M   'P c c n'
_symmetry_Int_Tables_number      56
_space_group_name_Hall           '-P 2ab 2ac'
loop_
_symmetry_equiv_pos_site_id
_symmetry_equiv_pos_as_xyz
1 x,y,z
2 1/2-x,1/2-y,z
3 -x,1/2+y,1/2-z
4 1/2+x,-y,1/2-z
5 -x,-y,-z
6 1/2+x,1/2+y,-z
7 x,1/2-y,1/2+z
8 1/2-x,y,1/2+z
_cell_length_a                   27.185(5)
_cell_length_b                   12.100(2)
_cell_length_c                   20.605(4)
_cell_angle_alpha                90
_cell_angle_beta                 90
_cell_angle_gamma                90
_cell_volume                     6777.78
loop_
_atom_site_label
_atom_site_type_symbol
_atom_site_fract_x
_atom_site_fract_y
_atom_site_fract_z
P1 P 0.89206(12) 0.1218(2) 0.09595(14)
Tb1 Tb 0.57143(2) 0.11089(4) 0.02225(3)
O1 O 0.9202(3) 0.2079(5) 0.0592(4)
O2 O 0.9176(3) -0.4205(6) 0.0360(4)
O3 O 0.9904(3) -0.3655(6) 0.0024(4)
O4 O 0.9348(3) 0.0368(6) 0.4135(3)
O5 O 0.9210(3) 0.2173(6) 0.4195(4)
O6 O 0.6410(3) 0.0982(6) 0.0980(4)
O7 O 0.6566(3) 0.1020(7) -0.0078(3)
O8 O 0.5251(4) 0.0754(7) 0.1191(4)
C1 C 0.9085(4) -0.0156(9) 0.0709(5)
C2 C 0.8734(5) -0.0969(9) 0.0657(7)
H1 H 0.8396 -0.0795 0.0714
C3 C 0.8877(5) -0.2059(10) 0.0519(8)
H2 H 0.8638 -0.2630 0.0505
C4 C 0.9350(4) -0.2298(9) 0.0408(5)
C5 C 0.9708(5) -0.1480(9) 0.0442(6)
H3 H 1.0044 -0.1651 0.0371
C6 C 0.9565(5) -0.0426(9) 0.0580(6)
H4 H 0.9807 0.0141 0.0586
C7 C 0.9492(4) -0.3471(9) 0.0254(6)
C8 C 0.9039(5) 0.1252(8) 0.1820(5)
C9 C 0.9105(6) 0.0262(11) 0.2156(6)
H5 H 0.9103 -0.0423 0.1930
C10 C 0.9173(6) 0.0287(10) 0.2824(6)
H6 H 0.9210 -0.0386 0.3057
C11 C 0.9189(5) 0.1293(9) 0.3155(5)
C12 C 0.9152(6) 0.2261(10) 0.2807(7)
H7 H 0.9168 0.2954 0.3023
C13 C 0.9090(6) 0.2216(9) 0.2129(6)
H8 H 0.9084 0.2883 0.1886
C14 C 0.9257(5) 0.1309(9) 0.3869(5)
C15 C 0.8275(5) 0.1265(8) 0.0856(5)
C16 C 0.7930(5) 0.1179(10) 0.1374(6)
H9 H 0.8048 0.1171 0.1808
C17 C 0.7430(5) 0.1106(11) 0.1265(6)
H10 H 0.7205 0.1073 0.1618
C18 C 0.7264(4) 0.1082(9) 0.0630(5)
C19 C 0.7589(5) 0.1151(11) 0.0114(6)
H11 H 0.7470 0.1125 -0.0319
C20 C 0.8094(4) 0.1259(9) 0.0235(6)
H12 H 0.8315 0.1329 -0.0120
C21 C 0.6719(4) 0.1013(9) 0.0508(6)
Tb1A Tb 0.92857(2) 0.38911(4) 0.02225(3)
Tb1A_2 Tb 0.92857(2) -0.61089(4) 0.02225(3)
Tb1E Tb 1.07143(2) -0.38911(4) -0.02225(3)
Tb1G Tb 0.92857(2) 0.11089(4) 0.52225(3)
O1A O 0.5798(3) 0.2921(5) 0.0592(4)
O2A O 0.5824(3) -0.0795(6) 0.0360(4)
O3E O 0.4904(3) 0.1345(6) -0.0024(4)
O4G O 0.5652(3) 0.0368(6) -0.0865(3)
O5G O 0.5790(3) 0.2173(6) -0.0805(4)
O9 O 0.5536(8) 0.016(2) 0.2425(11)
N1 N 0.5589(10) -0.103(2) 0.3345(13)
C22 C 0.5451(10) -0.204(2) 0.3593(11)
H13 H 0.5255 -0.2439 0.3269
H14 H 0.5253 -0.1928 0.3986
H15 H 0.5745 -0.2470 0.3700
C23 C 0.5850(15) -0.027(3) 0.3719(18)
H16 H 0.5917 0.0390 0.3461
H17 H 0.6161 -0.0606 0.3858
H18 H 0.5655 -0.0072 0.4101
C24 C 0.5448(11) -0.081(3) 0.2720(13)
H19 H 0.5280 -0.1368 0.2485
O10 O 0.3307(14) 0.119(3) 0.0903(16)
O11 O 0.6620(17) 0.896(3) 0.187(2)
loop_
_geom_bond_atom_site_label_1
_geom_bond_atom_site_label_2
_geom_bond_site_symmetry_1
_geom_bond_site_symmetry_2
P1 O1 1_555 1_555
Tb1 O6 1_555 1_555
O1 Tb1A 1_555 1_555
O2 C7 1_555 1_555
O3 C7 1_555 1_555
O4 C14 1_555 1_555
O5 C14 1_555 1_555
O6 C21 1_555 1_555
O7 Tb1 1_555 1_555
O8 Tb1 1_555 1_555
C1 P1 1_555 1_555
C2 C1 1_555 1_555
H1 C2 1_555 1_555
C3 C2 1_555 1_555
H2 C3 1_555 1_555
C4 C3 1_555 1_555
C5 C4 1_555 1_555
H3 C5 1_555 1_555
C6 C1 1_555 1_555
H4 C6 1_555 1_555
C7 C4 1_555 1_555
C8 P1 1_555 1_555
C9 C8 1_555 1_555
H5 C9 1_555 1_555
C10 C9 1_555 1_555
H6 C10 1_555 1_555
C11 C10 1_555 1_555
C12 C11 1_555 1_555
H7 C12 1_555 1_555
C13 C8 1_555 1_555
H8 C13 1_555 1_555
C14 C11 1_555 1_555
C15 P1 1_555 1_555
C16 C15 1_555 1_555
H9 C16 1_555 1_555
C17 C16 1_555 1_555
H10 C17 1_555 1_555
C18 C17 1_555 1_555
C19 C18 1_555 1_555
H11 C19 1_555 1_555
C20 C15 1_555 1_555
H12 C20 1_555 1_555
C21 O7 1_555 1_555
O9 C24 1_555 1_555
N1 C22 1_555 1_555
C22 H13 1_555 1_555
H14 C22 1_555 1_555
H15 C22 1_555 1_555
C23 N1 1_555 1_555
H16 C23 1_555 1_555
H17 C23 1_555 1_555
H18 C23 1_555 1_555
C24 N1 1_555 1_555
H19 C24 1_555 1_555
Tb1A_2 O2 1_555 1_555
Tb1E O3 1_555 1_555
Tb1G O4 1_555 1_555
O1A Tb1 1_555 1_555
O2A Tb1 1_555 1_555
O3E Tb1 1_555 1_555
O4G Tb1 1_555 1_555
O5G Tb1 1_555 1_555
O5 Tb1G 1_555 1_555
C5 C6 1_555 1_555
C12 C13 1_555 1_555
C18 C21 1_555 1_555
C19 C20 1_555 1_555

#END
