
#######################################################################
#
#                 Cambridge Crystallographic Data Centre
#                                CCDC 
#
#######################################################################
#
# If this CIF has been generated from an entry in the Cambridge 
# Structural Database, then it will include bibliographic, chemical, 
# crystal, experimental, refinement or atomic coordinate data resulting 
# from the CCDC's data processing and validation procedures.
#
#######################################################################

data_NAZZEV
_symmetry_cell_setting           monoclinic
_symmetry_space_group_name_H-M   'P 21/c'
_symmetry_Int_Tables_number      14
_space_group_name_Hall           '-P 2ybc'
loop_
_symmetry_equiv_pos_site_id
_symmetry_equiv_pos_as_xyz
1 x,y,z
2 -x,1/2+y,1/2-z
3 -x,-y,-z
4 x,1/2-y,1/2+z
_cell_length_a                   25.475(2)
_cell_length_b                   15.5864(14)
_cell_length_c                   17.0301(16)
_cell_angle_alpha                90
_cell_angle_beta                 98.428(2)
_cell_angle_gamma                90
_cell_volume                     6689.01
loop_
_atom_site_label
_atom_site_type_symbol
_atom_site_fract_x
_atom_site_fract_y
_atom_site_fract_z
Sm1 Sm 0.74964(4) 0.70486(8) 1.03756(7)
Sm2 Sm 0.75171(4) 0.82407(9) 0.81507(8)
O1 O 0.7503(6) 0.7822(13) 1.1696(11)
O2 O 0.6997(7) 0.8344(11) 1.0142(11)
O3 O 0.6867(7) 0.8863(11) 0.8900(11)
O4 O 0.8111(6) 0.6435(12) 0.9548(11)
O5 O 0.7969(7) 0.6910(12) 0.8289(11)
O6 O 1.1909(6) 0.3674(12) 0.8664(10)
O7 O 1.1668(7) 0.3489(16) 0.7385(11)
O8 O 0.8264(7) 0.7976(13) 1.0681(12)
O9 O 0.8027(6) 0.8281(12) 0.9420(11)
O10 O 0.6996(6) 0.6999(10) 0.9069(11)
O11 O 0.6779(6) 0.7254(11) 0.7792(11)
O12 O 0.3323(7) 0.3228(12) 0.9107(11)
O13 O 0.3014(6) 0.3841(10) 0.7943(10)
C1 C 0.6746(10) 0.8753(16) 0.9573(17)
C2 C 0.6222(10) 0.9136(17) 0.9721(15)
C3 C 0.5978(12) 0.9807(18) 0.9275(16)
H1 H 0.6151 1.0043 0.8867
C4 C 0.5514(10) 1.0138(15) 0.9388(14)
H2 H 0.5366 1.0602 0.9067
C5 C 0.5256(10) 0.9822(18) 0.9951(15)
N1 N 0.5479(10) 0.916(2) 1.0468(16)
C6 C 0.5966(11) 0.882(2) 1.0337(17)
H3 H 0.6124 0.8372 1.0667
C7 C 0.8209(10) 0.6471(19) 0.8847(18)
C8 C 0.8666(6) 0.5932(13) 0.8676(11)
C9 C 0.8890(8) 0.6096(16) 0.7994(12)
H4 H 0.8737 0.6515 0.7625
C10 C 0.9339(8) 0.5648(18) 0.7853(11)
H5 H 0.9492 0.5761 0.7388
C11 C 0.9564(7) 0.5036(15) 0.8394(11)
N2 N 0.9339(7) 0.4871(12) 0.9075(10)
C12 C 0.8891(7) 0.5319(14) 0.9216(9)
H6 H 0.8738 0.5206 0.9682
C13 C 1.1578(9) 0.3672(17) 0.8058(16)
C14 C 1.0045(6) 0.4612(16) 0.8346(11)
C15 C 1.0233(8) 0.4699(18) 0.7625(9)
H7 H 1.0024 0.4985 0.7195
C16 C 1.0726(8) 0.4368(18) 0.7531(9)
H8 H 1.0855 0.4427 0.7038
C17 C 1.1032(6) 0.3949(14) 0.8160(10)
C18 C 1.0844(7) 0.3863(14) 0.8882(9)
H9 H 1.1052 0.3577 0.9311
N3 N 1.0350(7) 0.4194(16) 0.8975(9)
C19 C 0.8347(10) 0.8333(18) 1.0055(16)
C20 C 0.8846(10) 0.8848(18) 1.0073(15)
C21 C 0.9203(12) 0.893(3) 1.0747(18)
H10 H 0.9140 0.8675 1.1232
C22 C 0.9659(12) 0.940(2) 1.0705(18)
H11 H 0.9911 0.9460 1.1170
C23 C 0.9755(10) 0.975(2) 1.0046(16)
N4 N 0.9402(10) 0.970(2) 0.9390(15)
C24 C 0.8959(12) 0.927(2) 0.9418(17)
H12 H 0.8703 0.9250 0.8952
C25 C 0.6707(9) 0.6875(15) 0.8421(15)
C26 C 0.6243(9) 0.6295(17) 0.8385(14)
C27 C 0.5894(10) 0.619(2) 0.7687(17)
H13 H 0.5959 0.6480 0.7217
C28 C 0.5453(9) 0.5678(18) 0.7675(15)
H14 H 0.5218 0.5590 0.7195
C29 C 0.5359(10) 0.5298(17) 0.8358(15)
N5 N 0.5701(9) 0.5355(19) 0.9036(14)
C30 C 0.6136(11) 0.586(2) 0.9060(17)
H15 H 0.6371 0.5924 0.9545
C31 C 0.4866(10) 0.4792(18) 0.8366(15)
C32 C 0.4477(9) 0.4821(19) 0.7738(15)
H16 H 0.4532 0.5113 0.7267
C33 C 0.4014(12) 0.444(2) 0.7782(19)
H17 H 0.3742 0.4467 0.7336
C34 C 0.3916(9) 0.4011(17) 0.8440(15)
C35 C 0.4316(10) 0.395(2) 0.9057(16)
H18 H 0.4258 0.3632 0.9512
N6 N 0.4812(10) 0.4340(19) 0.9050(15)
C36 C 0.3380(10) 0.3647(16) 0.8497(16)
O14 O 0.7271(8) 0.5529(13) 1.0217(14)
C37 C 0.7588(15) 0.492(2) 1.037(3)
N7 N 0.740(2) 0.407(3) 1.006(3)
C38 C 0.692(3) 0.395(6) 0.941(4)
C39 C 0.656(3) 0.384(6) 1.005(5)
C40 C 0.778(3) 0.331(4) 1.022(6)
C41 C 0.808(5) 0.332(8) 0.950(7)
O15 O 0.7729(9) 0.9739(15) 0.8253(15)
C42 C 0.7391(19) 1.032(3) 0.818(4)
N8 N 0.763(2) 1.118(4) 0.812(4)
C43 C 0.715(4) 1.174(3) 0.823(9)
C44 C 0.702(9) 1.201(13) 0.735(9)
C45 C 0.805(4) 1.095(9) 0.758(5)
C46 C 0.844(3) 1.134(5) 0.826(5)
Sm1B Sm 0.25036(4) 1.29514(8) 0.96244(7)
Sm1B_2 Sm 1.25036(4) 0.29514(8) 0.96244(7)
Sm1B_3 Sm 0.25036(4) 0.29514(8) 0.96244(7)
Sm1B_4 Sm 1.25036(4) 1.29514(8) 0.96244(7)
Sm2B Sm 0.24829(4) 1.17593(9) 1.18493(8)
Sm2A Sm 1.24829(4) 0.32407(9) 0.68493(8)
Sm2A_2 Sm 0.24829(4) 0.32407(9) 0.68493(8)
Sm2B_2 Sm 1.24829(4) 1.17593(9) 1.18493(8)
Sm2B_3 Sm 1.24829(4) 0.17593(9) 1.18493(8)
Sm2C Sm 0.75171(4) 0.67593(9) 1.31507(8)
Sm2B_4 Sm 0.24829(4) 0.17593(9) 1.18493(8)
O1B O 0.2497(6) 1.2178(13) 0.8304(11)
O2B O 0.3003(7) 1.1656(11) 0.9858(11)
O3B O 0.3133(7) 1.1137(11) 1.1100(11)
O4B O 1.1889(6) 0.3565(12) 1.0452(11)
O4B_2 O 0.1889(6) 1.3565(12) 1.0452(11)
O5B O 1.2031(7) 0.3090(12) 1.1711(11)
O5B_2 O 0.2031(7) 1.3090(12) 1.1711(11)
O6B O 0.8091(6) 0.6326(12) 1.1336(10)
O6_2 O 0.1909(6) 1.3674(12) 0.8664(10)
O7B O 0.8332(7) 0.6511(16) 1.2615(11)
O7A O 0.8332(7) 0.8489(16) 0.7615(11)
O7C O 0.1668(7) 1.1511(16) 1.2385(11)
O8B O 1.1736(7) 1.2024(13) 0.9319(12)
O8B_2 O 0.1736(7) 1.2024(13) 0.9319(12)
O9B O 1.1973(6) 1.1719(12) 1.0580(11)
O9B_2 O 0.1973(6) 1.1719(12) 1.0580(11)
O10B O 0.3004(6) 0.3001(10) 1.0931(11)
O10B_2 O 0.3004(6) 1.3001(10) 1.0931(11)
O11B O 0.3221(6) 0.2746(11) 1.2208(11)
O11B_2 O 0.3221(6) 1.2746(11) 1.2208(11)
O12B O 0.6677(7) 0.6772(12) 1.0893(11)
O12_2 O 0.3323(7) 1.3228(12) 0.9107(11)
O13B O 0.6986(6) 0.6159(10) 1.2057(10)
O13A O 0.6986(6) 0.8841(10) 0.7057(10)
O13C O 0.3014(6) 1.1159(10) 1.2943(10)
C1B C 0.3254(10) 1.1247(16) 1.0427(17)
C2B C 0.3778(10) 1.0864(17) 1.0279(15)
C3B C 0.4022(12) 1.0193(18) 1.0725(16)
H1B H 0.3849 0.9957 1.1133
C4B C 0.4486(10) 0.9862(15) 1.0612(14)
H2B H 0.4634 0.9398 1.0933
C5B C 0.4744(10) 1.0178(18) 1.0049(15)
N1B N 0.4521(10) 1.084(2) 0.9532(16)
C6B C 0.4034(11) 1.118(2) 0.9663(17)
H3B H 0.3876 1.1628 0.9333
C7B C 1.1791(10) 0.3529(19) 1.1153(18)
C8B C 1.1334(6) 0.4068(13) 1.1324(11)
C9B C 1.1110(8) 0.3904(16) 1.2006(12)
H4B H 1.1263 0.3485 1.2375
C10B C 1.0661(8) 0.4352(18) 1.2147(11)
H5B H 1.0508 0.4239 1.2612
C11B C 1.0436(7) 0.4964(15) 1.1606(11)
N2B N 1.0661(7) 0.5129(12) 1.0925(10)
C12B C 1.1109(7) 0.4681(14) 1.0784(9)
H6B H 1.1262 0.4794 1.0318
C13B C 0.8422(9) 0.6328(17) 1.1942(16)
C14B C 0.9955(6) 0.5388(16) 1.1654(11)
C15B C 0.9767(8) 0.5301(18) 1.2375(9)
H7B H 0.9976 0.5015 1.2805
C16B C 0.9274(8) 0.5632(18) 1.2469(9)
H8B H 0.9145 0.5573 1.2962
C17B C 0.8968(6) 0.6051(14) 1.1840(10)
C18B C 0.9156(7) 0.6137(14) 1.1118(9)
H9B H 0.8948 0.6423 1.0689
N3B N 0.9650(7) 0.5806(16) 1.1025(9)
C19B C 1.1653(10) 1.1667(18) 0.9945(16)
C20B C 1.1154(10) 1.1152(18) 0.9927(15)
C21B C 1.0797(12) 1.107(3) 0.9253(18)
H10B H 1.0860 1.1325 0.8768
C22B C 1.0341(12) 1.060(2) 0.9295(18)
H11B H 1.0089 1.0540 0.8830
C23B C 1.0245(10) 1.025(2) 0.9954(16)
N4B N 1.0598(10) 1.030(2) 1.0610(15)
C24B C 1.1041(12) 1.073(2) 1.0582(17)
H12B H 1.1297 1.0750 1.1048
C25B C 0.3293(9) 0.3125(15) 1.1579(15)
C26B C 0.3757(9) 0.3705(17) 1.1615(14)
C27B C 0.4106(10) 0.381(2) 1.2313(17)
H13B H 0.4041 0.3520 1.2783
C28B C 0.4547(9) 0.4322(18) 1.2325(15)
H14B H 0.4782 0.4410 1.2805
C29B C 0.4641(10) 0.4702(17) 1.1642(15)
N5B N 0.4299(9) 0.4645(19) 1.0964(14)
C30B C 0.3864(11) 0.414(2) 1.0940(17)
H15B H 0.3629 0.4076 1.0455
C31B C 0.5134(10) 0.5208(18) 1.1634(15)
C32B C 0.5523(9) 0.5179(19) 1.2262(15)
H16B H 0.5468 0.4887 1.2733
C33B C 0.5986(12) 0.556(2) 1.2218(19)
H17B H 0.6258 0.5533 1.2664
C34B C 0.6084(9) 0.5989(17) 1.1560(15)
C35B C 0.5684(10) 0.605(2) 1.0943(16)
H18B H 0.5742 0.6368 1.0488
N6B N 0.5188(10) 0.5660(19) 1.0950(15)
C36B C 0.6620(10) 0.6353(16) 1.1503(16)
O14B O 0.2729(8) 1.4471(13) 0.9783(14)
C37B C 0.2412(15) 1.508(2) 0.963(3)
N7B N 0.260(2) 1.593(3) 0.994(3)
C38B C 0.308(3) 1.605(6) 1.059(4)
C39B C 0.344(3) 1.616(6) 0.995(5)
C40B C 0.222(3) 1.669(4) 0.978(6)
C41B C 0.192(5) 1.668(8) 1.050(7)
O15B O 0.2271(9) 1.0261(15) 1.1747(15)
C42B C 0.2609(19) 0.968(3) 1.182(4)
N8B N 0.237(2) 0.882(4) 1.188(4)
C43B C 0.285(4) 0.826(3) 1.177(9)
C44B C 0.298(9) 0.799(13) 1.265(9)
C45B C 0.195(4) 0.905(9) 1.242(5)
C46B C 0.156(3) 0.866(5) 1.174(5)
O16 O 0.376(2) 0.866(4) 0.748(4)
C47 C 0.419(2) 0.878(3) 0.792(4)
N9 N 0.4485(16) 0.797(3) 0.789(3)
C48 C 0.431(2) 0.726(3) 0.727(3)
C49 C 0.456(2) 0.740(4) 0.651(4)
C50 C 0.5049(18) 0.798(4) 0.844(4)
C51 C 0.489(3) 0.742(5) 0.911(4)
O17 O 0.814(4) 0.065(9) 0.084(10)
C52 C 0.773(3) 0.021(6) 0.062(5)
N10 N 0.723(2) 0.050(3) 0.089(3)
C53 C 0.688(3) 0.124(5) 0.052(5)
C54 C 0.704(3) 0.148(5) -0.029(4)
C55 C 0.704(3) 0.006(4) 0.160(3)
C56 C 0.737(4) 0.016(6) 0.243(4)
O18 O 0.883(3) 0.392(4) 0.125(4)
C57 C 0.920(3) 0.373(5) 0.087(5)
N11 N 0.952(3) 0.295(5) 0.107(5)
C58 C 0.997(4) 0.268(7) 0.060(6)
C59 C 0.960(5) 0.247(9) -0.017(7)
C60 C 0.940(4) 0.235(7) 0.174(6)
C61 C 0.970(5) 0.273(8) 0.251(7)
loop_
_geom_bond_atom_site_label_1
_geom_bond_atom_site_label_2
_geom_bond_site_symmetry_1
_geom_bond_site_symmetry_2
Sm1 O1 1_555 1_555
Sm2 O3 1_555 1_555
O2 Sm1 1_555 1_555
O3 C1 1_555 1_555
O4 Sm1 1_555 1_555
O5 Sm2 1_555 1_555
O6 C13 1_555 1_555
O7 C13 1_555 1_555
O8 Sm1 1_555 1_555
O9 Sm2 1_555 1_555
O10 Sm1 1_555 1_555
O11 Sm2 1_555 1_555
O12 C36 1_555 1_555
O13 C36 1_555 1_555
C1 O2 1_555 1_555
C2 C1 1_555 1_555
C3 C2 1_555 1_555
H1 C3 1_555 1_555
C4 C3 1_555 1_555
H2 C4 1_555 1_555
C5 C4 1_555 1_555
N1 C5 1_555 1_555
C6 C2 1_555 1_555
H3 C6 1_555 1_555
C7 O4 1_555 1_555
C8 C7 1_555 1_555
C9 C8 1_555 1_555
H4 C9 1_555 1_555
C10 C9 1_555 1_555
H5 C10 1_555 1_555
C11 C10 1_555 1_555
N2 C11 1_555 1_555
C12 C8 1_555 1_555
H6 C12 1_555 1_555
C13 C17 1_555 1_555
C14 C11 1_555 1_555
C15 C14 1_555 1_555
H7 C15 1_555 1_555
C16 C15 1_555 1_555
H8 C16 1_555 1_555
C17 C16 1_555 1_555
C18 C17 1_555 1_555
H9 C18 1_555 1_555
N3 C14 1_555 1_555
C19 O8 1_555 1_555
C20 C19 1_555 1_555
C21 C20 1_555 1_555
H10 C21 1_555 1_555
C22 C21 1_555 1_555
H11 C22 1_555 1_555
C23 C22 1_555 1_555
N4 C23 1_555 1_555
C24 C20 1_555 1_555
H12 C24 1_555 1_555
C25 O10 1_555 1_555
C26 C25 1_555 1_555
C27 C26 1_555 1_555
H13 C27 1_555 1_555
C28 C27 1_555 1_555
H14 C28 1_555 1_555
C29 C28 1_555 1_555
N5 C29 1_555 1_555
C30 C26 1_555 1_555
H15 C30 1_555 1_555
C31 C29 1_555 1_555
C32 C31 1_555 1_555
H16 C32 1_555 1_555
C33 C32 1_555 1_555
H17 C33 1_555 1_555
C34 C33 1_555 1_555
C35 C34 1_555 1_555
H18 C35 1_555 1_555
N6 C31 1_555 1_555
C36 C34 1_555 1_555
O14 Sm1 1_555 1_555
C37 O14 1_555 1_555
N7 C37 1_555 1_555
C38 N7 1_555 1_555
C39 C38 1_555 1_555
C40 N7 1_555 1_555
C41 C40 1_555 1_555
O15 Sm2 1_555 1_555
C42 O15 1_555 1_555
N8 C42 1_555 1_555
C43 N8 1_555 1_555
C44 C43 1_555 1_555
C45 N8 1_555 1_555
C46 C45 1_555 1_555
O16 C47 1_555 1_555
C47 N9 1_555 1_555
N9 C48 1_555 1_555
C48 C49 1_555 1_555
C50 N9 1_555 1_555
C51 C50 1_555 1_555
O17 C52 1_555 1_555
C52 N10 1_555 1_555
N10 C53 1_555 1_555
C53 C54 1_555 1_555
C55 N10 1_555 1_555
C56 C55 1_555 1_555
O18 C57 1_555 1_555
C57 N11 1_555 1_555
N11 C58 1_555 1_555
C58 C59 1_555 1_555
C60 N11 1_555 1_555
C61 C60 1_555 1_555
Sm1B O1B 1_555 1_555
Sm1B_2 O6 1_555 1_555
Sm1B_3 O12 1_555 1_555
Sm1B_4 O8B 1_555 1_555
Sm2B O3B 1_555 1_555
Sm2A O7 1_555 1_555
Sm2A_2 O13 1_555 1_555
Sm2B_2 O9B 1_555 1_555
Sm2B_3 O5B 1_555 1_555
Sm2C O7B 1_555 1_555
Sm2B_4 O11B 1_555 1_555
O2B Sm1B 1_555 1_555
O3B C1B 1_555 1_555
O4B Sm1B_2 1_555 1_555
O4B_2 Sm1B 1_555 1_555
O5B C7B 1_555 1_555
O5B_2 Sm2B 1_555 1_555
O6B Sm1 1_555 1_555
O6_2 Sm1B 1_555 1_555
O7B C13B 1_555 1_555
O7A Sm2 1_555 1_555
O7C Sm2B 1_555 1_555
O8B C19B 1_555 1_555
O8B_2 Sm1B 1_555 1_555
O9B C19B 1_555 1_555
O9B_2 Sm2B 1_555 1_555
O10B Sm1B_3 1_555 1_555
O10B_2 Sm1B 1_555 1_555
O11B C25B 1_555 1_555
O11B_2 Sm2B 1_555 1_555
O12B Sm1 1_555 1_555
O12_2 Sm1B 1_555 1_555
O13B Sm2C 1_555 1_555
O13A Sm2 1_555 1_555
O13C Sm2B 1_555 1_555
C1B O2B 1_555 1_555
C2B C1B 1_555 1_555
C3B C2B 1_555 1_555
H1B C3B 1_555 1_555
C4B C3B 1_555 1_555
H2B C4B 1_555 1_555
C5B C5 1_555 1_555
N1B C5B 1_555 1_555
C6B C2B 1_555 1_555
H3B C6B 1_555 1_555
C7B O4B 1_555 1_555
C8B C7B 1_555 1_555
C9B C8B 1_555 1_555
H4B C9B 1_555 1_555
C10B C9B 1_555 1_555
H5B C10B 1_555 1_555
C11B C10B 1_555 1_555
N2B C11B 1_555 1_555
C12B C8B 1_555 1_555
H6B C12B 1_555 1_555
C13B O6B 1_555 1_555
C14B C11B 1_555 1_555
C15B C14B 1_555 1_555
H7B C15B 1_555 1_555
C16B C15B 1_555 1_555
H8B C16B 1_555 1_555
C17B C13B 1_555 1_555
C18B C17B 1_555 1_555
H9B C18B 1_555 1_555
N3B C14B 1_555 1_555
C19B C20B 1_555 1_555
C20B C21B 1_555 1_555
C21B H10B 1_555 1_555
C22B C21B 1_555 1_555
H11B C22B 1_555 1_555
C23B C23 1_555 1_555
N4B C23B 1_555 1_555
C24B C20B 1_555 1_555
H12B C24B 1_555 1_555
C25B O10B 1_555 1_555
C26B C25B 1_555 1_555
C27B C26B 1_555 1_555
H13B C27B 1_555 1_555
C28B C27B 1_555 1_555
H14B C28B 1_555 1_555
C29B C28B 1_555 1_555
N5B C29B 1_555 1_555
C30B C26B 1_555 1_555
H15B C30B 1_555 1_555
C31B C29B 1_555 1_555
C32B C31B 1_555 1_555
H16B C32B 1_555 1_555
C33B C32B 1_555 1_555
H17B C33B 1_555 1_555
C34B C33B 1_555 1_555
C35B C34B 1_555 1_555
H18B C35B 1_555 1_555
N6B C31B 1_555 1_555
C36B O12B 1_555 1_555
O14B Sm1B 1_555 1_555
C37B O14B 1_555 1_555
N7B C37B 1_555 1_555
C38B N7B 1_555 1_555
C39B C38B 1_555 1_555
C40B N7B 1_555 1_555
C41B C40B 1_555 1_555
O15B Sm2B 1_555 1_555
C42B O15B 1_555 1_555
N8B C42B 1_555 1_555
C43B N8B 1_555 1_555
C44B C43B 1_555 1_555
C45B N8B 1_555 1_555
C46B C45B 1_555 1_555
O5 C7 1_555 1_555
O9 C19 1_555 1_555
O11 C25 1_555 1_555
N1 C6 1_555 1_555
N2 C12 1_555 1_555
C18 N3 1_555 1_555
N4 C24 1_555 1_555
N5 C30 1_555 1_555
C35 N6 1_555 1_555
O13B C36B 1_555 1_555
C4B C5B 1_555 1_555
N1B C6B 1_555 1_555
N2B C12B 1_555 1_555
C16B C17B 1_555 1_555
C18B N3B 1_555 1_555
C22B C23B 1_555 1_555
N4B C24B 1_555 1_555
N5B C30B 1_555 1_555
C34B C36B 1_555 1_555
C35B N6B 1_555 1_555

#END
