
#######################################################################
#
#                 Cambridge Crystallographic Data Centre
#                                CCDC 
#
#######################################################################
#
# If this CIF has been generated from an entry in the Cambridge 
# Structural Database, then it will include bibliographic, chemical, 
# crystal, experimental, refinement or atomic coordinate data resulting 
# from the CCDC's data processing and validation procedures.
#
#######################################################################

data_NEFTUP
_symmetry_cell_setting           monoclinic
_symmetry_space_group_name_H-M   'C 2/c'
_symmetry_Int_Tables_number      15
_space_group_name_Hall           '-C 2yn'
loop_
_symmetry_equiv_pos_site_id
_symmetry_equiv_pos_as_xyz
1 x,y,z
2 -x,y,1/2-z
3 1/2+x,1/2+y,z
4 1/2-x,1/2+y,1/2-z
5 -x,-y,-z
6 x,-y,1/2+z
7 1/2-x,1/2-y,-z
8 1/2+x,1/2-y,1/2+z
_cell_length_a                   16.813(3)
_cell_length_b                   12.986(3)
_cell_length_c                   11.845(2)
_cell_angle_alpha                90
_cell_angle_beta                 107.64(3)
_cell_angle_gamma                90
_cell_volume                     2464.56
loop_
_atom_site_label
_atom_site_type_symbol
_atom_site_fract_x
_atom_site_fract_y
_atom_site_fract_z
N1 N 0.5000 0.1138(3) 0.7500
O1 O 0.5321(2) 0.0635(3) 0.8404(3)
O2 O 0.5000 0.2058(3) 0.7500
O1A O 0.4679(2) 0.0635(3) 0.6596(3)
Co1 Co 1.0000 0.0000 1.0000
N2 N 1.0000 0.0461(2) 1.2500
N3 N 1.03937(14) 0.04708(19) 1.18322(19)
N4 N 0.87830(13) 0.06535(17) 0.97930(19)
N5 N 0.77408(13) 0.11142(17) 1.04560(18)
N6 N 0.61268(14) 0.25049(16) 1.36864(19)
N7 N 0.55015(13) 0.35903(16) 1.45705(19)
C1 C 0.85656(15) 0.12110(19) 1.0576(2)
H1 H 0.8932 0.1622 1.1144
C2 C 0.65523(16) 0.2138(2) 1.2885(2)
C3 C 0.73304(15) 0.1485(2) 1.1272(2)
C4 C 0.66259(17) 0.0978(2) 1.1362(3)
H2 H 0.6414 0.0419 1.0873
C5 C 0.5789(2) 0.1938(2) 1.4404(3)
H3 H 0.5811 0.1226 1.4496
C6 C 0.59334(18) 0.3491(2) 1.3818(3)
H4 H 0.6086 0.4039 1.3423
C7 C 0.62395(17) 0.1301(2) 1.2170(3)
H5 H 0.5770 0.0957 1.2235
C8 C 0.54197(19) 0.2611(2) 1.4948(3)
H6 H 0.5149 0.2437 1.5500
C9 C 0.80568(17) 0.0190(2) 0.9118(2)
H7 H 0.8019 -0.0247 0.8482
C10 C 0.74119(17) 0.0457(2) 0.9504(2)
H8 H 0.6860 0.0246 0.9197
C11 C 0.72636(19) 0.2623(2) 1.2816(3)
H9 H 0.7484 0.3172 1.3317
C12 C 0.76516(18) 0.2298(2) 1.2003(3)
H10 H 0.8130 0.2630 1.1954
Co1C Co 0.5000 0.5000 1.5000
Co1A Co 1.0000 0.0000 1.5000
Co1C_2 Co 0.5000 -0.5000 1.5000
N3A N 0.96063(14) 0.04708(19) 1.31678(19)
N3D N 0.96063(14) -0.04708(19) 0.81678(19)
N4C N 0.62170(13) -0.43465(17) 1.52070(19)
N4D N 1.12170(13) -0.06535(17) 1.02070(19)
N5C N 0.72592(13) -0.38858(17) 1.45440(18)
N6C N 0.88732(14) -0.24951(16) 1.13136(19)
N7C N 0.94985(13) -0.14097(16) 1.04295(19)
N7G N 1.05015(13) 0.14097(16) 0.95705(19)
C1C C 0.64344(15) -0.37890(19) 1.4424(2)
H1C H 0.6068 -0.3378 1.3856
C2C C 0.84477(16) -0.2862(2) 1.2115(2)
C3C C 0.76696(15) -0.3515(2) 1.3728(2)
C4C C 0.83741(17) -0.4022(2) 1.3638(3)
H2C H 0.8586 -0.4581 1.4127
C5C C 0.9211(2) -0.3062(2) 1.0596(3)
H3C H 0.9189 -0.3774 1.0504
C6C C 0.90666(18) -0.1509(2) 1.1182(3)
H4C H 0.8914 -0.0961 1.1577
C7C C 0.87605(17) -0.3699(2) 1.2830(3)
H5C H 0.9230 -0.4043 1.2765
C8C C 0.95803(19) -0.2389(2) 1.0052(3)
H6C H 0.9851 -0.2563 0.9500
C9C C 0.69432(17) -0.4810(2) 1.5882(2)
H7C H 0.6981 -0.5247 1.6518
C10C C 0.75881(17) -0.4543(2) 1.5496(2)
H8C H 0.8140 -0.4754 1.5803
C11C C 0.77364(19) -0.2377(2) 1.2184(3)
H9C H 0.7516 -0.1828 1.1683
C12C C 0.73484(18) -0.2702(2) 1.2997(3)
H10C H 0.6870 -0.2370 1.3046
loop_
_geom_bond_atom_site_label_1
_geom_bond_atom_site_label_2
_geom_bond_site_symmetry_1
_geom_bond_site_symmetry_2
N1 O1 1_555 1_555
O2 N1 1_555 1_555
Co1 N3 1_555 1_555
N2 N3 1_555 1_555
N4 Co1 1_555 1_555
N5 C1 1_555 1_555
N6 C2 1_555 1_555
N7 C6 1_555 1_555
C1 N4 1_555 1_555
H1 C1 1_555 1_555
C2 C7 1_555 1_555
C3 N5 1_555 1_555
C4 C3 1_555 1_555
H2 C4 1_555 1_555
C5 N6 1_555 1_555
H3 C5 1_555 1_555
C6 N6 1_555 1_555
H4 C6 1_555 1_555
C7 C4 1_555 1_555
H5 C7 1_555 1_555
C8 N7 1_555 1_555
H6 C8 1_555 1_555
C9 N4 1_555 1_555
H7 C9 1_555 1_555
C10 N5 1_555 1_555
H8 C10 1_555 1_555
C11 C2 1_555 1_555
H9 C11 1_555 1_555
C12 C3 1_555 1_555
H10 C12 1_555 1_555
O1A N1 1_555 1_555
Co1C N7 1_555 1_555
Co1A N3A 1_555 1_555
Co1C_2 N4C 1_555 1_555
N3A N2 1_555 1_555
N3D Co1 1_555 1_555
N4C C1C 1_555 1_555
N4D Co1 1_555 1_555
N5C C1C 1_555 1_555
N6C C2C 1_555 1_555
N7C Co1 1_555 1_555
N7G Co1 1_555 1_555
C1C H1C 1_555 1_555
C2C C7C 1_555 1_555
C3C N5C 1_555 1_555
C4C C3C 1_555 1_555
H2C C4C 1_555 1_555
C5C N6C 1_555 1_555
H3C C5C 1_555 1_555
C6C N6C 1_555 1_555
H4C C6C 1_555 1_555
C7C C4C 1_555 1_555
H5C C7C 1_555 1_555
C8C N7C 1_555 1_555
H6C C8C 1_555 1_555
C9C N4C 1_555 1_555
H7C C9C 1_555 1_555
C10C N5C 1_555 1_555
H8C C10C 1_555 1_555
C11C C2C 1_555 1_555
H9C C11C 1_555 1_555
C12C C3C 1_555 1_555
H10C C12C 1_555 1_555
C5 C8 1_555 1_555
C9 C10 1_555 1_555
C11 C12 1_555 1_555
N7C C6C 1_555 1_555
C5C C8C 1_555 1_555
C9C C10C 1_555 1_555
C11C C12C 1_555 1_555

#END
