
#######################################################################
#
#                 Cambridge Crystallographic Data Centre
#                                CCDC 
#
#######################################################################
#
# If this CIF has been generated from an entry in the Cambridge 
# Structural Database, then it will include bibliographic, chemical, 
# crystal, experimental, refinement or atomic coordinate data resulting 
# from the CCDC's data processing and validation procedures.
#
#######################################################################

data_NEHGEO
_symmetry_cell_setting           cubic
_symmetry_space_group_name_H-M   'I a -3'
_symmetry_Int_Tables_number      206
_space_group_name_Hall           '-I 2b 2c 3'
loop_
_symmetry_equiv_pos_site_id
_symmetry_equiv_pos_as_xyz
1 x,y,z
2 -x,1/2-y,z
3 x,-y,1/2-z
4 -x,1/2+y,1/2-z
5 z,x,y
6 -z,1/2-x,y
7 z,-x,1/2-y
8 -z,1/2+x,1/2-y
9 y,z,x
10 y,-z,1/2-x
11 -y,1/2+z,1/2-x
12 -y,1/2-z,x
13 1/2+x,1/2+y,1/2+z
14 1/2-x,-y,1/2+z
15 1/2+x,1/2-y,-z
16 1/2-x,y,-z
17 1/2+z,1/2+x,1/2+y
18 1/2-z,-x,1/2+y
19 1/2+z,1/2-x,-y
20 1/2-z,x,-y
21 1/2+y,1/2+z,1/2+x
22 1/2+y,1/2-z,-x
23 1/2-y,z,-x
24 1/2-y,-z,1/2+x
25 -x,-y,-z
26 x,1/2+y,-z
27 -x,y,1/2+z
28 x,1/2-y,1/2+z
29 -z,-x,-y
30 z,1/2+x,-y
31 -z,x,1/2+y
32 z,1/2-x,1/2+y
33 -y,-z,-x
34 -y,z,1/2+x
35 y,1/2-z,1/2+x
36 y,1/2+z,-x
37 1/2-x,1/2-y,1/2-z
38 1/2+x,y,1/2-z
39 1/2-x,1/2+y,z
40 1/2+x,-y,z
41 1/2-z,1/2-x,1/2-y
42 1/2+z,x,1/2-y
43 1/2-z,1/2+x,y
44 1/2+z,-x,y
45 1/2-y,1/2-z,1/2-x
46 1/2-y,1/2+z,x
47 1/2+y,-z,x
48 1/2+y,z,1/2-x
_cell_length_a                   22.5597(12)
_cell_length_b                   22.5597(12)
_cell_length_c                   22.5597(12)
_cell_angle_alpha                90
_cell_angle_beta                 90
_cell_angle_gamma                90
_cell_volume                     11481.5
loop_
_atom_site_label
_atom_site_type_symbol
_atom_site_fract_x
_atom_site_fract_y
_atom_site_fract_z
N1 N 0.3346(2) 0.3203(2) 0.0577(2)
O4 O 0.33374(16) 0.36393(16) 0.02639(17)
O5 O 0.36260(18) 0.31889(16) 0.10271(16)
O6 O 0.30519(18) 0.27615(18) 0.04564(17)
C1 C 0.45275(16) 0.44923(16) 0.14182(16)
C2 C 0.43213(10) 0.42853(11) 0.20167(7)
C3 C 0.37228(9) 0.42174(11) 0.21465(9)
H1 H 0.3440 0.4276 0.1852
C4 C 0.35468(8) 0.40620(12) 0.27161(10)
H2 H 0.3146 0.4017 0.2803
C5 C 0.39692(10) 0.39745(12) 0.31560(8)
C6 C 0.45677(9) 0.40425(12) 0.30263(9)
H3 H 0.4850 0.3984 0.3321
C7 C 0.47437(7) 0.41978(11) 0.24566(9)
H4 H 0.5144 0.4243 0.2370
C8 C 0.3837(2) 0.3837(2) 0.3837(2)
H5 H 0.4088 0.4088 0.4088
Zn1 Zn 0.427750(17) 0.453720(16) 0.012530(17)
O1 O 0.41571(12) 0.45311(12) 0.10193(12)
O2 O 0.50295(12) 0.46587(11) 0.13501(11)
O3 O 0.5000 0.5000 0.0000
C1H C 0.44923(16) 0.14182(16) 0.45275(16)
C1D C 0.14182(16) 0.45275(16) 0.44923(16)
C1HA C 0.44923(16) 0.35818(16) -0.04725(16)
C1EA C 0.14182(16) 0.04725(16) -0.05077(16)
C1AA C 0.45275(16) 0.05077(16) -0.35818(16)
C2H C 0.42853(11) 0.20167(7) 0.43213(10)
C2D C 0.20167(7) 0.43213(10) 0.42853(11)
C2HA C 0.42853(11) 0.29833(7) -0.06787(10)
C2EA C 0.20167(7) 0.06787(10) -0.07147(11)
C2AA C 0.43213(10) 0.07147(11) -0.29833(7)
C3H C 0.42174(11) 0.21465(9) 0.37228(9)
C3D C 0.21465(9) 0.37228(9) 0.42174(11)
C3HA C 0.42174(11) 0.28535(9) -0.12772(9)
C3EA C 0.21465(9) 0.12772(9) -0.07826(11)
C3AA C 0.37228(9) 0.07826(11) -0.28535(9)
H1H H 0.4276 0.1852 0.3440
H1D H 0.1852 0.3440 0.4276
H1HA H 0.4276 0.3148 -0.1560
H1EA H 0.1852 0.1560 -0.0724
H1AA H 0.3440 0.0724 -0.3148
C4H C 0.40620(12) 0.27161(10) 0.35468(8)
C4D C 0.27161(10) 0.35468(8) 0.40620(12)
C4HA C 0.40620(12) 0.22839(10) -0.14532(8)
C4EA C 0.27161(10) 0.14532(8) -0.09380(12)
C4AA C 0.35468(8) 0.09380(12) -0.22839(10)
H2H H 0.4017 0.2803 0.3146
H2D H 0.2803 0.3146 0.4017
H2HA H 0.4017 0.2197 -0.1854
H2EA H 0.2803 0.1854 -0.0983
H2AA H 0.3146 0.0983 -0.2197
C5H C 0.39745(12) 0.31560(8) 0.39692(10)
C5D C 0.31560(8) 0.39692(10) 0.39745(12)
C5HA C 0.39745(12) 0.18440(8) -0.10308(10)
C5EA C 0.31560(8) 0.10308(10) -0.10255(12)
C5AA C 0.39692(10) 0.10255(12) -0.18440(8)
C6H C 0.40425(12) 0.30263(9) 0.45677(9)
C6D C 0.30263(9) 0.45677(9) 0.40425(12)
C6HA C 0.40425(12) 0.19737(9) -0.04323(9)
C6EA C 0.30263(9) 0.04323(9) -0.09575(12)
C6AA C 0.45677(9) 0.09575(12) -0.19737(9)
H3H H 0.3984 0.3321 0.4850
H3D H 0.3321 0.4850 0.3984
H3HA H 0.3984 0.1679 -0.0150
H3EA H 0.3321 0.0150 -0.1016
H3AA H 0.4850 0.1016 -0.1679
C7H C 0.41978(11) 0.24566(9) 0.47437(7)
C7D C 0.24566(9) 0.47437(7) 0.41978(11)
C7HA C 0.41978(11) 0.25434(9) -0.02563(7)
C7EA C 0.24566(9) 0.02563(7) -0.08022(11)
C7AA C 0.47437(7) 0.08022(11) -0.25434(9)
H4H H 0.4243 0.2370 0.5144
H4D H 0.2370 0.5144 0.4243
H4HA H 0.4243 0.2630 0.0144
H4EA H 0.2370 -0.0144 -0.0757
H4AA H 0.5144 0.0757 -0.2630
C8AA C 0.3837(2) 0.1163(2) -0.1163(2)
H5AA H 0.4088 0.0912 -0.0912
Zn1H Zn 0.453720(16) 0.012530(17) 0.427750(17)
Zn1D Zn 0.012530(17) 0.427750(17) 0.453720(16)
Zn1HA Zn 0.453720(16) 0.487470(17) -0.072250(17)
Zn1EA Zn 0.012530(17) 0.072250(17) -0.046280(16)
Zn1AA Zn 0.427750(17) 0.046280(16) -0.487470(17)
Zn1OA Zn 0.512530(17) 0.427750(17) 0.046280(16)
Zn1J Zn 0.546280(16) 0.512530(17) 0.072250(17)
Zn1X Zn 0.572250(17) 0.546280(16) -0.012530(17)
Zn1Q Zn 0.487470(17) 0.572250(17) -0.046280(16)
Zn1AA_2 Zn 0.427750(17) 0.046280(16) 0.512530(17)
Zn1R Zn 0.512530(17) 0.072250(17) 0.546280(16)
Zn1SA Zn 0.046280(16) 0.512530(17) 0.427750(17)
Zn1M Zn 0.072250(17) 0.546280(16) 0.512530(17)
Zn1W Zn 0.046280(16) -0.012530(17) -0.072250(17)
Zn1LA Zn 0.072250(17) -0.046280(16) 0.012530(17)
Zn1R_2 Zn 0.512530(17) 0.072250(17) -0.453720(16)
Zn1FA Zn 0.546280(16) -0.012530(17) -0.427750(17)
Zn1PA Zn 0.487470(17) -0.072250(17) 0.453720(16)
Zn1KA Zn -0.072250(17) 0.453720(16) 0.487470(17)
Zn1N Zn -0.072250(17) 0.046280(16) -0.012530(17)
Zn1H_2 Zn 0.453720(16) 0.012530(17) -0.572250(17)
O1H O 0.45311(12) 0.10193(12) 0.41571(12)
O1D O 0.10193(12) 0.41571(12) 0.45311(12)
O1HA O 0.45311(12) 0.39807(12) -0.08429(12)
O1EA O 0.10193(12) 0.08429(12) -0.04689(12)
O1AA O 0.41571(12) 0.04689(12) -0.39807(12)
O2H O 0.46587(11) 0.13501(11) 0.50295(12)
O2D O 0.13501(11) 0.50295(12) 0.46587(11)
O2HA O 0.46587(11) 0.36499(11) 0.00295(12)
O2EA O 0.13501(11) -0.00295(12) -0.03413(11)
O2AA O 0.50295(12) 0.03413(11) -0.36499(11)
O2Q O 0.36499(11) 0.49705(12) -0.03413(11)
O2PA O 0.36499(11) 0.00295(12) 0.46587(11)
O2C O 0.49705(12) -0.03413(11) 0.36499(11)
O2KA O 0.00295(12) 0.46587(11) 0.36499(11)
O2U O -0.03413(11) 0.36499(11) 0.49705(12)
O2X O 0.49705(12) 0.53413(11) -0.13501(11)
O2N O 0.00295(12) 0.03413(11) -0.13501(11)
O2UA O -0.03413(11) 0.13501(11) -0.00295(12)
O2H_2 O 0.46587(11) 0.13501(11) -0.49705(12)
O2PA_2 O 0.36499(11) 0.00295(12) -0.53413(11)
O3C O 0.5000 0.0000 0.5000
O3D O 0.0000 0.5000 0.5000
O3G O 0.0000 0.0000 0.0000
O3C_2 O 0.5000 0.0000 -0.5000
O7? O 0.2493(5) 0.2992(4) 0.2495(5)
H6? H 0.2211 0.2962 0.2247
H7? H 0.2623 0.2623 0.2623
loop_
_geom_bond_atom_site_label_1
_geom_bond_atom_site_label_2
_geom_bond_site_symmetry_1
_geom_bond_site_symmetry_2
C1 C2 1_555 1_555
C2 C3 1_555 1_555
C3 H1 1_555 1_555
C4 C3 1_555 1_555
H2 C4 1_555 1_555
C5 C4 1_555 1_555
C6 C5 1_555 1_555
H3 C6 1_555 1_555
C7 C2 1_555 1_555
H4 C7 1_555 1_555
C8 C5 1_555 1_555
H5 C8 1_555 1_555
N1 O4 1_555 1_555
Zn1 O1 1_555 1_555
O1 C1 1_555 1_555
O2 C1 1_555 1_555
O3 Zn1 1_555 1_555
O5 N1 1_555 1_555
O6 N1 1_555 1_555
C1H C2H 1_555 1_555
C1D C2D 1_555 1_555
C1HA C2HA 1_555 1_555
C1EA C2EA 1_555 1_555
C1AA C2AA 1_555 1_555
C2H C3H 1_555 1_555
C2D C3D 1_555 1_555
C2HA C3HA 1_555 1_555
C2EA C3EA 1_555 1_555
C2AA C3AA 1_555 1_555
C3H H1H 1_555 1_555
C3D H1D 1_555 1_555
C3HA H1HA 1_555 1_555
C3EA H1EA 1_555 1_555
C3AA H1AA 1_555 1_555
C4H C3H 1_555 1_555
C4D C3D 1_555 1_555
C4HA C3HA 1_555 1_555
C4EA C3EA 1_555 1_555
C4AA C3AA 1_555 1_555
H2H C4H 1_555 1_555
H2D C4D 1_555 1_555
H2HA C4HA 1_555 1_555
H2EA C4EA 1_555 1_555
H2AA C4AA 1_555 1_555
C5H C8 1_555 1_555
C5D C8 1_555 1_555
C5HA C4HA 1_555 1_555
C5EA C4EA 1_555 1_555
C5AA C4AA 1_555 1_555
C6H C5H 1_555 1_555
C6D C5D 1_555 1_555
C6HA C5HA 1_555 1_555
C6EA C5EA 1_555 1_555
C6AA C5AA 1_555 1_555
H3H C6H 1_555 1_555
H3D C6D 1_555 1_555
H3HA C6HA 1_555 1_555
H3EA C6EA 1_555 1_555
H3AA C6AA 1_555 1_555
C7H C2H 1_555 1_555
C7D C2D 1_555 1_555
C7HA C2HA 1_555 1_555
C7EA C2EA 1_555 1_555
C7AA C2AA 1_555 1_555
H4H C7H 1_555 1_555
H4D C7D 1_555 1_555
H4HA C7HA 1_555 1_555
H4EA C7EA 1_555 1_555
H4AA C7AA 1_555 1_555
C8AA C5HA 1_555 1_555
H5AA C8AA 1_555 1_555
Zn1H Zn1AA_2 1_555 1_555
Zn1D Zn1SA 1_555 1_555
Zn1HA Zn1 1_555 1_555
Zn1EA Zn1W 1_555 1_555
Zn1AA Zn1R_2 1_555 1_555
Zn1OA Zn1 1_555 1_555
Zn1J O2 1_555 1_555
Zn1X O3 1_555 1_555
Zn1Q O3 1_555 1_555
Zn1AA_2 Zn1R 1_555 1_555
Zn1R O2H 1_555 1_555
Zn1SA Zn1M 1_555 1_555
Zn1M O2D 1_555 1_555
Zn1W Zn1LA 1_555 1_555
Zn1LA O2EA 1_555 1_555
Zn1R_2 Zn1FA 1_555 1_555
Zn1FA O2AA 1_555 1_555
Zn1PA Zn1H 1_555 1_555
Zn1KA Zn1D 1_555 1_555
Zn1N Zn1EA 1_555 1_555
Zn1H_2 Zn1AA 1_555 1_555
O1H C1H 1_555 1_555
O1D C1D 1_555 1_555
O1HA C1HA 1_555 1_555
O1EA C1EA 1_555 1_555
O1AA C1AA 1_555 1_555
O2H C1H 1_555 1_555
O2D C1D 1_555 1_555
O2HA Zn1 1_555 1_555
O2EA C1EA 1_555 1_555
O2AA C1AA 1_555 1_555
O2Q Zn1 1_555 1_555
O2PA Zn1H 1_555 1_555
O2C Zn1H 1_555 1_555
O2KA Zn1D 1_555 1_555
O2U Zn1D 1_555 1_555
O2X Zn1HA 1_555 1_555
O2N Zn1EA 1_555 1_555
O2UA Zn1EA 1_555 1_555
O2H_2 Zn1AA 1_555 1_555
O2PA_2 Zn1AA 1_555 1_555
O3C Zn1H 1_555 1_555
O3D Zn1D 1_555 1_555
O3G Zn1EA 1_555 1_555
O3C_2 Zn1AA 1_555 1_555
C6 C7 1_555 1_555
O2 Zn1OA 1_555 1_555
O3 Zn1HA 1_555 1_555
O3 Zn1OA 1_555 1_555
O3 Zn1J 1_555 1_555
C1HA O2HA 1_555 1_555
C4H C5H 1_555 1_555
C4D C5D 1_555 1_555
C5EA C8AA 1_555 1_555
C5AA C8AA 1_555 1_555
C6H C7H 1_555 1_555
C6D C7D 1_555 1_555
C6HA C7HA 1_555 1_555
C6EA C7EA 1_555 1_555
C6AA C7AA 1_555 1_555
Zn1H O1H 1_555 1_555
Zn1D O1D 1_555 1_555
Zn1HA Zn1Q 1_555 1_555
Zn1HA O1HA 1_555 1_555
Zn1HA O2Q 1_555 1_555
Zn1EA O1EA 1_555 1_555
Zn1AA O1AA 1_555 1_555
Zn1OA Zn1J 1_555 1_555
Zn1OA O2HA 1_555 1_555
Zn1J Zn1X 1_555 1_555
Zn1X Zn1Q 1_555 1_555
Zn1Q O2X 1_555 1_555
Zn1AA_2 O2H 1_555 1_555
Zn1AA_2 O2PA 1_555 1_555
Zn1AA_2 O3C 1_555 1_555
Zn1R O3C 1_555 1_555
Zn1SA O2D 1_555 1_555
Zn1SA O2KA 1_555 1_555
Zn1SA O3D 1_555 1_555
Zn1M O3D 1_555 1_555
Zn1W O2EA 1_555 1_555
Zn1W O2N 1_555 1_555
Zn1W O3G 1_555 1_555
Zn1LA O3G 1_555 1_555
Zn1R_2 O2AA 1_555 1_555
Zn1R_2 O2H_2 1_555 1_555
Zn1R_2 O3C_2 1_555 1_555
Zn1FA O3C_2 1_555 1_555
Zn1PA O2C 1_555 1_555
Zn1PA O3C 1_555 1_555
Zn1KA O2U 1_555 1_555
Zn1KA O3D 1_555 1_555
Zn1N O2UA 1_555 1_555
Zn1N O3G 1_555 1_555
Zn1H_2 O2PA_2 1_555 1_555
Zn1H_2 O3C_2 1_555 1_555

#END
