
#######################################################################
#
#                 Cambridge Crystallographic Data Centre
#                                CCDC 
#
#######################################################################
#
# If this CIF has been generated from an entry in the Cambridge 
# Structural Database, then it will include bibliographic, chemical, 
# crystal, experimental, refinement or atomic coordinate data resulting 
# from the CCDC's data processing and validation procedures.
#
#######################################################################

data_NEKREB
_symmetry_cell_setting           cubic
_symmetry_space_group_name_H-M   'P n 3 m'
_symmetry_Int_Tables_number      224
_space_group_name_Hall           '-P 4bc 2bc 3'
loop_
_symmetry_equiv_pos_site_id
_symmetry_equiv_pos_as_xyz
1 x,y,z
2 1/2-x,1/2-y,z
3 1/2-x,y,1/2-z
4 x,1/2-y,1/2-z
5 z,x,y
6 z,1/2-x,1/2-y
7 1/2-z,1/2-x,y
8 1/2-z,x,1/2-y
9 y,z,x
10 1/2-y,z,1/2-x
11 y,1/2-z,1/2-x
12 1/2-y,1/2-z,x
13 1/2+y,1/2+x,-z
14 -y,-x,-z
15 1/2+y,-x,1/2+z
16 -y,1/2+x,1/2+z
17 1/2+x,1/2+z,-y
18 -x,1/2+z,1/2+y
19 -x,-z,-y
20 1/2+x,-z,1/2+y
21 1/2+z,1/2+y,-x
22 1/2+z,-y,1/2+x
23 -z,1/2+y,1/2+x
24 -z,-y,-x
25 -x,-y,-z
26 1/2+x,1/2+y,-z
27 1/2+x,-y,1/2+z
28 -x,1/2+y,1/2+z
29 -z,-x,-y
30 -z,1/2+x,1/2+y
31 1/2+z,1/2+x,-y
32 1/2+z,-x,1/2+y
33 -y,-z,-x
34 1/2+y,-z,1/2+x
35 -y,1/2+z,1/2+x
36 1/2+y,1/2+z,-x
37 1/2-y,1/2-x,z
38 y,x,z
39 1/2-y,x,1/2-z
40 y,1/2-x,1/2-z
41 1/2-x,1/2-z,y
42 x,1/2-z,1/2-y
43 x,z,y
44 1/2-x,z,1/2-y
45 1/2-z,1/2-y,x
46 1/2-z,y,1/2-x
47 z,1/2-y,1/2-x
48 z,y,x
_cell_length_a                   16.34168(95)
_cell_length_b                   16.34168(95)
_cell_length_c                   16.34168(95)
_cell_angle_alpha                90
_cell_angle_beta                 90
_cell_angle_gamma                90
_cell_volume                     4364.05
loop_
_atom_site_label
_atom_site_type_symbol
_atom_site_fract_x
_atom_site_fract_y
_atom_site_fract_z
C1T C 0.888410 0.208170 0.393620
N1DA N 0.811710 0.083570 0.314240
H1T H 0.915190 0.251680 0.421340
Pd1 Pd 0.50000 0.75000 0.25000
N1 N 0.583570 0.685760 0.311710
C1 C 0.606380 0.708170 0.388410
C2 C 0.623380 0.623690 0.273130
C3 C 0.668450 0.668360 0.426990
O1 O 0.602700 0.603110 0.202420
H1 H 0.578660 0.751680 0.415190
H2 H 0.684090 0.684080 0.480730
N1KA N 0.685760 0.583570 0.311710
C1KA C 0.708170 0.606380 0.388410
H1KA H 0.751680 0.578660 0.415190
N1C N 0.583570 0.814240 0.188290
C1C C 0.606380 0.791830 0.111590
C2C C 0.623380 0.876310 0.226870
C3C C 0.668450 0.831640 0.073010
O1C O 0.602700 0.896890 0.297580
H1C H 0.578660 0.748320 0.084810
H2C H 0.684090 0.815920 0.019270
N1MA N 0.685760 0.916430 0.188290
C1MA C 0.708170 0.893620 0.111590
H1MA H 0.751680 0.921340 0.084810
Pd1BA Pd 0.75000 0.50000 0.25000
Pd1CA Pd 0.75000 1.00000 0.25000
N1Q N 0.416430 0.811710 0.185760
N1R N 0.416430 0.688290 0.314240
loop_
_geom_bond_atom_site_label_1
_geom_bond_atom_site_label_2
_geom_bond_site_symmetry_1
_geom_bond_site_symmetry_2
Pd1 N1 1_555 1_555
N1 C1 1_555 1_555
C1 C3 1_555 1_555
C2 N1 1_555 1_555
C3 H2 1_555 1_555
O1 C2 1_555 1_555
H1 C1 1_555 1_555
N1KA C2 1_555 1_555
C1KA C3 1_555 1_555
H1KA C1KA 1_555 1_555
N1C Pd1 1_555 1_555
C1C N1C 1_555 1_555
C2C N1C 1_555 1_555
C3C C1C 1_555 1_555
O1C C2C 1_555 1_555
H1C C1C 1_555 1_555
H2C C3C 1_555 1_555
N1MA C2C 1_555 1_555
C1MA C3C 1_555 1_555
H1MA C1MA 1_555 1_555
Pd1BA N1KA 1_555 1_555
Pd1CA N1MA 1_555 1_555
N1Q Pd1 1_555 1_555
N1R Pd1 1_555 1_555
N1KA C1KA 1_555 1_555
N1MA C1MA 1_555 1_555

#END
