
#######################################################################
#
#                 Cambridge Crystallographic Data Centre
#                                CCDC 
#
#######################################################################
#
# If this CIF has been generated from an entry in the Cambridge 
# Structural Database, then it will include bibliographic, chemical, 
# crystal, experimental, refinement or atomic coordinate data resulting 
# from the CCDC's data processing and validation procedures.
#
#######################################################################

data_NERVIP
_symmetry_cell_setting           triclinic
_symmetry_space_group_name_H-M   'P -1'
_symmetry_Int_Tables_number      2
_space_group_name_Hall           '-P 1'
loop_
_symmetry_equiv_pos_site_id
_symmetry_equiv_pos_as_xyz
1 x,y,z
2 -x,-y,-z
_cell_length_a                   10.507(3)
_cell_length_b                   11.824(2)
_cell_length_c                   14.113(3)
_cell_angle_alpha                107.06(2)
_cell_angle_beta                 102.39(2)
_cell_angle_gamma                111.105(16)
_cell_volume                     1459.48
loop_
_atom_site_label
_atom_site_type_symbol
_atom_site_fract_x
_atom_site_fract_y
_atom_site_fract_z
Co1 Co 0.19323(6) 0.49038(5) 0.21212(4)
Co2 Co 0.44993(6) 0.23073(5) -0.31098(4)
N1 N 0.2807(4) 0.2535(3) -0.2506(3)
N2 N 0.3333(4) 1.0184(3) 0.6320(3)
N3 N 0.1673(4) 0.3359(3) 0.2669(3)
N4 N -0.0372(4) 0.4276(3) 0.1566(3)
O1 O 0.1630(3) 0.3643(3) 0.0596(2)
O2 O 0.3904(4) 0.4128(4) 0.0696(3)
O3 O 0.2167(3) 0.6109(3) 0.3589(2)
O4 O 0.4009(3) 0.7992(3) 0.3810(2)
O5 O 0.3325(4) 0.2157(3) 0.5438(2)
O6 O 0.4039(4) 0.4302(3) 0.5760(3)
O7 O -0.2150(3) 0.3655(3) -0.1501(2)
O8 O -0.4429(3) 0.2477(3) -0.1619(2)
C1 C 0.1438(5) 0.2133(5) -0.3132(3)
H1 H 0.1198 0.178 -0.3864
C2 C 0.0372(5) 0.2220(5) -0.2740(4)
H2 H -0.0554 0.1971 -0.32
C3 C 0.0689(5) 0.2679(5) -0.1658(4)
H3 H -0.0031 0.2704 -0.1379
C4 C 0.2091(4) 0.3099(4) -0.1001(3)
C5 C 0.3109(4) 0.3017(4) -0.1464(3)
H4 H 0.4061 0.3316 -0.1019
C6 C 0.2573(4) 0.3663(4) 0.0195(3)
C7 C 0.2655(7) 0.9556(5) 0.6842(4)
H5 H 0.2637 1.0058 0.748
C8 C 0.1984(10) 0.8211(6) 0.6482(6)
H6 H 0.1485 0.7809 0.6856
C9 C 0.2045(8) 0.7440(5) 0.5555(5)
H7 H 0.1592 0.6519 0.53
C10 C 0.2793(5) 0.8070(4) 0.5023(3)
C11 C 0.3382(4) 0.9442(4) 0.5423(3)
H8 H 0.3837 0.987 0.5045
C12 C 0.3006(4) 0.7330(4) 0.4057(3)
C13 C 0.0801(6) 0.2089(5) 0.2026(4)
H9 H 0.025 0.188 0.1333
C14 C 0.0678(7) 0.1071(5) 0.2343(4)
H10 H 0.0058 0.0194 0.1873
C15 C 0.1494(6) 0.1375(5) 0.3371(4)
H11 H 0.1437 0.0705 0.3603
C16 C 0.2389(5) 0.2683(4) 0.4047(3)
C17 C 0.2442(4) 0.3642(4) 0.3668(3)
H12 H 0.304 0.4528 0.4128
C18 C 0.3333(5) 0.3088(4) 0.5176(3)
C19 C -0.1204(5) 0.4269(5) 0.2167(4)
H13 H -0.0766 0.4538 0.2894
C20 C -0.2666(5) 0.3885(6) 0.1757(4)
H14 H -0.3203 0.3908 0.2201
C21 C -0.3344(5) 0.3458(5) 0.0671(4)
H15 H -0.4346 0.3161 0.0374
C22 C -0.2506(4) 0.3484(4) 0.0043(3)
C23 C -0.1029(4) 0.3913(4) 0.0532(3)
H16 H -0.0456 0.3951 0.0112
C24 C -0.3073(4) 0.3178(4) -0.1120(3)
O9 O 0.4263(3) 0.5580(3) 0.2576(2)
H17 H 0.4189 0.518 0.2117
H18 H 0.4739 0.5511 0.3101
Co1A Co -0.19323(6) 0.50962(5) -0.21212(4)
Co2_2 Co 0.44993(6) 1.23073(5) 0.68902(4)
Co2A Co 0.55007(6) 0.76927(5) 0.31098(4)
Co2_3 Co 0.44993(6) 0.23073(5) 0.68902(4)
Co2_4 Co -0.55007(6) 0.23073(5) -0.31098(4)
N2_2 N 0.3333(4) 0.0184(3) -0.3680(3)
O4A O 0.5991(3) 0.2008(3) -0.3810(2)
O5_2 O 0.3325(4) 0.2157(3) -0.4562(2)
O7A O 0.2150(3) 0.6345(3) 0.1501(2)
O8_2 O 0.5571(3) 0.2477(3) -0.1619(2)
O9A O 0.5737(3) 0.4420(3) -0.2576(2)
H17A H 0.5811 0.482 -0.2117
H18A H 0.5261 0.4489 -0.3101
loop_
_geom_bond_atom_site_label_1
_geom_bond_atom_site_label_2
_geom_bond_site_symmetry_1
_geom_bond_site_symmetry_2
Co1 N3 1_555 1_555
Co2 N1 1_555 1_555
N1 C1 1_555 1_555
N2 C7 1_555 1_555
N3 C13 1_555 1_555
N4 Co1 1_555 1_555
O1 Co1 1_555 1_555
O2 C6 1_555 1_555
O3 Co1 1_555 1_555
O4 C12 1_555 1_555
O5 C18 1_555 1_555
O6 C18 1_555 1_555
O7 C24 1_555 1_555
O8 C24 1_555 1_555
C1 H1 1_555 1_555
C2 C1 1_555 1_555
H2 C2 1_555 1_555
C3 C2 1_555 1_555
H3 C3 1_555 1_555
C4 C3 1_555 1_555
C5 N1 1_555 1_555
H4 C5 1_555 1_555
C6 O1 1_555 1_555
C7 H5 1_555 1_555
C8 C7 1_555 1_555
H6 C8 1_555 1_555
C9 C8 1_555 1_555
H7 C9 1_555 1_555
C10 C9 1_555 1_555
C11 N2 1_555 1_555
H8 C11 1_555 1_555
C12 O3 1_555 1_555
C13 H9 1_555 1_555
C14 C13 1_555 1_555
H10 C14 1_555 1_555
C15 C14 1_555 1_555
H11 C15 1_555 1_555
C16 C15 1_555 1_555
C17 N3 1_555 1_555
H12 C17 1_555 1_555
C18 C16 1_555 1_555
C19 N4 1_555 1_555
H13 C19 1_555 1_555
C20 C19 1_555 1_555
H14 C20 1_555 1_555
C21 C20 1_555 1_555
H15 C21 1_555 1_555
C22 C21 1_555 1_555
C23 N4 1_555 1_555
H16 C23 1_555 1_555
C24 C22 1_555 1_555
O9 Co1 1_555 1_555
H17 O9 1_555 1_555
H18 O9 1_555 1_555
Co1A O7 1_555 1_555
Co2_2 N2 1_555 1_555
Co2A O4 1_555 1_555
Co2_3 O5 1_555 1_555
Co2_4 O8 1_555 1_555
N2_2 Co2 1_555 1_555
O4A Co2 1_555 1_555
O5_2 Co2 1_555 1_555
O7A Co1 1_555 1_555
O8_2 Co2 1_555 1_555
O9A Co2 1_555 1_555
H17A O9A 1_555 1_555
H18A O9A 1_555 1_555
C4 C5 1_555 1_555
C4 C6 1_555 1_555
C10 C11 1_555 1_555
C10 C12 1_555 1_555
C16 C17 1_555 1_555
C22 C23 1_555 1_555
O9 Co2A 1_555 1_555

#END
