
#######################################################################
#
#                 Cambridge Crystallographic Data Centre
#                                CCDC 
#
#######################################################################
#
# If this CIF has been generated from an entry in the Cambridge 
# Structural Database, then it will include bibliographic, chemical, 
# crystal, experimental, refinement or atomic coordinate data resulting 
# from the CCDC's data processing and validation procedures.
#
#######################################################################

data_NESTAI
_symmetry_cell_setting           monoclinic
_symmetry_space_group_name_H-M   'C 2/c'
_symmetry_Int_Tables_number      15
_space_group_name_Hall           '-C 2yn'
loop_
_symmetry_equiv_pos_site_id
_symmetry_equiv_pos_as_xyz
1 x,y,z
2 -x,y,1/2-z
3 1/2+x,1/2+y,z
4 1/2-x,1/2+y,1/2-z
5 -x,-y,-z
6 x,-y,1/2+z
7 1/2-x,1/2-y,-z
8 1/2+x,1/2-y,1/2+z
_cell_length_a                   14.786(5)
_cell_length_b                   26.371(5)
_cell_length_c                   17.835(5)
_cell_angle_alpha                90
_cell_angle_beta                 97.791(5)
_cell_angle_gamma                90
_cell_volume                     6890.06
loop_
_atom_site_label
_atom_site_type_symbol
_atom_site_fract_x
_atom_site_fract_y
_atom_site_fract_z
Ni1 Ni 0.378423(15) 0.112280(9) 0.736453(13)
O1 O 0.32106(10) 0.15980(6) 0.65187(9)
O2 O 0.44307(12) 0.20386(8) 0.63045(12)
O3 O 0.42191(10) 0.06685(6) 0.82473(9)
O4 O 0.57448(10) 0.06890(6) 0.84336(8)
O5 O 0.5000 0.15405(7) 0.7500
H1 H 0.5170 0.1761 0.7871
N1 N 0.25868(11) 0.06728(7) 0.71575(10)
N2 N 0.31784(13) 0.15751(9) 0.81409(12)
N3 N 0.02041(16) 0.00216(11) 0.53794(12)
N4 N 0.04827(19) 0.18562(16) 0.7603(3)
C1 C 0.36041(15) 0.19266(9) 0.61728(14)
C2 C 0.30273(15) 0.22219(9) 0.55599(13)
C3 C 0.21005(17) 0.21521(11) 0.54234(16)
H2 H 0.1824 0.1919 0.5710
C4 C 0.34254(17) 0.25751(11) 0.51354(16)
H3 H 0.4052 0.2629 0.5227
C5 C 0.49890(14) 0.05684(8) 0.86056(11)
C6 C 0.49900(14) 0.02678(8) 0.93231(11)
C7 C 0.57887(16) 0.00687(12) 0.96918(14)
H4 H 0.6331 0.0113 0.9489
C8 C 0.42077(16) 0.01964(12) 0.96388(15)
H5 H 0.3661 0.0329 0.9398
C9 C 0.21585(15) 0.06171(9) 0.64504(13)
H6 H 0.2389 0.0789 0.6063
C10 C 0.13904(17) 0.03167(11) 0.62650(14)
C11 C 0.1069(2) 0.00621(14) 0.68469(17)
H7 H 0.0563 -0.0149 0.6749
C12 C 0.1497(2) 0.01208(16) 0.75717(16)
H8 H 0.1283 -0.0048 0.7970
C13 C 0.22470(18) 0.04319(12) 0.77032(15)
H9 H 0.2527 0.0474 0.8199
C14 C 0.09453(19) 0.02631(13) 0.54711(16)
C15 C 0.1371(3) 0.0496(2) 0.48559(19)
H10 H 0.1888 0.0297 0.4763
H11 H 0.1566 0.0834 0.4999
H12 H 0.0935 0.0509 0.4405
C16 C 0.2306(2) 0.17056(14) 0.7960(2)
H13 H 0.2029 0.1645 0.7468
C17 C 0.1788(3) 0.1926(3) 0.8462(3)
C18 C 0.2220(3) 0.2029(4) 0.9172(4)
H14 H 0.1901 0.2187 0.9522
C19 C 0.3137(3) 0.1902(3) 0.9376(3)
H15 H 0.3438 0.1974 0.9856
C20 C 0.3578(2) 0.16661(16) 0.8846(2)
H16 H 0.4180 0.1565 0.8982
C21 C 0.0791(3) 0.1971(3) 0.8273(4)
C22 C 0.0215(4) 0.2138(7) 0.8843(6)
H17 H -0.0414 0.2163 0.8713
H18 H 0.0482 0.2217 0.9331
Ni1F Ni 0.121577(15) 0.387720(9) 0.263547(13)
Ni1A Ni 0.621577(15) 0.112280(9) 0.763547(13)
Ni1D Ni 0.621577(15) -0.112280(9) 1.263547(13)
Ni1E Ni 0.378423(15) -0.112280(9) 1.236453(13)
Ni1D_2 Ni -0.378423(15) -0.112280(9) 0.263547(13)
Ni1A_2 Ni -0.378423(15) 0.112280(9) 0.763547(13)
O1F O 0.17894(10) 0.34020(6) 0.34813(9)
O2F O 0.05693(12) 0.29614(8) 0.36955(12)
O3D O 0.57809(10) -0.06685(6) 1.17527(9)
O3F O 0.07809(10) 0.43315(6) 0.17527(9)
O4D O 0.42552(10) -0.06890(6) 1.15664(8)
O4A O 0.42552(10) 0.06890(6) 0.65664(8)
O4G O 0.07448(10) 0.43110(6) 0.34336(8)
O5F O 0.0000 0.34595(7) 0.2500
H1A H 0.4830 0.1761 0.7129
H1F H -0.0170 0.3239 0.2129
H1G H 0.0170 0.3239 0.2871
N1D N -0.25868(11) -0.06728(7) 0.28425(10)
N1F N 0.24132(11) 0.43272(7) 0.28425(10)
N2A N -0.31784(13) 0.15751(9) 0.68591(12)
N2F N 0.18216(13) 0.34249(9) 0.18591(12)
N3D N -0.02041(16) -0.00216(11) 0.46206(12)
N4A N -0.04827(19) 0.18562(16) 0.7397(3)
C1F C 0.13959(15) 0.30734(9) 0.38272(14)
C2F C 0.19727(15) 0.27781(9) 0.44401(13)
C3F C 0.28995(17) 0.28479(11) 0.45766(16)
H2F H 0.3176 0.3081 0.4290
C4F C 0.15746(17) 0.24249(11) 0.48646(16)
H3F H 0.0948 0.2371 0.4773
C5D C 0.50110(14) -0.05684(8) 1.13944(11)
C6D C 0.50100(14) -0.02678(8) 1.06769(11)
C7D C 0.42113(16) -0.00687(12) 1.03082(14)
H4D H 0.3669 -0.0113 1.0511
C8D C 0.57923(16) -0.01964(12) 1.03612(15)
H5D H 0.6339 -0.0329 1.0602
C9D C -0.21585(15) -0.06171(9) 0.35496(13)
H6D H -0.2389 -0.0789 0.3937
C10D C -0.13904(17) -0.03167(11) 0.37350(14)
C11D C -0.1069(2) -0.00621(14) 0.31531(17)
H7D H -0.0563 0.0149 0.3251
C12D C -0.1497(2) -0.01208(16) 0.24283(16)
H8D H -0.1283 0.0048 0.2030
C13D C -0.22470(18) -0.04319(12) 0.22968(15)
H9D H -0.2527 -0.0474 0.1801
C14D C -0.09453(19) -0.02631(13) 0.45289(16)
C15D C -0.1371(3) -0.0496(2) 0.51441(19)
H10D H -0.1888 -0.0297 0.5237
H11D H -0.1566 -0.0834 0.5001
H12D H -0.0935 -0.0509 0.5595
C16A C -0.2306(2) 0.17056(14) 0.7040(2)
H13A H -0.2029 0.1645 0.7532
C17A C -0.1788(3) 0.1926(3) 0.6538(3)
C18A C -0.2220(3) 0.2029(4) 0.5828(4)
H14A H -0.1901 0.2187 0.5478
C19A C -0.3137(3) 0.1902(3) 0.5624(3)
H15A H -0.3438 0.1974 0.5144
C20A C -0.3578(2) 0.16661(16) 0.6154(2)
H16A H -0.4180 0.1565 0.6018
C21A C -0.0791(3) 0.1971(3) 0.6727(4)
C22A C -0.0215(4) 0.2138(7) 0.6157(6)
H17A H 0.0414 0.2163 0.6287
H18A H -0.0482 0.2217 0.5669
loop_
_geom_bond_atom_site_label_1
_geom_bond_atom_site_label_2
_geom_bond_site_symmetry_1
_geom_bond_site_symmetry_2
Ni1 O1 1_555 1_555
O1 C1 1_555 1_555
O2 C1 1_555 1_555
O3 Ni1 1_555 1_555
O4 C5 1_555 1_555
O5 Ni1 1_555 1_555
H1 O5 1_555 1_555
N1 Ni1 1_555 1_555
N2 Ni1 1_555 1_555
N3 C14 1_555 1_555
N4 C21 1_555 1_555
C1 C2 1_555 1_555
C2 C3 1_555 1_555
C3 H2 1_555 1_555
C4 C2 1_555 1_555
H3 C4 1_555 1_555
C5 O3 1_555 1_555
C6 C5 1_555 1_555
C7 C6 1_555 1_555
H4 C7 1_555 1_555
C8 C6 1_555 1_555
H5 C8 1_555 1_555
C9 N1 1_555 1_555
H6 C9 1_555 1_555
C10 C9 1_555 1_555
C11 C10 1_555 1_555
H7 C11 1_555 1_555
C12 C11 1_555 1_555
H8 C12 1_555 1_555
C13 N1 1_555 1_555
H9 C13 1_555 1_555
C14 C10 1_555 1_555
C15 C14 1_555 1_555
H10 C15 1_555 1_555
H11 C15 1_555 1_555
H12 C15 1_555 1_555
C16 N2 1_555 1_555
H13 C16 1_555 1_555
C17 C16 1_555 1_555
C18 C17 1_555 1_555
H14 C18 1_555 1_555
C19 C18 1_555 1_555
H15 C19 1_555 1_555
C20 N2 1_555 1_555
H16 C20 1_555 1_555
C21 C17 1_555 1_555
C22 C21 1_555 1_555
H17 C22 1_555 1_555
H18 C22 1_555 1_555
Ni1F O1F 1_555 1_555
Ni1A O4 1_555 1_555
Ni1D O3D 1_555 1_555
Ni1E O4D 1_555 1_555
Ni1D_2 N1D 1_555 1_555
Ni1A_2 N2A 1_555 1_555
O1F C1F 1_555 1_555
O2F C1F 1_555 1_555
O3D C5D 1_555 1_555
O3F Ni1F 1_555 1_555
O4D C5D 1_555 1_555
O4A Ni1 1_555 1_555
O4G Ni1F 1_555 1_555
O5F Ni1F 1_555 1_555
H1A O5 1_555 1_555
H1F O5F 1_555 1_555
H1G O5F 1_555 1_555
N1D C9D 1_555 1_555
N1F Ni1F 1_555 1_555
N2A C16A 1_555 1_555
N2F Ni1F 1_555 1_555
N3D N3 1_555 1_555
N4A N4 1_555 1_555
C1F C2F 1_555 1_555
C2F C3F 1_555 1_555
C3F C4 1_555 1_555
H2F C3F 1_555 1_555
C4F C3 1_555 1_555
H3F C4F 1_555 1_555
C5D C6D 1_555 1_555
C6D C7D 1_555 1_555
C7D C8 1_555 1_555
H4D C7D 1_555 1_555
C8D C7 1_555 1_555
H5D C8D 1_555 1_555
C9D H6D 1_555 1_555
C10D C9D 1_555 1_555
C11D C10D 1_555 1_555
H7D C11D 1_555 1_555
C12D C11D 1_555 1_555
H8D C12D 1_555 1_555
C13D N1D 1_555 1_555
H9D C13D 1_555 1_555
C14D N3D 1_555 1_555
C15D C14D 1_555 1_555
H10D C15D 1_555 1_555
H11D C15D 1_555 1_555
H12D C15D 1_555 1_555
C16A H13A 1_555 1_555
C17A C16A 1_555 1_555
C18A C17A 1_555 1_555
H14A C18A 1_555 1_555
C19A C18A 1_555 1_555
H15A C19A 1_555 1_555
C20A N2A 1_555 1_555
H16A C20A 1_555 1_555
C21A N4A 1_555 1_555
C22A C21A 1_555 1_555
H17A C22A 1_555 1_555
H18A C22A 1_555 1_555
O5 Ni1A 1_555 1_555
C12 C13 1_555 1_555
C19 C20 1_555 1_555
C2F C4F 1_555 1_555
C6D C8D 1_555 1_555
C10D C14D 1_555 1_555
C12D C13D 1_555 1_555
C17A C21A 1_555 1_555
C19A C20A 1_555 1_555

#END
