
#######################################################################
#
#                 Cambridge Crystallographic Data Centre
#                                CCDC 
#
#######################################################################
#
# If this CIF has been generated from an entry in the Cambridge 
# Structural Database, then it will include bibliographic, chemical, 
# crystal, experimental, refinement or atomic coordinate data resulting 
# from the CCDC's data processing and validation procedures.
#
#######################################################################

data_NEVVAM02
_symmetry_cell_setting           monoclinic
_symmetry_space_group_name_H-M   'C 2/c'
_symmetry_Int_Tables_number      15
_space_group_name_Hall           '-C 2yn'
loop_
_symmetry_equiv_pos_site_id
_symmetry_equiv_pos_as_xyz
1 x,y,z
2 -x,y,1/2-z
3 1/2+x,1/2+y,z
4 1/2-x,1/2+y,1/2-z
5 -x,-y,-z
6 x,-y,1/2+z
7 1/2-x,1/2-y,-z
8 1/2+x,1/2-y,1/2+z
_cell_length_a                   17.452(4)
_cell_length_b                   13.881(3)
_cell_length_c                   10.825(2)
_cell_angle_alpha                90
_cell_angle_beta                 105.777(3)
_cell_angle_gamma                90
_cell_volume                     2523.58
loop_
_atom_site_label
_atom_site_type_symbol
_atom_site_fract_x
_atom_site_fract_y
_atom_site_fract_z
Co1 Co 0.090985(16) 0.03011(2) 0.05012(3)
Co2 Co 0.0000 0.09516(3) 0.2500
O1 O 0.41824(10) 0.48799(13) 0.26758(16)
O2 O 0.36053(12) 0.40866(13) 0.08789(17)
O3 O 0.15890(11) 0.15095(14) 0.15064(18)
O4 O 0.08332(11) 0.20463(13) 0.27303(19)
O5 O -0.02083(9) 0.08266(11) 0.05185(15)
N1 N 0.31137(11) 0.43217(15) 0.38129(18)
C1 C 0.30744(13) 0.39262(16) 0.2662(3)
C2 C 0.25347(14) 0.32099(17) 0.2124(3)
C3 C 0.20063(13) 0.28900(17) 0.2795(3)
C4 C 0.20247(16) 0.3325(2) 0.3956(3)
C5 C 0.25921(16) 0.40282(19) 0.4437(3)
C6 C 0.36668(13) 0.43188(16) 0.2006(2)
C7 C 0.14211(14) 0.20815(16) 0.2293(3)
H1 H 0.2546 0.2952 0.1343
H2 H 0.1696 0.3147 0.4542
H3 H 0.2611 0.4242 0.5220
H4 H -0.0348 0.1330 0.0202
Co1A Co -0.090985(16) 0.03011(2) 0.44988(3)
O1A O -0.41824(10) 0.48799(13) 0.23242(16)
O2A O -0.36053(12) 0.40866(13) 0.41211(17)
O3A O -0.15890(11) 0.15095(14) 0.34936(18)
O4A O -0.08332(11) 0.20463(13) 0.22697(19)
O5A O 0.02083(9) 0.08266(11) 0.44815(15)
N1A N -0.31137(11) 0.43217(15) 0.11871(18)
C1A C -0.30744(13) 0.39262(16) 0.2338(3)
C2A C -0.25347(14) 0.32099(17) 0.2876(3)
C3A C -0.20063(13) 0.28900(17) 0.2205(3)
C4A C -0.20247(16) 0.3325(2) 0.1044(3)
C5A C -0.25921(16) 0.40282(19) 0.0563(3)
C6A C -0.36668(13) 0.43188(16) 0.2994(2)
C7A C -0.14211(14) 0.20815(16) 0.2707(3)
H1A H -0.2546 0.2952 0.3657
H2A H -0.1696 0.3147 0.0458
H3A H -0.2611 0.4242 -0.0220
H4A H 0.0348 0.1330 0.4798
Co1D Co -0.090985(16) -0.03011(2) -0.05012(3)
Co1E Co 0.090985(16) -0.03011(2) 0.55012(3)
Co1B Co -0.409015(16) 0.53011(2) 0.05012(3)
Co1C Co 0.409015(16) 0.53011(2) 0.44988(3)
Co1F Co 0.409015(16) 0.46989(2) -0.05012(3)
Co1G Co -0.409015(16) 0.46989(2) 0.55012(3)
Co2B Co -0.5000 0.59516(3) 0.2500
Co2B_2 Co 0.5000 0.59516(3) 0.2500
O1B O -0.08176(10) -0.01201(13) 0.26758(16)
O1C O 0.08176(10) -0.01201(13) 0.23242(16)
O2F O 0.13947(12) 0.09134(13) -0.08789(17)
O2G O -0.13947(12) 0.09134(13) 0.58789(17)
O5D O 0.02083(9) -0.08266(11) -0.05185(15)
O5E O -0.02083(9) -0.08266(11) 0.55185(15)
N1B N -0.18863(11) -0.06783(15) 0.38129(18)
N1C N 0.18863(11) -0.06783(15) 0.11871(18)
O6 O 0.4410(3) 0.2377(3) 0.4107(6)
O7 O 0.3997(4) 0.1969(5) 0.0702(8)
O8 O 0.3271(3) 0.1063(4) 0.2355(11)
O9 O 0.3968(7) 0.0190(7) 0.9360(12)
O10 O 0.4907(5) 0.1021(6) 0.6557(13)
loop_
_geom_bond_atom_site_label_1
_geom_bond_atom_site_label_2
_geom_bond_site_symmetry_1
_geom_bond_site_symmetry_2
Co1 O3 1_555 1_555
Co2 O4 1_555 1_555
O1 C6 1_555 1_555
O2 C6 1_555 1_555
O3 C7 1_555 1_555
O4 C7 1_555 1_555
O5 Co1 1_555 1_555
N1 C1 1_555 1_555
C1 C2 1_555 1_555
C2 C3 1_555 1_555
C3 C4 1_555 1_555
C4 C5 1_555 1_555
C5 N1 1_555 1_555
C6 C1 1_555 1_555
C7 C3 1_555 1_555
H1 C2 1_555 1_555
H2 C4 1_555 1_555
H3 C5 1_555 1_555
H4 O5 1_555 1_555
Co1A O3A 1_555 1_555
O1A C6A 1_555 1_555
O2A C6A 1_555 1_555
O3A C7A 1_555 1_555
O4A Co2 1_555 1_555
O5A Co2 1_555 1_555
N1A C1A 1_555 1_555
C1A C2A 1_555 1_555
C2A C3A 1_555 1_555
C3A C4A 1_555 1_555
C4A C5A 1_555 1_555
C5A N1A 1_555 1_555
C6A C1A 1_555 1_555
C7A O4A 1_555 1_555
H1A C2A 1_555 1_555
H2A C4A 1_555 1_555
H3A C5A 1_555 1_555
H4A O5A 1_555 1_555
Co1D O5 1_555 1_555
Co1E O5A 1_555 1_555
Co1B O1A 1_555 1_555
Co1C O1 1_555 1_555
Co1F O2 1_555 1_555
Co1G O2A 1_555 1_555
Co2B O1A 1_555 1_555
Co2B_2 O1 1_555 1_555
O1B Co2 1_555 1_555
O1C Co1 1_555 1_555
O2F Co1 1_555 1_555
O2G Co1A 1_555 1_555
O5D Co1 1_555 1_555
O5E Co1A 1_555 1_555
N1B Co1A 1_555 1_555
N1C Co1 1_555 1_555
Co2 O5 1_555 1_555
Co2 O1C 1_555 1_555
N1 Co1C 1_555 1_555
Co1A O5A 1_555 1_555
Co1A O1B 1_555 1_555
N1A Co1B 1_555 1_555
C3A C7A 1_555 1_555
Co1D O5D 1_555 1_555
Co1E O5E 1_555 1_555

#END
