
#######################################################################
#
#                 Cambridge Crystallographic Data Centre
#                                CCDC 
#
#######################################################################
#
# If this CIF has been generated from an entry in the Cambridge 
# Structural Database, then it will include bibliographic, chemical, 
# crystal, experimental, refinement or atomic coordinate data resulting 
# from the CCDC's data processing and validation procedures.
#
#######################################################################

data_NEVVAM01
_symmetry_cell_setting           monoclinic
_symmetry_space_group_name_H-M   'P 21/n'
_symmetry_Int_Tables_number      14
_space_group_name_Hall           '-P 2yn'
loop_
_symmetry_equiv_pos_site_id
_symmetry_equiv_pos_as_xyz
1 x,y,z
2 1/2-x,1/2+y,1/2-z
3 -x,-y,-z
4 1/2+x,1/2-y,1/2+z
_cell_length_a                   10.767(3)
_cell_length_b                   14.345(3)
_cell_length_c                   17.049(4)
_cell_angle_alpha                90
_cell_angle_beta                 106.518(6)
_cell_angle_gamma                90
_cell_volume                     2524.59
loop_
_atom_site_label
_atom_site_type_symbol
_atom_site_fract_x
_atom_site_fract_y
_atom_site_fract_z
Co1 Co 0.44691(3) 0.473481(19) 0.405502(16)
Co2 Co 0.25086(2) 0.40868(2) 0.500744(13)
Co3 Co 0.05183(3) 0.471584(19) 0.592992(16)
O1 O 0.23413(14) 0.01110(11) 0.08429(9)
O2 O 0.41524(15) 0.09059(11) 0.14037(10)
O3 O 0.34754(15) 0.35337(11) 0.33672(10)
O4 O 0.23413(15) 0.29946(10) 0.41941(9)
O5 O 0.26453(15) 0.01263(11) 0.91543(9)
O6 O 0.07877(14) 0.08160(11) 0.84986(10)
O7 O 0.15616(15) 0.35589(11) 0.66550(10)
O8 O 0.27904(15) 0.30556(10) 0.58678(9)
O9 O 0.45299(14) 0.41870(10) 0.52097(9)
O10 O 0.05211(14) 0.41967(10) 0.47915(9)
N1 N 0.12389(17) 0.06841(12) 0.19418(11)
N2 N 0.38146(17) 0.07012(12) 0.80843(11)
C1 C 0.2365(2) 0.10928(15) 0.19412(12)
C2 C 0.2894(2) 0.18318(15) 0.24565(13)
C3 C 0.2247(2) 0.21409(15) 0.30049(13)
C4 C 0.1120(2) 0.16915(16) 0.30383(13)
C5 C 0.0638(2) 0.09705(15) 0.24873(13)
C6 C 0.3020(2) 0.06847(14) 0.13481(13)
C7 C 0.2736(2) 0.29591(15) 0.35707(13)
C8 C 0.2636(2) 0.10619(15) 0.80329(12)
C9 C 0.2104(2) 0.18012(15) 0.75157(13)
C10 C 0.2820(2) 0.21760(15) 0.70294(13)
C11 C 0.4017(2) 0.17865(15) 0.70609(13)
C12 C 0.4480(2) 0.10537(15) 0.76022(13)
C13 C 0.1959(2) 0.06373(14) 0.86052(12)
C14 C 0.2339(2) 0.30052(15) 0.64701(13)
H1 H 0.3670 0.2105 0.2435
H2 H 0.0700 0.1871 0.3428
H3 H -0.0141 0.0681 0.2485
H4 H 0.1300 0.2048 0.7483
H5 H 0.4504 0.2014 0.6727
H6 H 0.5294 0.0802 0.7633
H7 H 0.4848 0.3668 0.5325
H8 H 0.0230 0.3679 0.4687
Co1A Co 0.05309(3) -0.026519(19) 0.094498(16)
Co1B Co 0.55309(3) 0.526519(19) 0.594498(16)
Co1C Co -0.05309(3) 0.026519(19) 0.905502(16)
Co2A Co 0.24914(2) -0.09132(2) -0.000744(13)
Co2A_2 Co 0.24914(2) -0.09132(2) 0.999256(13)
Co3A Co 0.44817(3) -0.028416(19) 0.907008(16)
Co3B Co -0.05183(3) 0.528416(19) 0.407008(16)
Co3C Co 0.55183(3) 0.028416(19) 0.092992(16)
O1A O 0.26587(14) 0.51110(11) 0.41571(9)
O2C O -0.08476(15) 0.40941(11) 0.64037(10)
O5A O 0.23547(15) 0.51263(11) 0.58457(9)
O6C O 0.57877(14) 0.41840(11) 0.34986(10)
O9B O 0.54701(14) 0.58130(10) 0.47903(9)
O10B O -0.05211(14) 0.58033(10) 0.52085(9)
N1A N 0.37611(17) 0.56841(12) 0.30582(11)
N2A N 0.11854(17) 0.57012(12) 0.69157(11)
O11 O -0.08029(18) 0.24564(13) 0.44305(12)
H9 H -0.1594 0.2487 0.4376
H10 H -0.0533 0.2097 0.4822
O12 O 0.04940(18) -0.09814(13) 0.43913(11)
H11 H -0.0218 -0.0716 0.4220
H12 H 0.0859 -0.1037 0.4025
O13 O 0.34470(17) 0.12700(11) 0.49975(11)
H13 H 0.3028 0.1759 0.4885
H14 H 0.2967 0.0939 0.5187
O14 O 0.19039(18) 0.01482(12) 0.57024(11)
H15 H 0.1549 -0.0197 0.5306
H16 H 0.2415 -0.0156 0.6038
O15 O 0.57888(18) 0.22149(14) 0.56484(11)
H17 H 0.5138 0.1896 0.5514
H18 H 0.6418 0.1941 0.5942
O16 O 0.5916(2) -0.01344(13) 0.61993(12)
H19 H 0.5310 -0.0296 0.6362
H20 H 0.5940 -0.0537 0.5854
O17 O 0.78911(19) 0.11166(13) 0.66515(10)
H21 H 0.7371 0.0697 0.6552
H22 H 0.8117 0.1207 0.7109
O18 O 0.63739(17) 0.24132(11) 0.42119(10)
H23 H 0.6203 0.2299 0.4645
H24 H 0.5940 0.2864 0.3989
O19 O 0.61752(18) 0.09088(12) 0.32217(10)
H25 H 0.6183 0.1112 0.2660
H26 H 0.6118 0.1387 0.3470
loop_
_geom_bond_atom_site_label_1
_geom_bond_atom_site_label_2
_geom_bond_site_symmetry_1
_geom_bond_site_symmetry_2
Co1 O3 1_555 1_555
Co2 O4 1_555 1_555
Co3 O7 1_555 1_555
O1 C6 1_555 1_555
O2 C6 1_555 1_555
O3 C7 1_555 1_555
O4 C7 1_555 1_555
O5 C13 1_555 1_555
O6 C13 1_555 1_555
O7 C14 1_555 1_555
O8 Co2 1_555 1_555
O9 Co1 1_555 1_555
O10 Co2 1_555 1_555
N1 C1 1_555 1_555
N2 C8 1_555 1_555
C1 C2 1_555 1_555
C2 C3 1_555 1_555
C3 C4 1_555 1_555
C4 C5 1_555 1_555
C5 N1 1_555 1_555
C6 C1 1_555 1_555
C7 C3 1_555 1_555
C8 C9 1_555 1_555
C9 C10 1_555 1_555
C10 C11 1_555 1_555
C11 C12 1_555 1_555
C12 N2 1_555 1_555
C13 C8 1_555 1_555
C14 O8 1_555 1_555
H1 C2 1_555 1_555
H2 C4 1_555 1_555
H3 C5 1_555 1_555
H4 C9 1_555 1_555
H5 C11 1_555 1_555
H6 C12 1_555 1_555
H7 O9 1_555 1_555
H8 O10 1_555 1_555
O11 H9 1_555 1_555
H10 O11 1_555 1_555
O12 H11 1_555 1_555
H12 O12 1_555 1_555
O13 H13 1_555 1_555
H14 O13 1_555 1_555
O14 H15 1_555 1_555
H16 O14 1_555 1_555
O15 H17 1_555 1_555
H18 O15 1_555 1_555
O16 H19 1_555 1_555
H20 O16 1_555 1_555
O17 H21 1_555 1_555
H22 O17 1_555 1_555
O18 H23 1_555 1_555
H24 O18 1_555 1_555
O19 H25 1_555 1_555
H26 O19 1_555 1_555
Co1A O1 1_555 1_555
Co1B O9 1_555 1_555
Co1C O6 1_555 1_555
Co2A O1 1_555 1_555
Co2A_2 O5 1_555 1_555
Co3A O5 1_555 1_555
Co3B O10 1_555 1_555
Co3C O2 1_555 1_555
O1A Co1 1_555 1_555
O2C Co3 1_555 1_555
O5A Co2 1_555 1_555
O6C Co1 1_555 1_555
O9B Co1 1_555 1_555
O10B Co3 1_555 1_555
N1A Co1 1_555 1_555
N2A Co3 1_555 1_555
Co2 O9 1_555 1_555
Co2 O1A 1_555 1_555
Co3 O10 1_555 1_555
Co3 O5A 1_555 1_555
N1 Co1A 1_555 1_555
N2 Co3A 1_555 1_555
C10 C14 1_555 1_555
Co1B O9B 1_555 1_555
Co3B O10B 1_555 1_555

#END
