
#######################################################################
#
#                 Cambridge Crystallographic Data Centre
#                                CCDC 
#
#######################################################################
#
# If this CIF has been generated from an entry in the Cambridge 
# Structural Database, then it will include bibliographic, chemical, 
# crystal, experimental, refinement or atomic coordinate data resulting 
# from the CCDC's data processing and validation procedures.
#
#######################################################################

data_NEXVET
_symmetry_cell_setting           cubic
_symmetry_space_group_name_H-M   'F m -3 m'
_symmetry_Int_Tables_number      225
_space_group_name_Hall           '-F 4 2 3'
loop_
_symmetry_equiv_pos_site_id
_symmetry_equiv_pos_as_xyz
1 x,y,z
2 -x,-y,z
3 -x,y,-z
4 x,-y,-z
5 z,x,y
6 z,-x,-y
7 -z,-x,y
8 -z,x,-y
9 y,z,x
10 -y,z,-x
11 y,-z,-x
12 -y,-z,x
13 y,x,-z
14 -y,-x,-z
15 y,-x,z
16 -y,x,z
17 x,z,-y
18 -x,z,y
19 -x,-z,-y
20 x,-z,y
21 z,y,-x
22 z,-y,x
23 -z,y,x
24 -z,-y,-x
25 x,1/2+y,1/2+z
26 -x,1/2-y,1/2+z
27 -x,1/2+y,1/2-z
28 x,1/2-y,1/2-z
29 z,1/2+x,1/2+y
30 z,1/2-x,1/2-y
31 -z,1/2-x,1/2+y
32 -z,1/2+x,1/2-y
33 y,1/2+z,1/2+x
34 -y,1/2+z,1/2-x
35 y,1/2-z,1/2-x
36 -y,1/2-z,1/2+x
37 y,1/2+x,1/2-z
38 -y,1/2-x,1/2-z
39 y,1/2-x,1/2+z
40 -y,1/2+x,1/2+z
41 x,1/2+z,1/2-y
42 -x,1/2+z,1/2+y
43 -x,1/2-z,1/2-y
44 x,1/2-z,1/2+y
45 z,1/2+y,1/2-x
46 z,1/2-y,1/2+x
47 -z,1/2+y,1/2+x
48 -z,1/2-y,1/2-x
49 1/2+x,y,1/2+z
50 1/2-x,-y,1/2+z
51 1/2-x,y,1/2-z
52 1/2+x,-y,1/2-z
53 1/2+z,x,1/2+y
54 1/2+z,-x,1/2-y
55 1/2-z,-x,1/2+y
56 1/2-z,x,1/2-y
57 1/2+y,z,1/2+x
58 1/2-y,z,1/2-x
59 1/2+y,-z,1/2-x
60 1/2-y,-z,1/2+x
61 1/2+y,x,1/2-z
62 1/2-y,-x,1/2-z
63 1/2+y,-x,1/2+z
64 1/2-y,x,1/2+z
65 1/2+x,z,1/2-y
66 1/2-x,z,1/2+y
67 1/2-x,-z,1/2-y
68 1/2+x,-z,1/2+y
69 1/2+z,y,1/2-x
70 1/2+z,-y,1/2+x
71 1/2-z,y,1/2+x
72 1/2-z,-y,1/2-x
73 1/2+x,1/2+y,z
74 1/2-x,1/2-y,z
75 1/2-x,1/2+y,-z
76 1/2+x,1/2-y,-z
77 1/2+z,1/2+x,y
78 1/2+z,1/2-x,-y
79 1/2-z,1/2-x,y
80 1/2-z,1/2+x,-y
81 1/2+y,1/2+z,x
82 1/2-y,1/2+z,-x
83 1/2+y,1/2-z,-x
84 1/2-y,1/2-z,x
85 1/2+y,1/2+x,-z
86 1/2-y,1/2-x,-z
87 1/2+y,1/2-x,z
88 1/2-y,1/2+x,z
89 1/2+x,1/2+z,-y
90 1/2-x,1/2+z,y
91 1/2-x,1/2-z,-y
92 1/2+x,1/2-z,y
93 1/2+z,1/2+y,-x
94 1/2+z,1/2-y,x
95 1/2-z,1/2+y,x
96 1/2-z,1/2-y,-x
97 -x,-y,-z
98 x,y,-z
99 x,-y,z
100 -x,y,z
101 -z,-x,-y
102 -z,x,y
103 z,x,-y
104 z,-x,y
105 -y,-z,-x
106 y,-z,x
107 -y,z,x
108 y,z,-x
109 -y,-x,z
110 y,x,z
111 -y,x,-z
112 y,-x,-z
113 -x,-z,y
114 x,-z,-y
115 x,z,y
116 -x,z,-y
117 -z,-y,x
118 -z,y,-x
119 z,-y,-x
120 z,y,x
121 -x,1/2-y,1/2-z
122 x,1/2+y,1/2-z
123 x,1/2-y,1/2+z
124 -x,1/2+y,1/2+z
125 -z,1/2-x,1/2-y
126 -z,1/2+x,1/2+y
127 z,1/2+x,1/2-y
128 z,1/2-x,1/2+y
129 -y,1/2-z,1/2-x
130 y,1/2-z,1/2+x
131 -y,1/2+z,1/2+x
132 y,1/2+z,1/2-x
133 -y,1/2-x,1/2+z
134 y,1/2+x,1/2+z
135 -y,1/2+x,1/2-z
136 y,1/2-x,1/2-z
137 -x,1/2-z,1/2+y
138 x,1/2-z,1/2-y
139 x,1/2+z,1/2+y
140 -x,1/2+z,1/2-y
141 -z,1/2-y,1/2+x
142 -z,1/2+y,1/2-x
143 z,1/2-y,1/2-x
144 z,1/2+y,1/2+x
145 1/2-x,-y,1/2-z
146 1/2+x,y,1/2-z
147 1/2+x,-y,1/2+z
148 1/2-x,y,1/2+z
149 1/2-z,-x,1/2-y
150 1/2-z,x,1/2+y
151 1/2+z,x,1/2-y
152 1/2+z,-x,1/2+y
153 1/2-y,-z,1/2-x
154 1/2+y,-z,1/2+x
155 1/2-y,z,1/2+x
156 1/2+y,z,1/2-x
157 1/2-y,-x,1/2+z
158 1/2+y,x,1/2+z
159 1/2-y,x,1/2-z
160 1/2+y,-x,1/2-z
161 1/2-x,-z,1/2+y
162 1/2+x,-z,1/2-y
163 1/2+x,z,1/2+y
164 1/2-x,z,1/2-y
165 1/2-z,-y,1/2+x
166 1/2-z,y,1/2-x
167 1/2+z,-y,1/2-x
168 1/2+z,y,1/2+x
169 1/2-x,1/2-y,-z
170 1/2+x,1/2+y,-z
171 1/2+x,1/2-y,z
172 1/2-x,1/2+y,z
173 1/2-z,1/2-x,-y
174 1/2-z,1/2+x,y
175 1/2+z,1/2+x,-y
176 1/2+z,1/2-x,y
177 1/2-y,1/2-z,-x
178 1/2+y,1/2-z,x
179 1/2-y,1/2+z,x
180 1/2+y,1/2+z,-x
181 1/2-y,1/2-x,z
182 1/2+y,1/2+x,z
183 1/2-y,1/2+x,-z
184 1/2+y,1/2-x,-z
185 1/2-x,1/2-z,y
186 1/2+x,1/2-z,-y
187 1/2+x,1/2+z,y
188 1/2-x,1/2+z,-y
189 1/2-z,1/2-y,x
190 1/2-z,1/2+y,-x
191 1/2+z,1/2-y,-x
192 1/2+z,1/2+y,x
_cell_length_a                   25.8380(16)
_cell_length_b                   25.8380(16)
_cell_length_c                   25.8380(16)
_cell_angle_alpha                90
_cell_angle_beta                 90
_cell_angle_gamma                90
_cell_volume                     17249.5
loop_
_atom_site_label
_atom_site_type_symbol
_atom_site_fract_x
_atom_site_fract_y
_atom_site_fract_z
Zn1 Zn 0.20654(2) 0.20654(2) 0.20654(2)
O1 O 0.2500 0.2500 0.2500
O2 O 0.21893(12) 0.21893(12) 0.13338(15)
C1 C 0.2500 0.2500 0.1108(2)
C2 C 0.2500 0.2500 0.0532(3)
C3 C 0.21749(17) 0.21749(17) 0.0271(3)
H1 H 0.1950 0.1950 0.0455
O2L O 0.21893(12) 0.21893(12) -0.13338(15)
C1L C 0.2500 0.2500 -0.1108(2)
C2L C 0.2500 0.2500 -0.0532(3)
C3L C 0.21749(17) 0.21749(17) -0.0271(3)
H1L H 0.1950 0.1950 -0.0455
O2UB O 0.28107(12) 0.28107(12) 0.13338(15)
C3UB C 0.28251(17) 0.28251(17) 0.0271(3)
H1UB H 0.3050 0.3050 0.0455
O2GC O 0.28107(12) 0.28107(12) -0.13338(15)
C3GC C 0.28251(17) 0.28251(17) -0.0271(3)
H1GC H 0.3050 0.3050 -0.0455
O2D O 0.13338(15) 0.21893(12) 0.21893(12)
C1D C 0.1108(2) 0.2500 0.2500
C2D C 0.0532(3) 0.2500 0.2500
C3D C 0.0271(3) 0.21749(17) 0.21749(17)
H1D H 0.0455 0.1950 0.1950
O2V O -0.13338(15) 0.21893(12) 0.21893(12)
C1V C -0.1108(2) 0.2500 0.2500
C2V C -0.0532(3) 0.2500 0.2500
C3V C -0.0271(3) 0.21749(17) 0.21749(17)
H1V H -0.0455 0.1950 0.1950
O2CA O 0.13338(15) 0.28107(12) 0.28107(12)
C3CA C 0.0271(3) 0.28251(17) 0.28251(17)
H1CA H 0.0455 0.3050 0.3050
O2UA O -0.13338(15) 0.28107(12) 0.28107(12)
C3UA C -0.0271(3) 0.28251(17) 0.28251(17)
H1UA H -0.0455 0.3050 0.3050
O2H O 0.21893(12) 0.13338(15) 0.21893(12)
C1H C 0.2500 0.1108(2) 0.2500
C2H C 0.2500 0.0532(3) 0.2500
C3H C 0.21749(17) 0.0271(3) 0.21749(17)
H1H H 0.1950 0.0455 0.1950
O2S O 0.21893(12) -0.13338(15) 0.21893(12)
C1S C 0.2500 -0.1108(2) 0.2500
C2S C 0.2500 -0.0532(3) 0.2500
C3S C 0.21749(17) -0.0271(3) 0.21749(17)
H1S H 0.1950 -0.0455 0.1950
O2EB O 0.28107(12) 0.13338(15) 0.28107(12)
C3EB C 0.28251(17) 0.0271(3) 0.28251(17)
H1EB H 0.3050 0.0455 0.3050
O2NB O 0.28107(12) -0.13338(15) 0.28107(12)
C3NB C 0.28251(17) -0.0271(3) 0.28251(17)
H1NB H 0.3050 -0.0455 0.3050
Zn1L Zn 0.20654(2) 0.20654(2) -0.20654(2)
Zn1N Zn 0.20654(2) -0.20654(2) 0.20654(2)
Zn1O Zn -0.20654(2) 0.20654(2) 0.20654(2)
Zn1AA Zn 0.20654(2) 0.29346(2) 0.29346(2)
Zn1KA Zn -0.20654(2) 0.29346(2) 0.29346(2)
Zn1XA Zn 0.29346(2) 0.20654(2) 0.29346(2)
Zn1IB Zn 0.29346(2) -0.20654(2) 0.29346(2)
Zn1UB Zn 0.29346(2) 0.29346(2) 0.20654(2)
Zn1GC Zn 0.29346(2) 0.29346(2) -0.20654(2)
O1L O 0.2500 0.2500 -0.2500
O1N O 0.2500 -0.2500 0.2500
O1O O -0.2500 0.2500 0.2500
O2N O 0.21893(12) -0.21893(12) 0.13338(15)
O2O O -0.21893(12) 0.21893(12) 0.13338(15)
O2P O 0.21893(12) 0.13338(15) -0.21893(12)
O2Q O -0.21893(12) 0.13338(15) 0.21893(12)
O2T O 0.13338(15) 0.21893(12) -0.21893(12)
O2U O 0.13338(15) -0.21893(12) 0.21893(12)
N1 N 0.0783(10) 0.2567(10) 0.0783(10)
N2 N 0.3446(13) 0.1554(13) 0.1554(13)
Ni1? Ni 0.20654(2) 0.20654(2) 0.20654(2)
loop_
_geom_bond_atom_site_label_1
_geom_bond_atom_site_label_2
_geom_bond_site_symmetry_1
_geom_bond_site_symmetry_2
Zn1 O1 1_555 1_555
O1 Zn1AA 1_555 1_555
O2 Zn1 1_555 1_555
C1 O2 1_555 1_555
C2 C1 1_555 1_555
C3 C2 1_555 1_555
H1 C3 1_555 1_555
O2L C1L 1_555 1_555
C1L C2L 1_555 1_555
C2L C3L 1_555 1_555
C3L C3 1_555 1_555
H1L C3L 1_555 1_555
O2UB C1 1_555 1_555
C3UB C2 1_555 1_555
H1UB C3UB 1_555 1_555
O2GC C1L 1_555 1_555
C3GC C2L 1_555 1_555
H1GC C3GC 1_555 1_555
O2D Zn1 1_555 1_555
C1D O2D 1_555 1_555
C2D C1D 1_555 1_555
C3D C2D 1_555 1_555
H1D C3D 1_555 1_555
O2V C1V 1_555 1_555
C1V C2V 1_555 1_555
C2V C3V 1_555 1_555
C3V C3D 1_555 1_555
H1V C3V 1_555 1_555
O2CA C1D 1_555 1_555
C3CA C2D 1_555 1_555
H1CA C3CA 1_555 1_555
O2UA C1V 1_555 1_555
C3UA C2V 1_555 1_555
H1UA C3UA 1_555 1_555
O2H Zn1 1_555 1_555
C1H O2H 1_555 1_555
C2H C1H 1_555 1_555
C3H C2H 1_555 1_555
H1H C3H 1_555 1_555
O2S C1S 1_555 1_555
C1S C2S 1_555 1_555
C2S C3S 1_555 1_555
C3S C3H 1_555 1_555
H1S C3S 1_555 1_555
O2EB C1H 1_555 1_555
C3EB C2H 1_555 1_555
H1EB C3EB 1_555 1_555
O2NB C1S 1_555 1_555
C3NB C2S 1_555 1_555
H1NB C3NB 1_555 1_555
Zn1L O2L 1_555 1_555
Zn1N O2S 1_555 1_555
Zn1O O2V 1_555 1_555
Zn1AA O2CA 1_555 1_555
Zn1KA O2UA 1_555 1_555
Zn1XA O1 1_555 1_555
Zn1IB O2NB 1_555 1_555
Zn1UB O1 1_555 1_555
Zn1GC O2GC 1_555 1_555
O1L Zn1L 1_555 1_555
O1N Zn1N 1_555 1_555
O1O Zn1O 1_555 1_555
O2N Zn1N 1_555 1_555
O2O Zn1O 1_555 1_555
O2P Zn1L 1_555 1_555
O2Q Zn1O 1_555 1_555
O2T Zn1L 1_555 1_555
O2U Zn1N 1_555 1_555
O2UB Zn1UB 1_555 1_555
C3UB C3GC 1_555 1_555
C3CA C3UA 1_555 1_555
O2EB Zn1XA 1_555 1_555
C3EB C3NB 1_555 1_555
Zn1KA O1O 1_555 1_555
Zn1IB O1N 1_555 1_555
Zn1GC O1L 1_555 1_555

#END
