
#######################################################################
#
#                 Cambridge Crystallographic Data Centre
#                                CCDC 
#
#######################################################################
#
# If this CIF has been generated from an entry in the Cambridge 
# Structural Database, then it will include bibliographic, chemical, 
# crystal, experimental, refinement or atomic coordinate data resulting 
# from the CCDC's data processing and validation procedures.
#
#######################################################################

data_NEYJIM
_symmetry_cell_setting           triclinic
_symmetry_space_group_name_H-M   'P -1'
_symmetry_Int_Tables_number      2
_space_group_name_Hall           '-P 1'
loop_
_symmetry_equiv_pos_site_id
_symmetry_equiv_pos_as_xyz
1 x,y,z
2 -x,-y,-z
_cell_length_a                   11.6554(8)
_cell_length_b                   13.4045(9)
_cell_length_c                   20.6797(13)
_cell_angle_alpha                89.1410(10)
_cell_angle_beta                 76.4390(10)
_cell_angle_gamma                67.3320(10)
_cell_volume                     2887.95
loop_
_atom_site_label
_atom_site_type_symbol
_atom_site_fract_x
_atom_site_fract_y
_atom_site_fract_z
Cu1 Cu -0.01278(11) 0.18932(9) -0.21901(5)
Cu2 Cu -0.20719(11) 0.35418(11) 0.10793(5)
Cu3 Cu 0.03400(12) -0.30832(11) -0.62742(6)
Cu4 Cu -0.37125(11) -0.02131(10) -0.34534(6)
Cu5 Cu 0.18503(12) 0.43489(11) 0.26498(7)
N1 N -0.1201(7) 0.3824(6) 0.1727(3)
N2 N -0.3822(7) 0.3573(6) 0.1492(4)
N3 N -0.2717(7) 0.0459(5) -0.3050(3)
N4 N 0.0405(7) 0.4159(6) 0.2434(3)
C1 C -0.2514(8) 0.1789(7) -0.2406(4)
H1 H -0.2921 0.2448 -0.2147
C2 C -0.0645(8) 0.2036(7) -0.0100(4)
H2 H -0.0464 0.1513 0.0204
N5 N -0.1250(7) 0.1253(5) -0.2496(3)
C3 C 0.0396(8) 0.3175(8) 0.2332(4)
H3 H 0.0950 0.2581 0.2496
C4 C -0.0410(8) 0.3026(7) 0.1991(4)
H4 H -0.0401 0.2334 0.1943
C5 C -0.0464(9) 0.4979(8) 0.2208(4)
H5 H -0.0531 0.5683 0.2288
C6 C -0.0749(8) 0.0298(7) -0.2854(4)
H6 H 0.0121 -0.0125 -0.2913
C7 C -0.4829(10) 0.4133(9) 0.1240(5)
H7 H -0.4687 0.4421 0.0832
C8 C -0.1023(11) 0.3456(8) -0.1012(5)
H8 H -0.1129 0.3974 -0.1322
C9 C -0.1247(9) 0.4819(7) 0.1867(4)
H9 H -0.1837 0.5417 0.1725
C10 C -0.3231(8) 0.1397(6) -0.2685(4)
H10 H -0.4107 0.1804 -0.2615
C11 C -0.1437(12) 0.3796(8) -0.0342(5)
H11 H -0.1842 0.4535 -0.0212
C12 C -0.1460(8) -0.0085(7) -0.3139(4)
H12 H -0.1056 -0.0742 -0.3401
C13 C -0.4085(8) 0.3138(6) 0.2055(4)
H13 H -0.3413 0.2721 0.2239
N6 N -0.1274(7) 0.3092(6) 0.0130(3)
C14 C -0.0265(8) 0.1714(7) -0.0771(4)
H14 H 0.0156 0.0977 -0.0906
N7 N -0.0476(7) 0.2409(6) -0.1232(3)
N8 N 0.1750(6) 0.1232(6) -0.2694(3)
N9 N -0.0757(7) -0.2293(6) -0.5441(4)
N10 N 0.4427(7) 0.0359(6) -0.3214(4)
N11 N -0.2474(7) -0.1152(6) -0.4258(4)
N12 N -0.6322(7) 0.3880(7) 0.2155(4)
C15 C -0.5323(8) 0.3281(7) 0.2382(4)
H15 H -0.5456 0.2945 0.2773
C16 C 0.3688(9) 0.1384(8) -0.3284(4)
H16 H 0.4074 0.1823 -0.3510
C17 C 0.2366(8) 0.1815(7) -0.3032(4)
H17 H 0.1894 0.2529 -0.3099
C18 C 0.2490(9) 0.0211(8) -0.2627(5)
H18 H 0.2106 -0.0224 -0.2393
C19 C -0.1686(10) -0.2183(8) -0.4285(5)
H19 H -0.1714 -0.2536 -0.3895
C20 C -0.0821(10) -0.2760(8) -0.4867(5)
H20 H -0.0281 -0.3480 -0.4857
C21 C -0.6037(10) 0.4287(10) 0.1564(5)
H21 H -0.6704 0.4690 0.1374
C22 C 0.3777(9) -0.0221(8) -0.2884(6)
H22 H 0.4235 -0.0946 -0.2832
C23 C -0.2372(11) -0.0686(9) -0.4832(5)
H23 H -0.2882 0.0044 -0.4836
C24 C -0.1535(12) -0.1251(9) -0.5417(5)
H24 H -0.1511 -0.0897 -0.5807
Cl1 Cl 0.1210(2) -0.36190(16) -0.73146(10)
Cu1A Cu 0.01278(11) -0.18932(9) -0.78099(5)
Cu4_2 Cu 0.62875(11) -0.02131(10) -0.34534(6)
Cu5_2 Cu -0.81497(12) 0.43489(11) 0.26498(7)
Cu5_3 Cu 0.18503(12) -0.56511(11) -0.73502(7)
N10_2 N -0.5573(7) 0.0359(6) -0.3214(4)
N12_2 N 0.3678(7) 0.3880(7) 0.2155(4)
Cl1_2 Cl 0.1210(2) 0.63810(16) 0.26854(10)
Cl1A Cl -0.1210(2) 0.36190(16) -0.26854(10)
O23 O -0.3102(14) 0.5478(12) 0.0936(7)
Mo7 Mo -0.56385(7) -0.23587(5) 0.04344(3)
Mo8 Mo -0.35959(7) -0.16485(6) 0.12072(4)
Mo9 Mo -0.25333(7) -0.26367(5) -0.05057(3)
Mo10 Mo -0.70224(7) -0.07144(6) -0.07731(4)
Mo11 Mo -0.39280(8) -0.09946(6) -0.17157(3)
Mo12 Mo -0.80921(7) 0.02750(6) 0.09357(3)
P2 P -0.5000 0.0000 0.0000
O24 O -0.3434(6) -0.1461(5) -0.2521(3)
O25 O -0.9534(6) 0.0419(5) 0.1392(3)
O26 O -0.4004(6) -0.2975(8) -0.0168(3)
O27 O -0.1399(7) -0.3862(6) -0.0749(4)
O28 O -0.8174(7) -0.0023(6) 0.0053(3)
O29 O -0.6344(7) -0.1947(7) -0.0315(3)
O30 O -0.5444(7) -0.1251(6) -0.1441(5)
O31 O -0.1597(10) -0.1739(7) -0.0724(4)
O32 O -0.2500(6) -0.2454(7) 0.0405(3)
O33 O -0.5940(9) -0.3453(6) 0.0640(4)
O34 O -0.4803(6) -0.2232(7) 0.1098(3)
O35 O -0.3116(10) -0.2248(8) -0.1293(4)
O36 O -0.7948(6) -0.1061(5) -0.1155(3)
O37 O -0.5023(8) -0.0464(6) 0.1762(5)
O38 O -0.2959(7) -0.2406(7) 0.1776(3)
O39 O -0.4479(10) -0.1136(8) 0.0187(5)
O40 O -0.2636(10) -0.0537(8) -0.1622(4)
O41 O -0.7146(8) -0.1218(7) 0.0948(3)
O42 O -0.2743(8) -0.0679(6) 0.1064(5)
O43 O -0.3790(11) -0.0709(9) -0.0539(5)
O44 O -0.4023(10) 0.0522(9) -0.0120(5)
O45 O -0.5461(10) 0.0025(8) -0.0671(5)
O39A O -0.5521(10) 0.1136(8) -0.0187(5)
O43A O -0.6210(11) 0.0709(9) 0.0539(5)
O44A O -0.5977(10) -0.0522(9) 0.0120(5)
O45A O -0.4539(10) -0.0025(8) 0.0671(5)
Mo7A Mo -0.43615(7) 0.23587(5) -0.04344(3)
Mo8A Mo -0.64041(7) 0.16485(6) -0.12072(4)
Mo9A Mo -0.74667(7) 0.26367(5) 0.05057(3)
Mo10A Mo -0.29776(7) 0.07144(6) 0.07731(4)
Mo11A Mo -0.60720(8) 0.09946(6) 0.17157(3)
Mo12A Mo -0.19079(7) -0.02750(6) -0.09357(3)
O24A O -0.6566(6) 0.1461(5) 0.2521(3)
O25A O -0.0466(6) -0.0419(5) -0.1392(3)
O26A O -0.5996(6) 0.2975(8) 0.0168(3)
O27A O -0.8601(7) 0.3862(6) 0.0749(4)
O28A O -0.1826(7) 0.0023(6) -0.0053(3)
O29A O -0.3656(7) 0.1947(7) 0.0315(3)
O30A O -0.4556(7) 0.1251(6) 0.1441(5)
O31A O -0.8403(10) 0.1739(7) 0.0724(4)
O32A O -0.7500(6) 0.2454(7) -0.0405(3)
O33A O -0.4060(9) 0.3453(6) -0.0640(4)
O34A O -0.5197(6) 0.2232(7) -0.1098(3)
O35A O -0.6884(10) 0.2248(8) 0.1293(4)
O36A O -0.2052(6) 0.1061(5) 0.1155(3)
O37A O -0.4977(8) 0.0464(6) -0.1762(5)
O38A O -0.7041(7) 0.2406(7) -0.1776(3)
O40A O -0.7364(10) 0.0537(8) 0.1622(4)
O41A O -0.2854(8) 0.1218(7) -0.0948(3)
O42A O -0.7257(8) 0.0679(6) -0.1064(5)
Mo1 Mo 0.54561(7) 0.54779(5) 0.32775(3)
Mo2 Mo 0.24697(6) 0.69742(5) 0.61991(3)
Mo3 Mo 0.27321(6) 0.73129(5) 0.44659(3)
Mo4 Mo 0.50094(7) 0.76416(5) 0.52492(3)
Mo5 Mo 0.29466(7) 0.46387(6) 0.40893(3)
Mo6 Mo 0.76982(6) 0.55529(6) 0.41578(3)
P1 P 0.5000 0.5000 0.5000
O1 O 0.4177(7) 0.4835(6) 0.3430(4)
O2 O 0.8917(6) 0.5874(5) 0.3770(3)
O3 O 0.3868(7) 0.7930(7) 0.4716(3)
O4 O 0.4989(7) 0.8860(5) 0.5400(3)
O5 O 0.1248(6) 0.7899(6) 0.6745(3)
O6 O 0.4112(7) 0.6780(6) 0.3673(4)
O7 O 0.3627(8) 0.7625(8) 0.5993(3)
O8 O 0.5979(9) 0.4818(8) 0.4328(5)
O9 O 0.1955(6) 0.4471(5) 0.3664(3)
O10 O 0.2000(9) 0.4701(7) 0.5000(3)
O11 O 0.6648(8) 0.3974(6) 0.3255(5)
O12 O 0.6042(8) 0.6780(8) 0.5850(3)
O13 O 0.6678(8) 0.5882(5) 0.3503(5)
O14 O 0.1724(8) 0.5900(6) 0.6099(5)
O15 O 0.2188(7) 0.6228(6) 0.4275(4)
O16 O 0.5636(8) 0.5670(5) 0.2469(3)
O17 O 0.1979(9) 0.7411(8) 0.5373(3)
O18 O 0.6458(9) 0.7022(8) 0.4561(5)
O19 O 0.1706(6) 0.8389(6) 0.4212(4)
O20 O 0.4336(9) 0.5457(8) 0.4449(5)
O21 O 0.4135(9) 0.4335(8) 0.4930(5)
O22 O 0.5879(9) 0.3810(8) 0.4840(5)
O8A O 0.4021(9) 0.5182(8) 0.5672(5)
O20A O 0.5664(9) 0.4543(8) 0.5551(5)
O21A O 0.5865(9) 0.5665(8) 0.5070(5)
O22A O 0.4121(9) 0.6190(8) 0.5160(5)
Mo1A Mo 0.45439(7) 0.45221(5) 0.67225(3)
Mo2A Mo 0.75303(6) 0.30258(5) 0.38009(3)
Mo3A Mo 0.72679(6) 0.26871(5) 0.55341(3)
Mo4A Mo 0.49906(7) 0.23584(5) 0.47508(3)
Mo5A Mo 0.70534(7) 0.53613(6) 0.59107(3)
Mo6A Mo 0.23018(6) 0.44471(6) 0.58422(3)
O1A O 0.5823(7) 0.5165(6) 0.6570(4)
O2A O 0.1083(6) 0.4126(5) 0.6230(3)
O3A O 0.6132(7) 0.2070(7) 0.5284(3)
O4A O 0.5011(7) 0.1140(5) 0.4600(3)
O5A O 0.8752(6) 0.2101(6) 0.3255(3)
O6A O 0.5888(7) 0.3220(6) 0.6327(4)
O7A O 0.6373(8) 0.2375(8) 0.4007(3)
O9A O 0.8045(6) 0.5529(5) 0.6336(3)
O10A O 0.8000(9) 0.5299(7) 0.5000(3)
O11A O 0.3352(8) 0.6026(6) 0.6745(5)
O12A O 0.3958(8) 0.3220(8) 0.4150(3)
O13A O 0.3322(8) 0.4118(5) 0.6497(5)
O14A O 0.8276(8) 0.4100(6) 0.3901(5)
O15A O 0.7812(7) 0.3772(6) 0.5725(4)
O16A O 0.4364(8) 0.4330(5) 0.7531(3)
O17A O 0.8021(9) 0.2589(8) 0.4627(3)
O18A O 0.3542(9) 0.2978(8) 0.5439(5)
O19A O 0.8294(6) 0.1611(6) 0.5788(4)
loop_
_geom_bond_atom_site_label_1
_geom_bond_atom_site_label_2
_geom_bond_site_symmetry_1
_geom_bond_site_symmetry_2
Mo1 O1 1_555 1_555
Mo2 O5 1_555 1_555
Mo3 O3 1_555 1_555
Mo4 O3 1_555 1_555
Mo5 O1 1_555 1_555
Mo6 O2 1_555 1_555
P1 O8 1_555 1_555
O4 Mo4 1_555 1_555
O6 Mo1 1_555 1_555
O7 Mo2 1_555 1_555
O8 Mo1 1_555 1_555
O9 Mo5 1_555 1_555
O10 Mo5 1_555 1_555
O11 Mo1 1_555 1_555
O12 Mo4 1_555 1_555
O13 Mo1 1_555 1_555
O14 Mo2 1_555 1_555
O15 Mo3 1_555 1_555
O16 Mo1 1_555 1_555
O17 Mo2 1_555 1_555
O18 Mo4 1_555 1_555
O19 Mo3 1_555 1_555
O20 Mo1 1_555 1_555
O21 Mo5 1_555 1_555
O22 P1 1_555 1_555
Cu1 N5 1_555 1_555
Cu2 N1 1_555 1_555
Cu3 N9 1_555 1_555
Cu4 N3 1_555 1_555
Cu5 N4 1_555 1_555
N1 C4 1_555 1_555
N2 Cu2 1_555 1_555
N3 C10 1_555 1_555
N4 C3 1_555 1_555
C1 H1 1_555 1_555
C2 H2 1_555 1_555
N5 C1 1_555 1_555
C3 H3 1_555 1_555
C4 C3 1_555 1_555
H4 C4 1_555 1_555
C5 N4 1_555 1_555
H5 C5 1_555 1_555
C6 N5 1_555 1_555
H6 C6 1_555 1_555
C7 N2 1_555 1_555
H7 C7 1_555 1_555
C8 H8 1_555 1_555
C9 N1 1_555 1_555
H9 C9 1_555 1_555
C10 C1 1_555 1_555
H10 C10 1_555 1_555
C11 C8 1_555 1_555
H11 C11 1_555 1_555
C12 N3 1_555 1_555
H12 C12 1_555 1_555
C13 N2 1_555 1_555
H13 C13 1_555 1_555
N6 Cu2 1_555 1_555
C14 C2 1_555 1_555
H14 C14 1_555 1_555
N7 Cu1 1_555 1_555
N8 Cu1 1_555 1_555
N9 C20 1_555 1_555
N10 C16 1_555 1_555
N11 Cu4 1_555 1_555
N12 C15 1_555 1_555
C15 C13 1_555 1_555
H15 C15 1_555 1_555
C16 H16 1_555 1_555
C17 N8 1_555 1_555
H17 C17 1_555 1_555
C18 N8 1_555 1_555
H18 C18 1_555 1_555
C19 N11 1_555 1_555
H19 C19 1_555 1_555
C20 C19 1_555 1_555
H20 C20 1_555 1_555
C21 C7 1_555 1_555
H21 C21 1_555 1_555
C22 N10 1_555 1_555
H22 C22 1_555 1_555
C23 N11 1_555 1_555
H23 C23 1_555 1_555
C24 N9 1_555 1_555
H24 C24 1_555 1_555
Cl1 Cu3 1_555 1_555
Mo7 O26 1_555 1_555
Mo8 O32 1_555 1_555
Mo9 O26 1_555 1_555
Mo10 O28 1_555 1_555
Mo11 O24 1_555 1_555
Mo12 O25 1_555 1_555
P2 O39 1_555 1_555
O27 Mo9 1_555 1_555
O28 Mo12 1_555 1_555
O29 Mo7 1_555 1_555
O30 Mo10 1_555 1_555
O31 Mo9 1_555 1_555
O32 Mo9 1_555 1_555
O33 Mo7 1_555 1_555
O34 Mo7 1_555 1_555
O35 Mo9 1_555 1_555
O36 Mo10 1_555 1_555
O37 Mo8 1_555 1_555
O38 Mo8 1_555 1_555
O39 Mo7 1_555 1_555
O40 Mo11 1_555 1_555
O41 Mo7 1_555 1_555
O42 Mo8 1_555 1_555
O43 Mo9 1_555 1_555
O44 P2 1_555 1_555
O45 Mo10 1_555 1_555
O8A Mo2 1_555 1_555
O20A P1 1_555 1_555
O21A Mo4 1_555 1_555
O22A Mo2 1_555 1_555
Mo1A O8A 1_555 1_555
Mo2A O8 1_555 1_555
Mo3A O22 1_555 1_555
Mo4A O21 1_555 1_555
Mo5A O12 1_555 1_555
Mo6A O10 1_555 1_555
O1A Mo1A 1_555 1_555
O2A Mo6A 1_555 1_555
O3A Mo3A 1_555 1_555
O4A Mo4A 1_555 1_555
O5A Mo2A 1_555 1_555
O6A Mo1A 1_555 1_555
O7A Mo2A 1_555 1_555
O9A Mo5A 1_555 1_555
O10A Mo6 1_555 1_555
O11A Mo2 1_555 1_555
O12A Mo5 1_555 1_555
O13A Mo1A 1_555 1_555
O14A Mo6 1_555 1_555
O15A Mo3A 1_555 1_555
O16A Mo1A 1_555 1_555
O17A Mo2A 1_555 1_555
O18A Mo4A 1_555 1_555
O19A Mo3A 1_555 1_555
Cu1A Cl1 1_555 1_555
Cu4_2 N10 1_555 1_555
Cu5_2 N12 1_555 1_555
Cu5_3 Cl1 1_555 1_555
N10_2 Cu4 1_555 1_555
N12_2 Cu5 1_555 1_555
Cl1_2 Cu5 1_555 1_555
Cl1A Cu1 1_555 1_555
O39A P2 1_555 1_555
O43A Mo12 1_555 1_555
O44A Mo7 1_555 1_555
O45A Mo8 1_555 1_555
Mo7A O44 1_555 1_555
Mo8A O45 1_555 1_555
Mo9A O39A 1_555 1_555
Mo10A O42 1_555 1_555
Mo11A O37 1_555 1_555
Mo12A O31 1_555 1_555
O24A Mo11A 1_555 1_555
O25A Mo12A 1_555 1_555
O26A Mo7A 1_555 1_555
O27A Mo9A 1_555 1_555
O28A Mo10A 1_555 1_555
O29A Mo7A 1_555 1_555
O30A Mo10A 1_555 1_555
O31A Mo12 1_555 1_555
O32A Mo8A 1_555 1_555
O33A Mo7A 1_555 1_555
O34A Mo7A 1_555 1_555
O35A Mo9A 1_555 1_555
O36A Mo10A 1_555 1_555
O37A Mo11 1_555 1_555
O38A Mo8A 1_555 1_555
O40A Mo12 1_555 1_555
O41A Mo7A 1_555 1_555
O42A Mo10 1_555 1_555
Mo3 O6 1_555 1_555
Mo3 O17 1_555 1_555
Mo3 O20 1_555 1_555
Mo3 O22A 1_555 1_555
Mo4 O7 1_555 1_555
Mo4 O22A 1_555 1_555
Mo5 O15 1_555 1_555
Mo5 O20 1_555 1_555
Mo6 O8 1_555 1_555
Mo6 O13 1_555 1_555
Mo6 O18 1_555 1_555
Mo6 O21A 1_555 1_555
P1 O20 1_555 1_555
P1 O21 1_555 1_555
P1 O8A 1_555 1_555
P1 O21A 1_555 1_555
P1 O22A 1_555 1_555
O8 O20 1_555 1_555
O8 O22 1_555 1_555
O11 Mo2A 1_555 1_555
O14 Mo6A 1_555 1_555
O20 O22A 1_555 1_555
O21 Mo6A 1_555 1_555
O22 O20A 1_555 1_555
O22 Mo2A 1_555 1_555
O22 Mo4A 1_555 1_555
C2 N6 1_555 1_555
C5 C9 1_555 1_555
C6 C12 1_555 1_555
C8 N7 1_555 1_555
C11 N6 1_555 1_555
C14 N7 1_555 1_555
N12 C21 1_555 1_555
C16 C17 1_555 1_555
C18 C22 1_555 1_555
C23 C24 1_555 1_555
Mo8 O34 1_555 1_555
Mo8 O39 1_555 1_555
Mo9 O39 1_555 1_555
Mo10 O29 1_555 1_555
Mo10 O44A 1_555 1_555
Mo11 O30 1_555 1_555
Mo11 O35 1_555 1_555
Mo11 O43 1_555 1_555
Mo11 O45 1_555 1_555
Mo12 O41 1_555 1_555
Mo12 O44A 1_555 1_555
P2 O43 1_555 1_555
P2 O45 1_555 1_555
P2 O43A 1_555 1_555
P2 O44A 1_555 1_555
P2 O45A 1_555 1_555
O39 O43 1_555 1_555
O39 O44A 1_555 1_555
O39 O45A 1_555 1_555
O40 Mo12A 1_555 1_555
O43 O44 1_555 1_555
O43 Mo12A 1_555 1_555
O44 O39A 1_555 1_555
O44 Mo10A 1_555 1_555
O44 Mo12A 1_555 1_555
O45 O39A 1_555 1_555
O8A O20A 1_555 1_555
O8A O22A 1_555 1_555
O8A Mo6A 1_555 1_555
O20A Mo1A 1_555 1_555
O20A Mo3A 1_555 1_555
O20A Mo5A 1_555 1_555
O21A Mo5A 1_555 1_555
Mo1A O11A 1_555 1_555
Mo2A O14A 1_555 1_555
Mo3A O6A 1_555 1_555
Mo3A O17A 1_555 1_555
Mo4A O3A 1_555 1_555
Mo4A O7A 1_555 1_555
Mo4A O12A 1_555 1_555
Mo5A O1A 1_555 1_555
Mo5A O10A 1_555 1_555
Mo5A O15A 1_555 1_555
Mo6A O13A 1_555 1_555
Mo6A O18A 1_555 1_555
O39A O43A 1_555 1_555
O39A Mo7A 1_555 1_555
O39A Mo8A 1_555 1_555
O43A O44A 1_555 1_555
O43A Mo9A 1_555 1_555
O43A Mo11A 1_555 1_555
O45A Mo10A 1_555 1_555
O45A Mo11A 1_555 1_555
Mo8A O34A 1_555 1_555
Mo8A O37A 1_555 1_555
Mo8A O42A 1_555 1_555
Mo9A O26A 1_555 1_555
Mo9A O31A 1_555 1_555
Mo9A O32A 1_555 1_555
Mo10A O29A 1_555 1_555
Mo11A O30A 1_555 1_555
Mo11A O35A 1_555 1_555
Mo11A O40A 1_555 1_555
Mo12A O28A 1_555 1_555
Mo12A O41A 1_555 1_555

#END
