
#######################################################################
#
#                 Cambridge Crystallographic Data Centre
#                                CCDC 
#
#######################################################################
#
# If this CIF has been generated from an entry in the Cambridge 
# Structural Database, then it will include bibliographic, chemical, 
# crystal, experimental, refinement or atomic coordinate data resulting 
# from the CCDC's data processing and validation procedures.
#
#######################################################################

data_NEZWOG
_symmetry_cell_setting           orthorhombic
_symmetry_space_group_name_H-M   'P c a n'
_symmetry_Int_Tables_number      60
_space_group_name_Hall           '-P 2n 2c'
loop_
_symmetry_equiv_pos_site_id
_symmetry_equiv_pos_as_xyz
1 x,y,z
2 1/2-x,1/2-y,1/2+z
3 x,-y,1/2-z
4 1/2-x,1/2+y,-z
5 -x,-y,-z
6 1/2+x,1/2+y,1/2-z
7 -x,y,1/2+z
8 1/2+x,1/2-y,z
_cell_length_a                   13.36042(33)
_cell_length_b                   26.2820(8)
_cell_length_c                   11.26679(32)
_cell_angle_alpha                90
_cell_angle_beta                 90
_cell_angle_gamma                90
_cell_volume                     3956.2
loop_
_atom_site_label
_atom_site_type_symbol
_atom_site_fract_x
_atom_site_fract_y
_atom_site_fract_z
La1 La 0.34141(23) 0.78148(11) 1.02779(27)
P1 P 0.1837(7) 0.68892(33) 0.8601(8)
O1 O 0.2840(9) 0.7171(7) 0.8692(15)
O2 O 0.1883(16) 0.6357(4) 0.9170(14)
O3 O 0.1487(12) 0.6847(6) 0.7304(8)
C1 C 0.0894(11) 0.7254(7) 0.9390(11)
O4 O 0.0031(10) 0.7303(9) 0.8690(19)
C2 C 0.0938(13) 0.7235(15) 1.0727(11)
O5 O 0.1762(12) 0.7304(10) 1.1204(15)
O6 O 0.0174(13) 0.7103(10) 1.1265(15)
La2 La 0.5113(4) 1.0 0.750
P2 P 0.2925(8) 0.91401(34) 0.7054(8)
O7 O 0.3748(12) 0.9480(6) 0.6517(17)
O8 O 0.2212(14) 0.9452(6) 0.7843(15)
O9 O 0.2338(13) 0.8860(6) 0.6070(12)
C3 C 0.3521(14) 0.8664(5) 0.7976(14)
O10 O 0.3018(17) 0.8197(5) 0.7939(20)
C4 C 0.3996(23) 0.8909(9) 0.9047(14)
O11 O 0.4544(18) 0.9281(8) 0.8862(19)
O12 O 0.3889(16) 0.8688(7) 1.0008(13)
O13 O 0.3860(19) 0.6896(9) 1.1341(21)
O14 O 0.1729(19) 0.8412(8) 1.0442(19)
O15 O 0.5784(18) 0.9031(10) 0.7089(23)
O16 O 0.6387(17) 0.9857(8) 0.9358(20)
La1B La 0.34141(23) 1.21852(11) 0.47221(27)
P1B P 0.1837(7) 1.31108(33) 0.6399(8)
O1B O 0.2840(9) 1.2829(7) 0.6308(15)
O2B O 0.1883(16) 1.3643(4) 0.5830(14)
O3B O 0.1487(12) 1.3153(6) 0.7696(8)
C1B C 0.0894(11) 1.2746(7) 0.5610(11)
O4B O 0.0031(10) 1.2697(9) 0.6310(19)
C2B C 0.0938(13) 1.2765(15) 0.4273(11)
O5B O 0.1762(12) 1.2696(10) 0.3796(15)
O6B O 0.0174(13) 1.2897(10) 0.3735(15)
P2B P 0.2925(8) 1.08599(34) 0.7946(8)
O7B O 0.3748(12) 1.0520(6) 0.8483(17)
O8B O 0.2212(14) 1.0548(6) 0.7157(15)
O9B O 0.2338(13) 1.1140(6) 0.8930(12)
C3B C 0.3521(14) 1.1336(5) 0.7024(14)
O10B O 0.3018(17) 1.1803(5) 0.7061(20)
C4B C 0.3996(23) 1.1091(9) 0.5953(14)
O11B O 0.4544(18) 1.0719(8) 0.6138(19)
O12B O 0.3889(16) 1.1312(7) 0.4992(13)
O13B O 0.3860(19) 1.3104(9) 0.3659(21)
O14B O 0.1729(19) 1.1588(8) 0.4558(19)
O15B O 0.5784(18) 1.0969(10) 0.7911(23)
O16B O 0.6387(17) 1.0143(8) 0.5642(20)
La1G La -0.15859(23) 0.71852(11) 1.02779(27)
La1A La 0.15859(23) 0.71852(11) 0.52779(27)
La1C La 0.15859(23) 1.28148(11) 0.97221(27)
La1E La -0.15859(23) 1.28148(11) 0.47221(27)
O3A O 0.3513(12) 0.8153(6) 1.2304(8)
O3C O 0.3513(12) 1.1847(6) 0.2696(8)
O4G O 0.5031(10) 0.7697(9) 0.8690(19)
O4E O 0.5031(10) 1.2303(9) 0.6310(19)
O6G O 0.5174(13) 0.7897(10) 1.1265(15)
O6E O 0.5174(13) 1.2103(10) 0.3735(15)
O17 O 0.0568(22) 0.1572(8) 0.2531(26)
O18 O 0.1956(18) 0.0559(9) 0.4436(20)
O19 O 0.4025(16) 0.4784(7) 0.3892(21)
O20 O 0.2115(28) 0.000 0.250
O21 O 0.025(4) 0.0693(18) 0.131(4)
loop_
_geom_bond_atom_site_label_1
_geom_bond_atom_site_label_2
_geom_bond_site_symmetry_1
_geom_bond_site_symmetry_2
La1 O1 1_555 1_555
P1 O1 1_555 1_555
O2 P1 1_555 1_555
O3 P1 1_555 1_555
C1 P1 1_555 1_555
O4 C1 1_555 1_555
C2 C1 1_555 1_555
O5 La1 1_555 1_555
O6 C2 1_555 1_555
La2 O7 1_555 1_555
P2 O7 1_555 1_555
O8 P2 1_555 1_555
O9 P2 1_555 1_555
C3 P2 1_555 1_555
O10 La1 1_555 1_555
C4 C3 1_555 1_555
O11 La2 1_555 1_555
O12 La1 1_555 1_555
O13 La1 1_555 1_555
O14 La1 1_555 1_555
O15 La2 1_555 1_555
O16 La2 1_555 1_555
La1B O1B 1_555 1_555
P1B O1B 1_555 1_555
O2B P1B 1_555 1_555
O3B P1B 1_555 1_555
C1B P1B 1_555 1_555
O4B C1B 1_555 1_555
C2B C1B 1_555 1_555
O5B La1B 1_555 1_555
O6B C2B 1_555 1_555
P2B O7B 1_555 1_555
O7B La2 1_555 1_555
O8B P2B 1_555 1_555
O9B P2B 1_555 1_555
C3B P2B 1_555 1_555
O10B La1B 1_555 1_555
C4B C3B 1_555 1_555
O11B La2 1_555 1_555
O12B La1B 1_555 1_555
O13B La1B 1_555 1_555
O14B La1B 1_555 1_555
O15B La2 1_555 1_555
O16B La2 1_555 1_555
La1G O4 1_555 1_555
La1A O3 1_555 1_555
La1C O3B 1_555 1_555
La1E O4B 1_555 1_555
O3A La1 1_555 1_555
O3C La1B 1_555 1_555
O4G La1 1_555 1_555
O4E La1B 1_555 1_555
O6G La1 1_555 1_555
O6E La1B 1_555 1_555
C2 O5 1_555 1_555
O6 La1G 1_555 1_555
C3 O10 1_555 1_555
C4 O11 1_555 1_555
C4 O12 1_555 1_555
C2B O5B 1_555 1_555
O6B La1E 1_555 1_555
C3B O10B 1_555 1_555
C4B O11B 1_555 1_555
C4B O12B 1_555 1_555

#END
