
#######################################################################
#
#                 Cambridge Crystallographic Data Centre
#                                CCDC 
#
#######################################################################
#
# If this CIF has been generated from an entry in the Cambridge 
# Structural Database, then it will include bibliographic, chemical, 
# crystal, experimental, refinement or atomic coordinate data resulting 
# from the CCDC's data processing and validation procedures.
#
#######################################################################

data_NIGLUK
_symmetry_cell_setting           cubic
_symmetry_space_group_name_H-M   'I -4 3 d'
_symmetry_Int_Tables_number      220
_space_group_name_Hall           'I -4bd 2c 3'
loop_
_symmetry_equiv_pos_site_id
_symmetry_equiv_pos_as_xyz
1 x,y,z
2 1/4+y,3/4-x,1/4-z
3 1/2+x,1/2-y,-z
4 z,x,y
5 -x,1/2-y,z
6 3/4-y,1/4-x,1/4+z
7 1/4+x,3/4-z,1/4-y
8 3/4-y,3/4+x,1/4-z
9 1/2-x,y,-z
10 -z,1/2-x,y
11 1/4+y,1/4+x,1/4+z
12 3/4-x,3/4+z,1/4-y
13 1/2+z,1/2-x,-y
14 3/4+x,3/4+z,3/4+y
15 1/2-z,x,-y
16 1/4-x,3/4-z,3/4+y
17 y,z,x
18 1/4+z,3/4-y,1/4-x
19 1/4-z,3/4-y,3/4+x
20 y,-z,1/2-x
21 1/4+z,1/4+y,1/4+x
22 -y,1/2+z,1/2-x
23 -y,1/2-z,x
24 3/4-z,3/4+y,1/4-x
25 1/2+x,1/2+y,1/2+z
26 3/4+y,1/4-x,3/4-z
27 x,-y,1/2-z
28 1/2+z,1/2+x,1/2+y
29 1/2-x,-y,1/2+z
30 1/4-y,3/4-x,3/4+z
31 3/4+x,1/4-z,3/4-y
32 1/4-y,1/4+x,3/4-z
33 -x,1/2+y,1/2-z
34 1/2-z,-x,1/2+y
35 3/4+y,3/4+x,3/4+z
36 1/4-x,1/4+z,3/4-y
37 z,-x,1/2-y
38 1/4+x,1/4+z,1/4+y
39 -z,1/2+x,1/2-y
40 3/4-x,1/4-z,1/4+y
41 1/2+y,1/2+z,1/2+x
42 3/4+z,1/4-y,3/4-x
43 3/4-z,1/4-y,1/4+x
44 1/2+y,1/2-z,-x
45 3/4+z,3/4+y,3/4+x
46 1/2-y,z,-x
47 1/2-y,-z,1/2+x
48 1/4-z,1/4+y,3/4-x
_cell_length_a                   19.505(7)
_cell_length_b                   19.505(7)
_cell_length_c                   19.505(7)
_cell_angle_alpha                90
_cell_angle_beta                 90
_cell_angle_gamma                90
_cell_volume                     7420.58
loop_
_atom_site_label
_atom_site_type_symbol
_atom_site_fract_x
_atom_site_fract_y
_atom_site_fract_z
N1 N 0.5289(4) 0.3372(4) 0.1753(4)
C1 C 0.5319(5) 0.3941(6) 0.1370(5)
C2 C 0.5364(5) 0.4599(5) 0.1621(5)
C3 C 0.5371(5) 0.4668(5) 0.2341(5)
C4 C 0.5361(5) 0.4081(5) 0.2759(5)
C5 C 0.5325(5) 0.3455(5) 0.2440(6)
C6 C 0.5394(6) 0.5208(5) 0.1208(5)
C7 C 0.5383(6) 0.4151(5) 0.3502(5)
Cu1 Cu 0.5000 0.2500 0.1250
H1 H 0.5309 0.3886 0.0886
H2 H 0.5325 0.3056 0.2719
H3 H 0.5423 0.5166 0.0724
H4 H 0.5390 0.3755 0.3785
C3Z C 0.5371(5) 0.5332(5) 0.2659(5)
C2Z C 0.5364(5) 0.5401(5) 0.3379(5)
C1Z C 0.5319(5) 0.6059(6) 0.3630(5)
N1Z N 0.5289(4) 0.6628(4) 0.3247(4)
C5Z C 0.5325(5) 0.6545(5) 0.2560(6)
C4Z C 0.5361(5) 0.5919(5) 0.2241(5)
C7Z C 0.5383(6) 0.5849(5) 0.1498(5)
H4Z H 0.5390 0.6245 0.1215
H2Z H 0.5325 0.6944 0.2281
Cu1Z Cu 0.5000 0.7500 0.3750
N1J N 0.5872(4) 0.7789(4) 0.4253(4)
C1J C 0.6441(6) 0.7819(5) 0.3870(5)
C2J C 0.7099(5) 0.7864(5) 0.4121(5)
C3J C 0.7168(5) 0.7871(5) 0.4841(5)
C3EA C 0.7832(5) 0.7871(5) 0.5159(5)
C2EA C 0.7901(5) 0.7864(5) 0.5879(5)
C1EA C 0.8559(6) 0.7819(5) 0.6130(5)
N1EA N 0.9128(4) 0.7789(4) 0.5747(4)
C5EA C 0.9045(5) 0.7825(5) 0.5060(6)
C4EA C 0.8419(5) 0.7861(5) 0.4741(5)
C7EA C 0.8349(5) 0.7883(6) 0.3998(5)
C6J C 0.7708(5) 0.7894(6) 0.3708(5)
H3J H 0.7666 0.7923 0.3224
H4EA H 0.8745 0.7890 0.3715
H2EA H 0.9444 0.7825 0.4781
Cu1EA Cu 1.0000 0.7500 0.6250
H1EA H 0.8614 0.7809 0.6614
C6EA C 0.7292(5) 0.7894(6) 0.6292(5)
C4J C 0.6581(5) 0.7861(5) 0.5259(5)
C5J C 0.5955(5) 0.7825(5) 0.4940(6)
H2J H 0.5556 0.7825 0.5219
C7J C 0.6651(5) 0.7883(6) 0.6002(5)
H1J H 0.6386 0.7809 0.3386
N1FA N 0.4711(4) 0.8372(4) 0.3247(4)
N1E N 0.4128(4) 0.7211(4) 0.4253(4)
H1Z H 0.5309 0.6114 0.4114
C6Z C 0.5394(6) 0.4792(5) 0.3792(5)
H4J H 0.6255 0.7890 0.6285
H3EA H 0.7334 0.7923 0.6776
P1 P 0.6647(2) 0.1647(2) 0.3353(2)
F1 F 0.6190(4) 0.1190(4) 0.3810(4)
F2 F 0.7107(4) 0.2107(4) 0.2893(4)
F3 F 0.6468(28) 0.2309(12) 0.3757(20)
F4 F 0.6064(20) 0.2124(29) 0.3103(45)
F5 F 0.6107(14) 0.1879(25) 0.2817(19)
F6 F 0.6076(10) 0.2165(9) 0.3561(13)
F3LA F 0.6243(20) 0.1468(28) 0.2691(12)
F4LA F 0.6897(45) 0.1064(20) 0.2876(29)
F3QA F 0.7309(12) 0.1243(20) 0.3532(28)
F4QA F 0.7124(29) 0.1897(45) 0.3936(20)
F5LA F 0.7183(19) 0.1107(14) 0.3121(25)
F6LA F 0.6439(13) 0.1076(10) 0.2835(9)
F5QA F 0.6879(25) 0.2183(19) 0.3893(14)
F6QA F 0.7165(9) 0.1439(13) 0.3924(10)
loop_
_geom_bond_atom_site_label_1
_geom_bond_atom_site_label_2
_geom_bond_site_symmetry_1
_geom_bond_site_symmetry_2
N1 C1 1_555 1_555
C1 C2 1_555 1_555
C2 C3 1_555 1_555
C3 C4 1_555 1_555
C4 C5 1_555 1_555
C5 N1 1_555 1_555
C6 C2 1_555 1_555
C7 C4 1_555 1_555
Cu1 N1 1_555 1_555
P1 F1 1_555 1_555
F2 P1 1_555 1_555
F3 P1 1_555 1_555
F4 P1 1_555 1_555
F5 P1 1_555 1_555
F6 P1 1_555 1_555
H1 C1 1_555 1_555
H2 C5 1_555 1_555
H3 C6 1_555 1_555
H4 C7 1_555 1_555
C3Z C3 1_555 1_555
C2Z C3Z 1_555 1_555
C1Z C2Z 1_555 1_555
N1Z C1Z 1_555 1_555
C5Z N1Z 1_555 1_555
C4Z C3Z 1_555 1_555
C7Z C6 1_555 1_555
H4Z C7Z 1_555 1_555
H2Z C5Z 1_555 1_555
Cu1Z N1Z 1_555 1_555
N1J Cu1Z 1_555 1_555
C1J N1J 1_555 1_555
C2J C1J 1_555 1_555
C3J C2J 1_555 1_555
C3EA C3J 1_555 1_555
C2EA C3EA 1_555 1_555
C1EA C2EA 1_555 1_555
N1EA C1EA 1_555 1_555
C5EA N1EA 1_555 1_555
C4EA C3EA 1_555 1_555
C7EA C4EA 1_555 1_555
C6J C2J 1_555 1_555
H3J C6J 1_555 1_555
H4EA C7EA 1_555 1_555
H2EA C5EA 1_555 1_555
Cu1EA N1EA 1_555 1_555
H1EA C1EA 1_555 1_555
C6EA C2EA 1_555 1_555
C4J C3J 1_555 1_555
C5J N1J 1_555 1_555
H2J C5J 1_555 1_555
C7J C6EA 1_555 1_555
H1J C1J 1_555 1_555
N1FA Cu1Z 1_555 1_555
N1E Cu1Z 1_555 1_555
H1Z C1Z 1_555 1_555
C6Z C7 1_555 1_555
F3LA P1 1_555 1_555
F4LA P1 1_555 1_555
F3QA P1 1_555 1_555
F4QA P1 1_555 1_555
F5LA P1 1_555 1_555
F6LA P1 1_555 1_555
F5QA P1 1_555 1_555
F6QA P1 1_555 1_555
H4J C7J 1_555 1_555
H3EA C6EA 1_555 1_555
F3 F4 1_555 1_555
F3 F5QA 1_555 1_555
F3 F4QA 1_555 1_555
F3 F6 1_555 1_555
F4 F3LA 1_555 1_555
F4 F5 1_555 1_555
F4 F6 1_555 1_555
F5 F6 1_555 1_555
F5 F3LA 1_555 1_555
C2Z C6Z 1_555 1_555
C5Z C4Z 1_555 1_555
C4Z C7Z 1_555 1_555
C5EA C4EA 1_555 1_555
C7EA C6J 1_555 1_555
C4J C5J 1_555 1_555
C4J C7J 1_555 1_555
F3LA F4LA 1_555 1_555
F3LA F6LA 1_555 1_555
F4LA F3QA 1_555 1_555
F4LA F5LA 1_555 1_555
F4LA F6LA 1_555 1_555
F3QA F4QA 1_555 1_555
F3QA F5LA 1_555 1_555
F3QA F6QA 1_555 1_555
F4QA F5QA 1_555 1_555
F4QA F6QA 1_555 1_555
F5LA F6LA 1_555 1_555
F5QA F6QA 1_555 1_555

#END
