
#######################################################################
#
#                 Cambridge Crystallographic Data Centre
#                                CCDC 
#
#######################################################################
#
# If this CIF has been generated from an entry in the Cambridge 
# Structural Database, then it will include bibliographic, chemical, 
# crystal, experimental, refinement or atomic coordinate data resulting 
# from the CCDC's data processing and validation procedures.
#
#######################################################################

data_NIHBAI
_symmetry_cell_setting           monoclinic
_symmetry_space_group_name_H-M   'P 21/c'
_symmetry_Int_Tables_number      14
_space_group_name_Hall           '-P 2ybc'
loop_
_symmetry_equiv_pos_site_id
_symmetry_equiv_pos_as_xyz
1 x,y,z
2 -x,1/2+y,1/2-z
3 -x,-y,-z
4 x,1/2-y,1/2+z
_cell_length_a                   11.3594(2)
_cell_length_b                   9.8177(2)
_cell_length_c                   18.3724(4)
_cell_angle_alpha                90
_cell_angle_beta                 126.9310(10)
_cell_angle_gamma                90
_cell_volume                     1637.85
loop_
_atom_site_label
_atom_site_type_symbol
_atom_site_fract_x
_atom_site_fract_y
_atom_site_fract_z
Fe1 Fe 0.37769(5) 0.08495(5) 0.13311(3)
Fe2 Fe 0.42585(6) 0.10227(5) -0.31308(3)
Fe3 Fe 0.5000 0.0000 0.0000
Fe4 Fe 0.0000 0.0000 0.0000
O1 O 0.4347(3) 0.2072(2) 0.24557(16)
O2 O 0.5507(3) 0.0703(2) 0.36766(16)
O3 O 0.5921(3) 0.0032(2) 0.22000(17)
O4 O 0.6794(3) 0.0030(3) 0.13866(17)
O5 O 0.4544(3) 0.2630(2) 0.10685(16)
O6 O 0.4813(3) 0.2112(3) -0.00093(17)
O7 O 0.3461(3) -0.0787(2) 0.19641(15)
O8 O 0.1022(3) -0.1015(3) 0.12094(18)
O9 O 0.3373(3) -0.0246(2) 0.02366(17)
O10 O 0.1149(3) -0.1098(3) -0.03239(19)
O11 O 0.1589(3) 0.1578(2) 0.05939(16)
O12 O 0.1996(3) 0.3817(2) 0.09078(18)
C1 C 0.4949(4) 0.1798(4) 0.3288(2)
H1 H 0.4970 0.2509 0.3646
C2 C 0.6952(4) -0.0089(4) 0.2113(3)
H2 H 0.7913 -0.0286 0.2646
C3 C 0.4731(4) 0.2929(4) 0.0468(2)
H3 H 0.4814 0.3868 0.0381
C4 C 0.2326(4) -0.1257(4) 0.1864(2)
H4 H 0.2487 -0.1843 0.2327
C5 C 0.2251(4) -0.1024(4) -0.0299(3)
H5 H 0.2283 -0.1587 -0.0707
C6 C 0.1168(4) 0.2831(4) 0.0495(3)
H6 H 0.0144 0.3011 0.0073
Fe1B Fe 0.62231(5) -0.08495(5) -0.13311(3)
Fe1B_2 Fe -0.37769(5) -0.08495(5) -0.13311(3)
Fe1A Fe 0.62231(5) 0.58495(5) 0.36689(3)
Fe2B Fe 0.57415(6) -0.10227(5) 0.31308(3)
Fe2C Fe 0.42585(6) 0.39773(5) 0.18692(3)
Fe2A Fe 0.57415(6) -0.39773(5) -0.18692(3)
Fe2A_2 Fe -0.42585(6) -0.39773(5) -0.18692(3)
Fe2B_2 Fe 0.57415(6) 0.89773(5) 0.31308(3)
Fe3C Fe 0.5000 0.5000 0.5000
Fe4_2 Fe 1.0000 0.0000 0.0000
O1B O 0.5653(3) -0.2072(2) -0.24557(16)
O1C O 0.4347(3) 0.2928(2) -0.25443(16)
O1A O 0.5653(3) 0.7072(2) 0.25443(16)
O2B O 0.4493(3) -0.0703(2) -0.36766(16)
O2A O 0.4493(3) 0.5703(2) 0.13234(16)
O3B O 0.4079(3) -0.0032(2) -0.22000(17)
O3A O 0.4079(3) 0.5032(2) 0.28000(17)
O4B O 0.3206(3) -0.0030(3) -0.13866(17)
O4A O 0.3206(3) 0.5030(3) 0.36134(17)
O5B O 0.5456(3) -0.2630(2) -0.10685(16)
O5C O 0.4544(3) 0.2370(2) -0.39315(16)
O6B O 0.5187(3) -0.2112(3) 0.00093(17)
O7B O 0.6539(3) 0.0787(2) -0.19641(15)
O7A O 0.6539(3) 0.4213(2) 0.30359(15)
O8B O -0.1022(3) 0.1015(3) -0.12094(18)
O9B O 0.6627(3) 0.0246(2) -0.02366(17)
O10B O 0.8851(3) 0.1098(3) 0.03239(19)
O10B_2 O -0.1149(3) 0.1098(3) 0.03239(19)
O11B O -0.1589(3) -0.1578(2) -0.05939(16)
O11B_2 O 0.8411(3) -0.1578(2) -0.05939(16)
O12C O 0.1996(3) 0.1183(2) -0.40922(18)
O12B O -0.1996(3) -0.3817(2) -0.09078(18)
C1A C 0.5051(4) 0.6798(4) 0.1712(2)
H1A H 0.5030 0.7509 0.1354
C2B C 0.3048(4) 0.0089(4) -0.2113(3)
C2A C 0.3048(4) 0.4911(4) 0.2887(3)
H2B H 0.2087 0.0286 -0.2646
H2A H 0.2087 0.4714 0.2354
C3B C 0.5269(4) -0.2929(4) -0.0468(2)
H3B H 0.5186 -0.3868 -0.0381
C5B C 0.7749(4) 0.1024(4) 0.0299(3)
H5B H 0.7717 0.1587 0.0707
C6B C -0.1168(4) -0.2831(4) -0.0495(3)
H6B H -0.0144 -0.3011 -0.0073
I1 I -0.0342(5) -0.2789(4) 0.2297(3)
I2 I -0.1525(2) -0.52468(15) 0.13196(12)
I3? I -0.0220(10) -0.2568(16) 0.2377(6)
I4? I -0.1229(5) -0.5173(5) 0.1628(5)
loop_
_geom_bond_atom_site_label_1
_geom_bond_atom_site_label_2
_geom_bond_site_symmetry_1
_geom_bond_site_symmetry_2
Fe1 O1 1_555 1_555
Fe2 O1C 1_555 1_555
Fe3 O4 1_555 1_555
Fe4 O8 1_555 1_555
O1 C1 1_555 1_555
O2 C1 1_555 1_555
O3 Fe1 1_555 1_555
O4 C2 1_555 1_555
O5 Fe1 1_555 1_555
O6 Fe3 1_555 1_555
O7 Fe1 1_555 1_555
O8 C4 1_555 1_555
O9 Fe1 1_555 1_555
O10 Fe4 1_555 1_555
O11 Fe1 1_555 1_555
O12 C6 1_555 1_555
C1 H1 1_555 1_555
C2 O3 1_555 1_555
H2 C2 1_555 1_555
C3 O5 1_555 1_555
H3 C3 1_555 1_555
C4 O7 1_555 1_555
H4 C4 1_555 1_555
C5 O9 1_555 1_555
H5 C5 1_555 1_555
C6 O11 1_555 1_555
H6 C6 1_555 1_555
I1 I2 1_555 1_555
Fe1B O1B 1_555 1_555
Fe1B_2 O11B 1_555 1_555
Fe1A O1A 1_555 1_555
Fe2B O2 1_555 1_555
Fe2C O1 1_555 1_555
Fe2A O1B 1_555 1_555
Fe2A_2 O12B 1_555 1_555
Fe2B_2 O1A 1_555 1_555
Fe3C O4A 1_555 1_555
Fe4_2 O10B 1_555 1_555
O1A C1A 1_555 1_555
O2B Fe2 1_555 1_555
O2A Fe2C 1_555 1_555
O3B Fe2 1_555 1_555
O3A Fe1A 1_555 1_555
O4B Fe3 1_555 1_555
O4A C2A 1_555 1_555
O5B Fe1B 1_555 1_555
O5C Fe2 1_555 1_555
O6B Fe3 1_555 1_555
O7B Fe2 1_555 1_555
O7A Fe1A 1_555 1_555
O8B Fe4 1_555 1_555
O9B Fe3 1_555 1_555
O10B C5B 1_555 1_555
O10B_2 Fe4 1_555 1_555
O11B Fe4 1_555 1_555
O11B_2 Fe1B 1_555 1_555
O12C Fe2 1_555 1_555
O12B C6B 1_555 1_555
C1A O2A 1_555 1_555
H1A C1A 1_555 1_555
C2B O3B 1_555 1_555
C2A O3A 1_555 1_555
H2B C2B 1_555 1_555
H2A C2A 1_555 1_555
C3B O5B 1_555 1_555
H3B C3B 1_555 1_555
C5B O9B 1_555 1_555
H5B C5B 1_555 1_555
C6B O11B 1_555 1_555
H6B C6B 1_555 1_555
Fe3 O9 1_555 1_555
Fe4 O11 1_555 1_555
O3 Fe2B 1_555 1_555
O5 Fe2C 1_555 1_555
O6 C3 1_555 1_555
O7 Fe2B 1_555 1_555
O10 C5 1_555 1_555
O12 Fe2C 1_555 1_555
Fe1B O3B 1_555 1_555
Fe1B O7B 1_555 1_555
Fe1B O9B 1_555 1_555
Fe2C O3A 1_555 1_555
Fe2C O7A 1_555 1_555
Fe2A O5B 1_555 1_555
Fe4_2 O11B_2 1_555 1_555
O4B C2B 1_555 1_555
O6B C3B 1_555 1_555

#END
