
#######################################################################
#
#                 Cambridge Crystallographic Data Centre
#                                CCDC 
#
#######################################################################
#
# If this CIF has been generated from an entry in the Cambridge 
# Structural Database, then it will include bibliographic, chemical, 
# crystal, experimental, refinement or atomic coordinate data resulting 
# from the CCDC's data processing and validation procedures.
#
#######################################################################

data_NIHBEM
_symmetry_cell_setting           monoclinic
_symmetry_space_group_name_H-M   'P 21/c'
_symmetry_Int_Tables_number      14
_space_group_name_Hall           '-P 2ybc'
loop_
_symmetry_equiv_pos_site_id
_symmetry_equiv_pos_as_xyz
1 x,y,z
2 -x,1/2+y,1/2-z
3 -x,-y,-z
4 x,1/2-y,1/2+z
_cell_length_a                   11.2911(3)
_cell_length_b                   9.8459(2)
_cell_length_c                   18.5051(5)
_cell_angle_alpha                90
_cell_angle_beta                 126.770(2)
_cell_angle_gamma                90
_cell_volume                     1647.93
loop_
_atom_site_label
_atom_site_type_symbol
_atom_site_fract_x
_atom_site_fract_y
_atom_site_fract_z
Fe1 Fe 0.37842(4) 0.08124(3) 0.13350(2)
Fe2 Fe 0.42783(4) 0.10784(3) -0.30995(2)
Fe3 Fe 0.5000 0.0000 0.0000
Fe4 Fe 0.0000 0.0000 0.0000
O1 O 0.43542(19) 0.20087(16) 0.24685(11)
O2 O 0.5542(2) 0.06323(17) 0.36791(11)
O3 O 0.59367(19) -0.00235(16) 0.21803(11)
O4 O 0.6840(2) -0.00693(17) 0.13886(11)
O5 O 0.46146(19) 0.25983(16) 0.11175(11)
O6 O 0.48860(19) 0.21106(18) 0.00427(11)
O7 O 0.34476(19) -0.08484(16) 0.19439(11)
O8 O 0.1009(2) -0.10744(17) 0.12191(12)
O9 O 0.33634(19) -0.02643(17) 0.02317(11)
O10 O 0.1119(2) -0.11499(17) -0.03715(12)
O11 O 0.16430(18) 0.15903(16) 0.06115(11)
O12 O 0.2003(2) 0.38182(16) 0.09492(11)
C1 C 0.4968(3) 0.1737(3) 0.32987(18)
C2 C 0.6970(3) -0.0169(3) 0.21015(19)
C3 C 0.4817(3) 0.2916(3) 0.05321(17)
C4 C 0.2312(3) -0.1342(3) 0.18387(18)
C5 C 0.2259(3) -0.1050(3) -0.03105(18)
C6 C 0.1215(3) 0.2826(3) 0.05144(18)
H1 H 0.495(3) 0.246(2) 0.3641(16)
H2 H 0.795(3) -0.030(2) 0.2644(17)
H3 H 0.494(3) 0.387(3) 0.0459(19)
H4 H 0.246(3) -0.207(2) 0.2257(17)
H5 H 0.242(3) -0.154(2) -0.0683(19)
H6 H 0.019(3) 0.297(3) 0.007(2)
Fe1B Fe 0.62158(4) -0.08124(3) -0.13350(2)
Fe1B_2 Fe -0.37842(4) -0.08124(3) -0.13350(2)
Fe1A Fe 0.62158(4) 0.58124(3) 0.36650(2)
Fe2B Fe 0.57217(4) -0.10784(3) 0.30995(2)
Fe2C Fe 0.42783(4) 0.39216(3) 0.19005(2)
Fe2A Fe 0.57217(4) -0.39216(3) -0.19005(2)
Fe2A_2 Fe -0.42783(4) -0.39216(3) -0.19005(2)
Fe2B_2 Fe 0.57217(4) 0.89216(3) 0.30995(2)
Fe3C Fe 0.5000 0.5000 0.5000
Fe4_2 Fe 1.0000 0.0000 0.0000
O1B O 0.56458(19) -0.20087(16) -0.24685(11)
O1C O 0.43542(19) 0.29913(16) -0.25315(11)
O1A O 0.56458(19) 0.70087(16) 0.25315(11)
O2B O 0.4458(2) -0.06323(17) -0.36791(11)
O2A O 0.4458(2) 0.56323(17) 0.13209(11)
O3B O 0.40633(19) 0.00235(16) -0.21803(11)
O3A O 0.40633(19) 0.49765(16) 0.28197(11)
O4B O 0.3160(2) 0.00693(17) -0.13886(11)
O4A O 0.3160(2) 0.49307(17) 0.36114(11)
O5B O 0.53854(19) -0.25983(16) -0.11175(11)
O5C O 0.46146(19) 0.24017(16) -0.38825(11)
O6B O 0.51140(19) -0.21106(18) -0.00427(11)
O7B O 0.65524(19) 0.08484(16) -0.19439(11)
O7A O 0.65524(19) 0.41516(16) 0.30561(11)
O8B O -0.1009(2) 0.10744(17) -0.12191(12)
O9B O 0.66366(19) 0.02643(17) -0.02317(11)
O10B O 0.8881(2) 0.11499(17) 0.03715(12)
O10B_2 O -0.1119(2) 0.11499(17) 0.03715(12)
O11B O -0.16430(18) -0.15903(16) -0.06115(11)
O11B_2 O 0.83570(18) -0.15903(16) -0.06115(11)
O12C O 0.2003(2) 0.11818(16) -0.40508(11)
O12B O -0.2003(2) -0.38182(16) -0.09492(11)
C1A C 0.5032(3) 0.6737(3) 0.17013(18)
C2B C 0.3030(3) 0.0169(3) -0.21015(19)
C2A C 0.3030(3) 0.4831(3) 0.28985(19)
C3B C 0.5183(3) -0.2916(3) -0.05321(17)
C5B C 0.7741(3) 0.1050(3) 0.03105(18)
C6B C -0.1215(3) -0.2826(3) -0.05144(18)
H1A H 0.505(3) 0.746(2) 0.1359(16)
H2B H 0.205(3) 0.030(2) -0.2644(17)
H2A H 0.205(3) 0.470(2) 0.2356(17)
H3B H 0.506(3) -0.387(3) -0.0459(19)
H5B H 0.758(3) 0.154(2) 0.0683(19)
H6B H -0.019(3) -0.297(3) -0.007(2)
O13 O 0.1636(3) 0.3689(2) -0.08378(15)
C7 C 0.1535(4) 0.5050(3) -0.0964(2)
H7 H 0.1699 0.5701 -0.0534
C8 C 0.1174(4) 0.5350(4) -0.1772(2)
H8 H 0.1033 0.6231 -0.2021
C9 C 0.1039(4) 0.4079(4) -0.2195(2)
H9 H 0.0788 0.3946 -0.2780
C10 C 0.1336(4) 0.3132(4) -0.1602(2)
H10 H 0.1339 0.2185 -0.1698
loop_
_geom_bond_atom_site_label_1
_geom_bond_atom_site_label_2
_geom_bond_site_symmetry_1
_geom_bond_site_symmetry_2
Fe1 O1 1_555 1_555
Fe2 O1C 1_555 1_555
Fe3 O4 1_555 1_555
Fe4 O8 1_555 1_555
O1 C1 1_555 1_555
O2 C1 1_555 1_555
O3 Fe1 1_555 1_555
O4 C2 1_555 1_555
O5 Fe1 1_555 1_555
O6 Fe3 1_555 1_555
O7 Fe1 1_555 1_555
O8 C4 1_555 1_555
O9 Fe1 1_555 1_555
O10 Fe4 1_555 1_555
O11 Fe1 1_555 1_555
O12 C6 1_555 1_555
C1 H1 1_555 1_555
C2 O3 1_555 1_555
C3 O5 1_555 1_555
C4 O7 1_555 1_555
C5 O9 1_555 1_555
C6 O11 1_555 1_555
H2 C2 1_555 1_555
H3 C3 1_555 1_555
H4 C4 1_555 1_555
H5 C5 1_555 1_555
H6 C6 1_555 1_555
O13 C7 1_555 1_555
C7 H7 1_555 1_555
C8 C7 1_555 1_555
H8 C8 1_555 1_555
C9 C8 1_555 1_555
H9 C9 1_555 1_555
C10 O13 1_555 1_555
H10 C10 1_555 1_555
Fe1B O1B 1_555 1_555
Fe1B_2 O11B 1_555 1_555
Fe1A O1A 1_555 1_555
Fe2B O2 1_555 1_555
Fe2C O1 1_555 1_555
Fe2A O1B 1_555 1_555
Fe2A_2 O12B 1_555 1_555
Fe2B_2 O1A 1_555 1_555
Fe3C O4A 1_555 1_555
Fe4_2 O10B 1_555 1_555
O1A C1A 1_555 1_555
O2B Fe2 1_555 1_555
O2A Fe2C 1_555 1_555
O3B Fe2 1_555 1_555
O3A Fe1A 1_555 1_555
O4B Fe3 1_555 1_555
O4A C2A 1_555 1_555
O5B Fe1B 1_555 1_555
O5C Fe2 1_555 1_555
O6B Fe3 1_555 1_555
O7B Fe2 1_555 1_555
O7A Fe1A 1_555 1_555
O8B Fe4 1_555 1_555
O9B Fe3 1_555 1_555
O10B C5B 1_555 1_555
O10B_2 Fe4 1_555 1_555
O11B Fe4 1_555 1_555
O11B_2 Fe1B 1_555 1_555
O12C Fe2 1_555 1_555
O12B C6B 1_555 1_555
C1A O2A 1_555 1_555
C2B O3B 1_555 1_555
C2A O3A 1_555 1_555
C3B O5B 1_555 1_555
C5B O9B 1_555 1_555
C6B O11B 1_555 1_555
H1A C1A 1_555 1_555
H2B C2B 1_555 1_555
H2A C2A 1_555 1_555
H3B C3B 1_555 1_555
H5B C5B 1_555 1_555
H6B C6B 1_555 1_555
Fe3 O9 1_555 1_555
Fe4 O11 1_555 1_555
O3 Fe2B 1_555 1_555
O5 Fe2C 1_555 1_555
O6 C3 1_555 1_555
O7 Fe2B 1_555 1_555
O10 C5 1_555 1_555
O12 Fe2C 1_555 1_555
C9 C10 1_555 1_555
Fe1B O3B 1_555 1_555
Fe1B O7B 1_555 1_555
Fe1B O9B 1_555 1_555
Fe2C O3A 1_555 1_555
Fe2C O7A 1_555 1_555
Fe2A O5B 1_555 1_555
Fe4_2 O11B_2 1_555 1_555
O4B C2B 1_555 1_555
O6B C3B 1_555 1_555

#END
