
#######################################################################
#
#                 Cambridge Crystallographic Data Centre
#                                CCDC 
#
#######################################################################
#
# If this CIF has been generated from an entry in the Cambridge 
# Structural Database, then it will include bibliographic, chemical, 
# crystal, experimental, refinement or atomic coordinate data resulting 
# from the CCDC's data processing and validation procedures.
#
#######################################################################

data_NIKJUN
_symmetry_cell_setting           monoclinic
_symmetry_space_group_name_H-M   'C 2/c'
_symmetry_Int_Tables_number      15
_space_group_name_Hall           '-C 2yn'
loop_
_symmetry_equiv_pos_site_id
_symmetry_equiv_pos_as_xyz
1 x,y,z
2 1/2+x,1/2+y,z
3 -x,y,1/2-z
4 1/2-x,1/2+y,1/2-z
5 -x,-y,-z
6 1/2-x,1/2-y,-z
7 x,-y,1/2+z
8 1/2+x,1/2-y,1/2+z
_cell_length_a                   21.6137(8)
_cell_length_b                   23.9695(7)
_cell_length_c                   30.9377(11)
_cell_angle_alpha                90
_cell_angle_beta                 106.1922(17)
_cell_angle_gamma                90
_cell_volume                     15392.1
loop_
_atom_site_label
_atom_site_type_symbol
_atom_site_fract_x
_atom_site_fract_y
_atom_site_fract_z
Dy1 Dy 1.086420(16) 1.224990(13) 0.300560(11)
Dy2 Dy 1.175420(18) 0.691220(13) -0.087260(12)
C1 C 1.1762(3) 1.3069(3) -0.0328(2)
C2 C 1.1856(3) 1.3354(3) 0.0092(2)
H1 H 1.1962 1.3736 0.0150
C3 C 1.1763(3) 1.2969(3) 0.0392(2)
H2 H 1.1778 1.3034 0.0698
C4 C 1.1637(3) 1.2445(3) 0.0157(2)
C5 C 1.1426(3) 1.1964(3) 0.0330(2)
C6 C 1.1329(3) 1.1467(3) 0.0086(2)
C7 C 1.1143(4) 1.0956(3) 0.0261(3)
H3 H 1.1011 1.0917 0.0528
C8 C 1.1193(4) 1.0543(3) -0.0023(3)
H4 H 1.1093 1.0160 0.0000
C9 C 1.1427(3) 1.0800(3) -0.0371(2)
C10 C 1.1616(3) 1.0516(3) -0.0705(2)
C11 C 1.1832(3) 1.0780(3) -0.1034(2)
C12 C 1.2060(3) 1.0483(3) -0.1367(2)
H5 H 1.2122 1.0092 -0.1384
C13 C 1.2162(3) 1.0872(3) -0.1645(2)
H6 H 1.2320 1.0809 -0.1898
C14 C 1.1996(3) 1.1400(3) -0.1500(2)
C15 C 1.1935(3) 1.1890(3) -0.1749(2)
C16 C 1.1724(3) 1.2390(3) -0.1598(2)
C17 C 1.1597(3) 1.2890(3) -0.1853(2)
H7 H 1.1580 1.2930 -0.2161
C18 C 1.1503(3) 1.3298(3) -0.1578(2)
H8 H 1.1389 1.3674 -0.1657
C19 C 1.1609(3) 1.3049(3) -0.1142(2)
C20 C 1.1690(3) 1.3331(3) -0.0740(3)
N1 N 1.1672(2) 1.2502(2) -0.02807(18)
N2 N 1.1489(3) 1.1377(2) -0.03050(18)
N3 N 1.1817(3) 1.1339(2) -0.11071(19)
N4 N 1.1690(2) 1.2475(2) -0.11724(18)
C21 C 1.1269(4) 1.1999(3) 0.0765(2)
C22 C 1.1737(3) 1.2031(3) 0.1162(3)
H9 H 1.2176 1.2018 0.1164
C23 C 1.1580(3) 1.2082(3) 0.1564(2)
H10 H 1.1912 1.2098 0.1840
C24 C 1.0935(3) 1.2109(2) 0.1566(2)
C25 C 1.0461(4) 1.2064(3) 0.1159(3)
H11 H 1.0020 1.2071 0.1156
C26 C 1.0617(3) 1.2008(3) 0.0762(3)
H12 H 1.0288 1.1975 0.0486
C27 C 1.0766(4) 1.2186(3) 0.1997(2)
O1 O 1.1213(2) 1.22042(18) 0.23577(16)
O2 O 1.0175(2) 1.22300(18) 0.19883(16)
C28 C 1.1591(4) 0.9894(3) -0.0713(2)
C29 C 1.1029(4) 0.9628(3) -0.0981(3)
H13 H 1.0649 0.9837 -0.1113
C30 C 1.1046(4) 0.9044(3) -0.1047(3)
H14 H 1.0677 0.8861 -0.1232
C31 C 1.1603(3) 0.8732(3) -0.0843(2)
C32 C 1.2119(4) 0.9007(3) -0.0574(2)
H15 H 1.2490 0.8797 -0.0424
C33 C 1.2129(4) 0.9579(3) -0.0509(2)
H16 H 1.2505 0.9754 -0.0325
C34 C 1.1624(4) 0.8128(3) -0.0926(3)
O3 O 1.2107(3) 0.78551(19) -0.07239(18)
O4 O 1.1147(2) 0.79007(18) -0.12082(17)
C35 C 1.2112(3) 1.1872(3) -0.2183(2)
C36 C 1.2754(3) 1.1780(3) -0.2174(2)
H17 H 1.3067 1.1705 -0.1896
C37 C 1.2933(3) 1.1800(2) -0.2566(2)
H18 H 1.3371 1.1733 -0.2554
C38 C 1.2499(3) 1.1913(3) -0.2974(2)
C39 C 1.1850(3) 1.1973(3) -0.2989(2)
H19 H 1.1535 1.2020 -0.3270
C40 C 1.1665(3) 1.1962(3) -0.2592(2)
H20 H 1.1225 1.2018 -0.2604
C41 C 1.2700(4) 1.1985(3) -0.3384(3)
O5 O 1.3312(2) 1.20828(17) -0.33337(14)
O6 O 1.2324(2) 1.19606(18) -0.37664(15)
C42 C 1.1692(3) 1.3964(3) -0.0758(3)
C43 C 1.1240(4) 1.4272(3) -0.0620(3)
H21 H 1.0924 1.4089 -0.0510
C44 C 1.1251(5) 1.4858(3) -0.0642(3)
H22 H 1.0941 1.5071 -0.0549
C45 C 1.1709(5) 1.5122(3) -0.0797(3)
C46 C 1.2165(4) 1.4821(3) -0.0934(3)
H23 H 1.2478 1.5005 -0.1046
C47 C 1.2155(4) 1.4248(3) -0.0908(3)
H24 H 1.2475 1.4040 -0.0995
C48 C 1.1722(5) 1.5748(3) -0.0819(4)
O7 O 1.1947(3) 1.5987(2) -0.1102(2)
O8 O 1.1498(4) 1.6031(2) -0.0544(2)
Cu1 Cu 1.16691(4) 1.19250(3) -0.07157(3)
C49 C 1.0000 0.8673(4) 0.2500
C50 C 0.9984(3) 0.8394(3) 0.2101(2)
C51 C 1.0000(4) 0.8666(3) 0.1688(3)
H25 H 0.9957 0.9055 0.1626
C52 C 1.0088(3) 0.8269(3) 0.1409(2)
H26 H 1.0136 0.8324 0.1116
C53 C 1.0098(3) 0.7742(3) 0.1631(2)
C54 C 1.0214(3) 0.7236(3) 0.1446(3)
C55 C 1.0186(3) 0.6729(3) 0.1657(2)
C56 C 1.0232(3) 0.6202(3) 0.1450(3)
H27 H 1.0302 0.6144 0.1163
C57 C 1.0156(4) 0.5803(3) 0.1737(3)
H28 H 1.0164 0.5411 0.1693
C58 C 1.0062(3) 0.6082(3) 0.2118(2)
C59 C 1.0000 0.5792(4) 0.2500
N5 N 1.0030(3) 0.7819(2) 0.20572(18)
N6 N 1.0091(3) 0.6657(2) 0.20701(19)
C60 C 1.0000 0.9303(4) 0.2500
C61 C 0.9476(4) 0.9611(3) 0.2249(3)
H29 H 0.9105 0.9418 0.2076
C62 C 0.9477(4) 1.0178(3) 0.2245(3)
H30 H 0.9110 1.0366 0.2062
C63 C 1.0000 1.0501(3) 0.2500
C64 C 1.0000 1.1089(3) 0.2500
O9 O 1.0490(2) 1.13563(17) 0.27398(17)
C65 C 1.0362(4) 0.7230(3) 0.1007(3)
C66 C 1.0998(4) 0.7220(3) 0.0984(3)
H31 H 1.1348 0.7242 0.1250
C67 C 1.1113(5) 0.7176(3) 0.0554(4)
H32 H 1.1547 0.7187 0.0543
C68 C 1.0641(5) 0.7117(3) 0.0155(3)
C69 C 1.0036(5) 0.7133(4) 0.0207(3)
H33 H 0.9684 0.7105 -0.0057
C70 C 0.9898(4) 0.7186(4) 0.0614(3)
H34 H 0.9460 0.7191 0.0618
C71 C 1.0777(6) 0.7062(4) -0.0262(3)
O10 O 1.0335(5) 0.6873(5) -0.0595(3)
O11 O 1.1305(4) 0.7171(2) -0.0313(3)
C72 C 1.0000 0.5176(4) 0.2500
C73 C 0.9477(3) 0.4883(3) 0.2251(3)
H35 H 0.9111 0.5081 0.2077
C74 C 0.9468(3) 0.4306(3) 0.2247(2)
H36 H 0.9100 0.4113 0.2072
C75 C 1.0000 0.4008(4) 0.2500
C76 C 1.0000 0.3383(4) 0.2500
O12 O 0.9508(2) 0.31367(17) 0.22724(18)
Cu2 Cu 1.0000 0.72357(5) 0.2500
O13 O 1.1847(2) 1.17105(18) 0.31958(16)
C77 C 1.2229(4) 1.1579(4) 0.2972(3)
H37 H 1.2132 1.1719 0.2674
N7 N 1.2734(3) 1.1278(3) 0.3103(3)
C78 C 1.2941(4) 1.1028(4) 0.3546(3)
H38 H 1.2968 1.1315 0.3775
H39 H 1.3365 1.0856 0.3589
H40 H 1.2630 1.0741 0.3573
C79 C 1.3128(5) 1.1144(5) 0.2796(3)
H41 H 1.3142 1.0738 0.2759
H42 H 1.3566 1.1286 0.2923
H43 H 1.2937 1.1318 0.2502
O14 O 1.2706(3) 0.6826(4) -0.0264(2)
H44 H 1.2892 0.7197 -0.0181
H45 H 1.3018 0.6592 -0.0357
O15 O 1.0679(3) 0.6748(3) -0.1339(2)
H46 H 1.0386 0.6722 -0.1148
H47 H 1.0670 0.6396 -0.1501
Dy1B Dy 0.913580(16) 1.224990(13) 0.199440(11)
Dy1F Dy 1.086420(16) 0.775010(13) -0.199440(11)
Dy1E Dy 1.413580(16) 1.275010(13) -0.300560(11)
Dy1B_2 Dy 0.913580(16) 0.224990(13) 0.199440(11)
Dy1_2 Dy 1.086420(16) 0.224990(13) 0.300560(11)
Dy1D Dy 0.913580(16) 0.775010(13) 0.699440(11)
Dy1G Dy 0.586420(16) 1.275010(13) 0.800560(11)
Dy2B Dy 0.824580(18) 0.691220(13) 0.587260(12)
Dy2C Dy 1.324580(18) 1.191220(13) -0.412740(12)
Dy2_2 Dy 1.175420(18) 1.691220(13) -0.087260(12)
Dy2A Dy 0.675420(18) 1.191220(13) 0.912740(12)
Dy2B_2 Dy 0.824580(18) 1.691220(13) 0.587260(12)
C1B C 0.8238(3) 1.3069(3) 0.5328(2)
C2B C 0.8144(3) 1.3354(3) 0.4908(2)
H1B H 0.8038 1.3736 0.4850
C3B C 0.8237(3) 1.2969(3) 0.4608(2)
H2B H 0.8222 1.3034 0.4302
C4B C 0.8363(3) 1.2445(3) 0.4843(2)
C5B C 0.8574(3) 1.1964(3) 0.4670(2)
C6B C 0.8671(3) 1.1467(3) 0.4914(2)
C7B C 0.8857(4) 1.0956(3) 0.4739(3)
H3B H 0.8989 1.0917 0.4472
C8B C 0.8807(4) 1.0543(3) 0.5023(3)
H4B H 0.8907 1.0160 0.5000
C9B C 0.8573(3) 1.0800(3) 0.5371(2)
C10B C 0.8384(3) 1.0516(3) 0.5705(2)
C11B C 0.8168(3) 1.0780(3) 0.6034(2)
C12B C 0.7940(3) 1.0483(3) 0.6367(2)
H5B H 0.7878 1.0092 0.6384
C13B C 0.7838(3) 1.0872(3) 0.6645(2)
H6B H 0.7680 1.0809 0.6898
C14B C 0.8004(3) 1.1400(3) 0.6500(2)
C15B C 0.8065(3) 1.1890(3) 0.6749(2)
C16B C 0.8276(3) 1.2390(3) 0.6598(2)
C17B C 0.8403(3) 1.2890(3) 0.6853(2)
H7B H 0.8420 1.2930 0.7161
C18B C 0.8497(3) 1.3298(3) 0.6578(2)
H8B H 0.8611 1.3674 0.6657
C19B C 0.8391(3) 1.3049(3) 0.6142(2)
C20B C 0.8310(3) 1.3331(3) 0.5740(3)
N1B N 0.8328(2) 1.2502(2) 0.52807(18)
N2B N 0.8511(3) 1.1377(2) 0.53050(18)
N3B N 0.8183(3) 1.1339(2) 0.61071(19)
N4B N 0.8310(2) 1.2475(2) 0.61724(18)
C21B C 0.8731(4) 1.1999(3) 0.4235(2)
C22B C 0.8263(3) 1.2031(3) 0.3838(3)
H9B H 0.7824 1.2018 0.3836
C23B C 0.8420(3) 1.2082(3) 0.3436(2)
H10B H 0.8088 1.2098 0.3160
C24B C 0.9065(3) 1.2109(2) 0.3434(2)
C25B C 0.9539(4) 1.2064(3) 0.3841(3)
H11B H 0.9980 1.2071 0.3844
C26B C 0.9383(3) 1.2008(3) 0.4238(3)
H12B H 0.9712 1.1975 0.4514
C27B C 0.9234(4) 1.2186(3) 0.3003(2)
O1B O 0.8787(2) 1.22042(18) 0.26423(16)
O2B O 0.9825(2) 1.22300(18) 0.30117(16)
C28B C 0.8409(4) 0.9894(3) 0.5713(2)
C29B C 0.8971(4) 0.9628(3) 0.5981(3)
H13B H 0.9351 0.9837 0.6113
C30B C 0.8954(4) 0.9044(3) 0.6047(3)
H14B H 0.9323 0.8861 0.6232
C31B C 0.8397(3) 0.8732(3) 0.5843(2)
C32B C 0.7881(4) 0.9007(3) 0.5574(2)
H15B H 0.7510 0.8797 0.5424
C33B C 0.7871(4) 0.9579(3) 0.5509(2)
H16B H 0.7495 0.9754 0.5325
C34B C 0.8376(4) 0.8128(3) 0.5926(3)
O3B O 0.7893(3) 0.78551(19) 0.57239(18)
O4B O 0.8853(2) 0.79007(18) 0.62082(17)
O4F O 1.1147(2) 1.20993(18) 0.37918(17)
O4D O 0.8853(2) 1.20993(18) 0.12082(17)
C35B C 0.7888(3) 1.1872(3) 0.7183(2)
C36B C 0.7246(3) 1.1780(3) 0.7174(2)
H17B H 0.6933 1.1705 0.6896
C37B C 0.7067(3) 1.1800(2) 0.7566(2)
H18B H 0.6629 1.1733 0.7554
C38B C 0.7501(3) 1.1913(3) 0.7974(2)
C39B C 0.8150(3) 1.1973(3) 0.7989(2)
H19B H 0.8465 1.2020 0.8270
C40B C 0.8335(3) 1.1962(3) 0.7592(2)
H20B H 0.8775 1.2018 0.7604
C41B C 0.7300(4) 1.1985(3) 0.8384(3)
O5B O 0.6688(2) 1.20828(17) 0.83337(14)
O5E O 1.1688(2) 1.29172(17) 0.33337(14)
O5C O 1.1688(2) 0.70828(17) -0.16663(14)
O5G O 0.8312(2) 1.29172(17) 0.16663(14)
O5A O 0.8312(2) 0.70828(17) 0.66663(14)
O6B O 0.7676(2) 1.19606(18) 0.87664(15)
O6C O 1.2676(2) 0.69606(18) -0.12336(15)
O6A O 0.7324(2) 0.69606(18) 0.62336(15)
C42B C 0.8308(3) 1.3964(3) 0.5758(3)
C43B C 0.8760(4) 1.4272(3) 0.5620(3)
H21B H 0.9076 1.4089 0.5510
C44B C 0.8749(5) 1.4858(3) 0.5642(3)
H22B H 0.9059 1.5071 0.5549
C45B C 0.8291(5) 1.5122(3) 0.5797(3)
C46B C 0.7835(4) 1.4821(3) 0.5934(3)
H23B H 0.7522 1.5005 0.6046
C47B C 0.7845(4) 1.4248(3) 0.5908(3)
H24B H 0.7525 1.4040 0.5995
C48B C 0.8278(5) 1.5748(3) 0.5819(4)
O7B O 0.8053(3) 1.5987(2) 0.6102(2)
O7_2 O 1.1947(3) 0.5987(2) -0.1102(2)
O7B_2 O 0.8053(3) 0.5987(2) 0.6102(2)
O8B O 0.8502(4) 1.6031(2) 0.5544(2)
O8_2 O 1.1498(4) 0.6031(2) -0.0544(2)
O8B_2 O 0.8502(4) 0.6031(2) 0.5544(2)
Cu1B Cu 0.83309(4) 1.19250(3) 0.57157(3)
C50B C 1.0016(3) 0.8394(3) 0.2899(2)
C51B C 1.0000(4) 0.8666(3) 0.3312(3)
H25B H 1.0043 0.9055 0.3374
C52B C 0.9912(3) 0.8269(3) 0.3591(2)
H26B H 0.9864 0.8324 0.3884
C53B C 0.9902(3) 0.7742(3) 0.3369(2)
C54B C 0.9786(3) 0.7236(3) 0.3554(3)
C55B C 0.9814(3) 0.6729(3) 0.3343(2)
C56B C 0.9768(3) 0.6202(3) 0.3550(3)
H27B H 0.9698 0.6144 0.3837
C57B C 0.9844(4) 0.5803(3) 0.3263(3)
H28B H 0.9836 0.5411 0.3307
C58B C 0.9938(3) 0.6082(3) 0.2882(2)
N5B N 0.9970(3) 0.7819(2) 0.29428(18)
N6B N 0.9909(3) 0.6657(2) 0.29299(19)
C61B C 1.0524(4) 0.9611(3) 0.2751(3)
H29B H 1.0895 0.9418 0.2924
C62B C 1.0523(4) 1.0178(3) 0.2755(3)
H30B H 1.0890 1.0366 0.2938
O9B O 0.9510(2) 1.13563(17) 0.22602(17)
C65B C 0.9638(4) 0.7230(3) 0.3993(3)
C66B C 0.9002(4) 0.7220(3) 0.4016(3)
H31B H 0.8652 0.7242 0.3750
C67B C 0.8887(5) 0.7176(3) 0.4446(4)
H32B H 0.8453 0.7187 0.4457
C68B C 0.9359(5) 0.7117(3) 0.4845(3)
C69B C 0.9964(5) 0.7133(4) 0.4793(3)
H33B H 1.0316 0.7105 0.5057
C70B C 1.0102(4) 0.7186(4) 0.4386(3)
H34B H 1.0540 0.7191 0.4382
C71B C 0.9223(6) 0.7062(4) 0.5262(3)
O10B O 0.9665(5) 0.6873(5) 0.5595(3)
O11B O 0.8695(4) 0.7171(2) 0.5313(3)
C73B C 1.0523(3) 0.4883(3) 0.2749(3)
H35B H 1.0889 0.5081 0.2923
C74B C 1.0532(3) 0.4306(3) 0.2753(2)
H36B H 1.0900 0.4113 0.2928
O12B O 1.0492(2) 0.31367(17) 0.27276(18)
O12B_2 O 1.0492(2) 1.31367(17) 0.27276(18)
O12_2 O 0.9508(2) 1.31367(17) 0.22724(18)
O13B O 0.8153(2) 1.17105(18) 0.18042(16)
C77B C 0.7771(4) 1.1579(4) 0.2028(3)
H37B H 0.7868 1.1719 0.2326
N7B N 0.7266(3) 1.1278(3) 0.1897(3)
C78B C 0.7059(4) 1.1028(4) 0.1454(3)
H38B H 0.7032 1.1315 0.1225
H39B H 0.6635 1.0856 0.1411
H40B H 0.7370 1.0741 0.1427
C79B C 0.6872(5) 1.1144(5) 0.2204(3)
H41B H 0.6858 1.0738 0.2241
H42B H 0.6434 1.1286 0.2077
H43B H 0.7063 1.1318 0.2498
O14B O 0.7294(3) 0.6826(4) 0.5264(2)
H44B H 0.7108 0.7197 0.5181
H45B H 0.6982 0.6592 0.5357
O15B O 0.9321(3) 0.6748(3) 0.6339(2)
H46B H 0.9614 0.6722 0.6148
H47B H 0.9330 0.6396 0.6501
loop_
_geom_bond_atom_site_label_1
_geom_bond_atom_site_label_2
_geom_bond_site_symmetry_1
_geom_bond_site_symmetry_2
Dy1 O1 1_555 1_555
Dy2 O3 1_555 1_555
C1 C2 1_555 1_555
C2 H1 1_555 1_555
C3 C2 1_555 1_555
H2 C3 1_555 1_555
C4 C3 1_555 1_555
C5 C4 1_555 1_555
C6 C5 1_555 1_555
C7 C6 1_555 1_555
H3 C7 1_555 1_555
C8 C7 1_555 1_555
H4 C8 1_555 1_555
C9 C8 1_555 1_555
C10 C9 1_555 1_555
C11 C10 1_555 1_555
C12 C11 1_555 1_555
H5 C12 1_555 1_555
C13 C12 1_555 1_555
H6 C13 1_555 1_555
C14 C13 1_555 1_555
C15 C14 1_555 1_555
C16 C15 1_555 1_555
C17 C16 1_555 1_555
H7 C17 1_555 1_555
C18 C17 1_555 1_555
H8 C18 1_555 1_555
C19 C18 1_555 1_555
C20 C1 1_555 1_555
N1 C1 1_555 1_555
N2 C6 1_555 1_555
N3 C11 1_555 1_555
N4 C16 1_555 1_555
C21 C5 1_555 1_555
C22 C21 1_555 1_555
H9 C22 1_555 1_555
C23 C22 1_555 1_555
H10 C23 1_555 1_555
C24 C23 1_555 1_555
C25 C24 1_555 1_555
H11 C25 1_555 1_555
C26 C21 1_555 1_555
H12 C26 1_555 1_555
C27 C24 1_555 1_555
O1 C27 1_555 1_555
O2 C27 1_555 1_555
C28 C10 1_555 1_555
C29 C28 1_555 1_555
H13 C29 1_555 1_555
C30 C29 1_555 1_555
H14 C30 1_555 1_555
C31 C30 1_555 1_555
C32 C31 1_555 1_555
H15 C32 1_555 1_555
C33 C28 1_555 1_555
H16 C33 1_555 1_555
C34 C31 1_555 1_555
O3 C34 1_555 1_555
O4 C34 1_555 1_555
C35 C15 1_555 1_555
C36 C35 1_555 1_555
H17 C36 1_555 1_555
C37 C36 1_555 1_555
H18 C37 1_555 1_555
C38 C37 1_555 1_555
C39 C38 1_555 1_555
H19 C39 1_555 1_555
C40 C35 1_555 1_555
H20 C40 1_555 1_555
C41 C38 1_555 1_555
O5 C41 1_555 1_555
O6 C41 1_555 1_555
C42 C20 1_555 1_555
C43 C42 1_555 1_555
H21 C43 1_555 1_555
C44 C43 1_555 1_555
H22 C44 1_555 1_555
C45 C44 1_555 1_555
C46 C45 1_555 1_555
H23 C46 1_555 1_555
C47 C42 1_555 1_555
H24 C47 1_555 1_555
C48 C45 1_555 1_555
O7 C48 1_555 1_555
O8 C48 1_555 1_555
Cu1 N1 1_555 1_555
C49 C50 1_555 1_555
C50 C51 1_555 1_555
C51 H25 1_555 1_555
C52 C51 1_555 1_555
H26 C52 1_555 1_555
C53 C52 1_555 1_555
C54 C53 1_555 1_555
C55 C54 1_555 1_555
C56 C55 1_555 1_555
H27 C56 1_555 1_555
C57 C56 1_555 1_555
H28 C57 1_555 1_555
C58 C57 1_555 1_555
C59 C58 1_555 1_555
N5 C50 1_555 1_555
N6 C55 1_555 1_555
C60 C49 1_555 1_555
C61 C60 1_555 1_555
H29 C61 1_555 1_555
C62 C61 1_555 1_555
H30 C62 1_555 1_555
C63 C62 1_555 1_555
C64 C63 1_555 1_555
O9 Dy1 1_555 1_555
C65 C54 1_555 1_555
C66 C65 1_555 1_555
H31 C66 1_555 1_555
C67 C66 1_555 1_555
H32 C67 1_555 1_555
C68 C67 1_555 1_555
C69 C68 1_555 1_555
H33 C69 1_555 1_555
C70 C65 1_555 1_555
H34 C70 1_555 1_555
C71 C68 1_555 1_555
O10 C71 1_555 1_555
O11 Dy2 1_555 1_555
C72 C59 1_555 1_555
C73 C72 1_555 1_555
H35 C73 1_555 1_555
C74 C73 1_555 1_555
H36 C74 1_555 1_555
C75 C74 1_555 1_555
C76 C75 1_555 1_555
O12 C76 1_555 1_555
Cu2 N5 1_555 1_555
O13 Dy1 1_555 1_555
C77 O13 1_555 1_555
H37 C77 1_555 1_555
N7 C77 1_555 1_555
C78 N7 1_555 1_555
H38 C78 1_555 1_555
H39 C78 1_555 1_555
H40 C78 1_555 1_555
C79 N7 1_555 1_555
H41 C79 1_555 1_555
H42 C79 1_555 1_555
H43 C79 1_555 1_555
O14 Dy2 1_555 1_555
H44 O14 1_555 1_555
H45 O14 1_555 1_555
O15 Dy2 1_555 1_555
H46 O15 1_555 1_555
H47 O15 1_555 1_555
Dy1B O2 1_555 1_555
Dy1F O4 1_555 1_555
Dy1E O5 1_555 1_555
Dy1B_2 O12 1_555 1_555
Dy1_2 O12B 1_555 1_555
Dy1D O4B 1_555 1_555
Dy1G O5B 1_555 1_555
Dy2B O3B 1_555 1_555
Dy2C O5 1_555 1_555
Dy2_2 O7 1_555 1_555
Dy2A O5B 1_555 1_555
Dy2B_2 O7B 1_555 1_555
C1B C2B 1_555 1_555
C2B H1B 1_555 1_555
C3B C2B 1_555 1_555
H2B C3B 1_555 1_555
C4B C3B 1_555 1_555
C5B C4B 1_555 1_555
C6B C5B 1_555 1_555
C7B C6B 1_555 1_555
H3B C7B 1_555 1_555
C8B C7B 1_555 1_555
H4B C8B 1_555 1_555
C9B C8B 1_555 1_555
C10B C9B 1_555 1_555
C11B C10B 1_555 1_555
C12B C11B 1_555 1_555
H5B C12B 1_555 1_555
C13B C12B 1_555 1_555
H6B C13B 1_555 1_555
C14B C13B 1_555 1_555
C15B C14B 1_555 1_555
C16B C15B 1_555 1_555
C17B C16B 1_555 1_555
H7B C17B 1_555 1_555
C18B C17B 1_555 1_555
H8B C18B 1_555 1_555
C19B C18B 1_555 1_555
C20B C1B 1_555 1_555
N1B C1B 1_555 1_555
N2B C6B 1_555 1_555
N3B C11B 1_555 1_555
N4B C16B 1_555 1_555
C21B C5B 1_555 1_555
C22B C21B 1_555 1_555
H9B C22B 1_555 1_555
C23B C22B 1_555 1_555
H10B C23B 1_555 1_555
C24B C23B 1_555 1_555
C25B C24B 1_555 1_555
H11B C25B 1_555 1_555
C26B C21B 1_555 1_555
H12B C26B 1_555 1_555
C27B C24B 1_555 1_555
O1B Dy1B 1_555 1_555
O2B Dy1 1_555 1_555
C28B C10B 1_555 1_555
C29B C28B 1_555 1_555
H13B C29B 1_555 1_555
C30B C29B 1_555 1_555
H14B C30B 1_555 1_555
C31B C30B 1_555 1_555
C32B C31B 1_555 1_555
H15B C32B 1_555 1_555
C33B C28B 1_555 1_555
H16B C33B 1_555 1_555
C34B C31B 1_555 1_555
O3B C34B 1_555 1_555
O4B C34B 1_555 1_555
O4F Dy1 1_555 1_555
O4D Dy1B 1_555 1_555
C35B C15B 1_555 1_555
C36B C35B 1_555 1_555
H17B C36B 1_555 1_555
C37B C36B 1_555 1_555
H18B C37B 1_555 1_555
C38B C37B 1_555 1_555
C39B C38B 1_555 1_555
H19B C39B 1_555 1_555
C40B C35B 1_555 1_555
H20B C40B 1_555 1_555
C41B C38B 1_555 1_555
O5B C41B 1_555 1_555
O5E Dy1 1_555 1_555
O5C Dy2 1_555 1_555
O5G Dy1B 1_555 1_555
O5A Dy1D 1_555 1_555
O6B Dy2A 1_555 1_555
O6C Dy2 1_555 1_555
O6A Dy2B 1_555 1_555
C42B C20B 1_555 1_555
C43B C42B 1_555 1_555
H21B C43B 1_555 1_555
C44B C43B 1_555 1_555
H22B C44B 1_555 1_555
C45B C44B 1_555 1_555
C46B C45B 1_555 1_555
H23B C46B 1_555 1_555
C47B C42B 1_555 1_555
H24B C47B 1_555 1_555
C48B C45B 1_555 1_555
O7B C48B 1_555 1_555
O7_2 Dy2 1_555 1_555
O7B_2 Dy2B 1_555 1_555
O8B Dy2B_2 1_555 1_555
O8_2 Dy2 1_555 1_555
O8B_2 Dy2B 1_555 1_555
Cu1B N1B 1_555 1_555
C50B C49 1_555 1_555
C51B C50B 1_555 1_555
H25B C51B 1_555 1_555
C52B C51B 1_555 1_555
H26B C52B 1_555 1_555
C53B C52B 1_555 1_555
C54B C53B 1_555 1_555
C55B C54B 1_555 1_555
C56B C55B 1_555 1_555
H27B C56B 1_555 1_555
C57B C56B 1_555 1_555
H28B C57B 1_555 1_555
C58B C59 1_555 1_555
N5B Cu2 1_555 1_555
N6B Cu2 1_555 1_555
C61B C60 1_555 1_555
H29B C61B 1_555 1_555
C62B C63 1_555 1_555
H30B C62B 1_555 1_555
O9B C64 1_555 1_555
C65B C54B 1_555 1_555
C66B C65B 1_555 1_555
H31B C66B 1_555 1_555
C67B C66B 1_555 1_555
H32B C67B 1_555 1_555
C68B C67B 1_555 1_555
C69B C68B 1_555 1_555
H33B C69B 1_555 1_555
C70B C65B 1_555 1_555
H34B C70B 1_555 1_555
C71B C68B 1_555 1_555
O10B C71B 1_555 1_555
O11B Dy2B 1_555 1_555
C73B C72 1_555 1_555
H35B C73B 1_555 1_555
C74B C75 1_555 1_555
H36B C74B 1_555 1_555
O12B C76 1_555 1_555
O12B_2 Dy1 1_555 1_555
O12_2 Dy1B 1_555 1_555
O13B Dy1B 1_555 1_555
C77B O13B 1_555 1_555
H37B C77B 1_555 1_555
N7B C77B 1_555 1_555
C78B N7B 1_555 1_555
H38B C78B 1_555 1_555
H39B C78B 1_555 1_555
H40B C78B 1_555 1_555
C79B N7B 1_555 1_555
H41B C79B 1_555 1_555
H42B C79B 1_555 1_555
H43B C79B 1_555 1_555
O14B Dy2B 1_555 1_555
H44B O14B 1_555 1_555
H45B O14B 1_555 1_555
O15B Dy2B 1_555 1_555
H46B O15B 1_555 1_555
H47B O15B 1_555 1_555
C4 N1 1_555 1_555
C9 N2 1_555 1_555
C14 N3 1_555 1_555
C19 C20 1_555 1_555
C19 N4 1_555 1_555
N2 Cu1 1_555 1_555
N3 Cu1 1_555 1_555
N4 Cu1 1_555 1_555
C25 C26 1_555 1_555
C32 C33 1_555 1_555
C39 C40 1_555 1_555
O6 Dy2C 1_555 1_555
C46 C47 1_555 1_555
O8 Dy2_2 1_555 1_555
C53 N5 1_555 1_555
C58 N6 1_555 1_555
N6 Cu2 1_555 1_555
C64 O9 1_555 1_555
C69 C70 1_555 1_555
C71 O11 1_555 1_555
Dy1B O9B 1_555 1_555
Dy1F O5C 1_555 1_555
Dy2B O5A 1_555 1_555
C4B N1B 1_555 1_555
C9B N2B 1_555 1_555
C14B N3B 1_555 1_555
C19B C20B 1_555 1_555
C19B N4B 1_555 1_555
N2B Cu1B 1_555 1_555
N3B Cu1B 1_555 1_555
N4B Cu1B 1_555 1_555
C25B C26B 1_555 1_555
C27B O1B 1_555 1_555
C27B O2B 1_555 1_555
C32B C33B 1_555 1_555
C39B C40B 1_555 1_555
C41B O6B 1_555 1_555
C46B C47B 1_555 1_555
C48B O8B 1_555 1_555
C50B N5B 1_555 1_555
C53B N5B 1_555 1_555
C55B N6B 1_555 1_555
C57B C58B 1_555 1_555
C58B N6B 1_555 1_555
C61B C62B 1_555 1_555
C69B C70B 1_555 1_555
C71B O11B 1_555 1_555
C73B C74B 1_555 1_555

#END
