
#######################################################################
#
#                 Cambridge Crystallographic Data Centre
#                                CCDC 
#
#######################################################################
#
# If this CIF has been generated from an entry in the Cambridge 
# Structural Database, then it will include bibliographic, chemical, 
# crystal, experimental, refinement or atomic coordinate data resulting 
# from the CCDC's data processing and validation procedures.
#
#######################################################################

data_NIKYOW
_symmetry_cell_setting           monoclinic
_symmetry_space_group_name_H-M   'P 21/c'
_symmetry_Int_Tables_number      14
_space_group_name_Hall           '-P 2ybc'
loop_
_symmetry_equiv_pos_site_id
_symmetry_equiv_pos_as_xyz
1 x,y,z
2 -x,1/2+y,1/2-z
3 -x,-y,-z
4 x,1/2-y,1/2+z
_cell_length_a                   11.3369(2)
_cell_length_b                   9.8474(2)
_cell_length_c                   18.1884(5)
_cell_angle_alpha                90
_cell_angle_beta                 127.4070(10)
_cell_angle_gamma                90
_cell_volume                     1612.94
loop_
_atom_site_label
_atom_site_type_symbol
_atom_site_fract_x
_atom_site_fract_y
_atom_site_fract_z
Fe1 Fe 0.37706(4) 0.08218(4) 0.13235(3)
Fe2 Fe 0.42441(4) 0.10393(4) -0.31464(3)
Fe3 Fe 0.5000 0.0000 0.0000
Fe4 Fe 0.0000 0.0000 0.0000
O1 O 0.4369(2) 0.20475(17) 0.24629(13)
O2 O 0.5594(2) 0.07131(18) 0.37206(13)
O3 O 0.5950(2) 0.00045(17) 0.22092(13)
O4 O 0.6885(2) 0.0089(2) 0.14267(14)
O5 O 0.4534(2) 0.26191(18) 0.10505(13)
O6 O 0.4719(2) 0.20950(19) -0.00727(13)
O7 O 0.3466(2) -0.07955(17) 0.19885(13)
O8 O 0.1031(2) -0.09391(19) 0.12899(14)
O9 O 0.3360(2) -0.03007(18) 0.02310(13)
O10 O 0.1147(2) -0.12115(19) -0.03414(14)
O11 O 0.1610(2) 0.16170(18) 0.05688(13)
O12 O 0.1963(2) 0.38567(18) 0.08538(14)
C1 C 0.5024(3) 0.1803(3) 0.3320(2)
H1 H 0.5077 0.2528 0.3684
C2 C 0.7003(3) -0.0054(3) 0.2145(2)
H2 H 0.7970 -0.0222 0.2699
C3 C 0.4681(3) 0.2915(3) 0.0429(2)
H3 H 0.4769 0.3850 0.0341
C4 C 0.2333(3) -0.1190(3) 0.1928(2)
H4 H 0.2517 -0.1725 0.2422
C5 C 0.2267(3) -0.1115(3) -0.0295(2)
H5 H 0.2335 -0.1697 -0.0685
C6 C 0.1162(3) 0.2852(3) 0.0431(2)
H6 H 0.0133 0.3013 -0.0033
Fe1B Fe 0.62294(4) -0.08218(4) -0.13235(3)
Fe1B_2 Fe -0.37706(4) -0.08218(4) -0.13235(3)
Fe1A Fe 0.62294(4) 0.58218(4) 0.36765(3)
Fe2B Fe 0.57559(4) -0.10393(4) 0.31464(3)
Fe2C Fe 0.42441(4) 0.39607(4) 0.18536(3)
Fe2A Fe 0.57559(4) -0.39607(4) -0.18536(3)
Fe2A_2 Fe -0.42441(4) -0.39607(4) -0.18536(3)
Fe2B_2 Fe 0.57559(4) 0.89607(4) 0.31464(3)
Fe3C Fe 0.5000 0.5000 0.5000
Fe4_2 Fe 1.0000 0.0000 0.0000
O1B O 0.5631(2) -0.20475(17) -0.24629(13)
O1C O 0.4369(2) 0.29525(17) -0.25371(13)
O1A O 0.5631(2) 0.70475(17) 0.25371(13)
O2B O 0.4406(2) -0.07131(18) -0.37206(13)
O2A O 0.4406(2) 0.57131(18) 0.12794(13)
O3B O 0.4050(2) -0.00045(17) -0.22092(13)
O3A O 0.4050(2) 0.50045(17) 0.27908(13)
O4B O 0.3115(2) -0.0089(2) -0.14267(14)
O4A O 0.3115(2) 0.5089(2) 0.35733(14)
O5B O 0.5466(2) -0.26191(18) -0.10505(13)
O5C O 0.4534(2) 0.23809(18) -0.39495(13)
O6B O 0.5281(2) -0.20950(19) 0.00727(13)
O7B O 0.6534(2) 0.07955(17) -0.19885(13)
O7A O 0.6534(2) 0.42045(17) 0.30115(13)
O8B O -0.1031(2) 0.09391(19) -0.12899(14)
O9B O 0.6640(2) 0.03007(18) -0.02310(13)
O10B O 0.8853(2) 0.12115(19) 0.03414(14)
O10B_2 O -0.1147(2) 0.12115(19) 0.03414(14)
O11B O -0.1610(2) -0.16170(18) -0.05688(13)
O11B_2 O 0.8390(2) -0.16170(18) -0.05688(13)
O12C O 0.1963(2) 0.11433(18) -0.41462(14)
O12B O -0.1963(2) -0.38567(18) -0.08538(14)
C1A C 0.4976(3) 0.6803(3) 0.1680(2)
H1A H 0.4923 0.7528 0.1316
C2B C 0.2997(3) 0.0054(3) -0.2145(2)
C2A C 0.2997(3) 0.4946(3) 0.2855(2)
H2B H 0.2030 0.0222 -0.2699
H2A H 0.2030 0.4778 0.2301
C3B C 0.5319(3) -0.2915(3) -0.0429(2)
H3B H 0.5231 -0.3850 -0.0341
C5B C 0.7733(3) 0.1115(3) 0.0295(2)
H5B H 0.7665 0.1697 0.0685
C6B C -0.1162(3) -0.2852(3) -0.0431(2)
H6B H -0.0133 -0.3013 0.0033
C7 C 0.1589(6) 0.5221(5) -0.1033(4)
O13 O 0.2113(6) 0.5764(5) -0.1364(3)
O14 O 0.125(6) 0.329(6) -0.229(4)
C8? C 0.0856(7) 0.3292(6) -0.2008(4)
O15? O 0.0956(4) 0.4002(3) -0.1278(2)
O16? O 0.167(5) 0.559(4) -0.046(3)
O17? O 0.240(5) 0.553(4) -0.095(3)
loop_
_geom_bond_atom_site_label_1
_geom_bond_atom_site_label_2
_geom_bond_site_symmetry_1
_geom_bond_site_symmetry_2
Fe1 O1 1_555 1_555
Fe2 O1C 1_555 1_555
Fe3 O4 1_555 1_555
Fe4 O8 1_555 1_555
O1 C1 1_555 1_555
O2 C1 1_555 1_555
O3 Fe1 1_555 1_555
O4 C2 1_555 1_555
O5 Fe1 1_555 1_555
O6 Fe3 1_555 1_555
O7 Fe1 1_555 1_555
O8 C4 1_555 1_555
O9 Fe1 1_555 1_555
O10 Fe4 1_555 1_555
O11 Fe1 1_555 1_555
O12 C6 1_555 1_555
C1 H1 1_555 1_555
C2 O3 1_555 1_555
H2 C2 1_555 1_555
C3 O5 1_555 1_555
H3 C3 1_555 1_555
C4 O7 1_555 1_555
H4 C4 1_555 1_555
C5 O9 1_555 1_555
H5 C5 1_555 1_555
C6 O11 1_555 1_555
H6 C6 1_555 1_555
C7 O13 1_555 1_555
Fe1B O1B 1_555 1_555
Fe1B_2 O11B 1_555 1_555
Fe1A O1A 1_555 1_555
Fe2B O2 1_555 1_555
Fe2C O1 1_555 1_555
Fe2A O1B 1_555 1_555
Fe2A_2 O12B 1_555 1_555
Fe2B_2 O1A 1_555 1_555
Fe3C O4A 1_555 1_555
Fe4_2 O10B 1_555 1_555
O1A C1A 1_555 1_555
O2B Fe2 1_555 1_555
O2A Fe2C 1_555 1_555
O3B Fe2 1_555 1_555
O3A Fe1A 1_555 1_555
O4B Fe3 1_555 1_555
O4A C2A 1_555 1_555
O5B Fe1B 1_555 1_555
O5C Fe2 1_555 1_555
O6B Fe3 1_555 1_555
O7B Fe2 1_555 1_555
O7A Fe1A 1_555 1_555
O8B Fe4 1_555 1_555
O9B Fe3 1_555 1_555
O10B C5B 1_555 1_555
O10B_2 Fe4 1_555 1_555
O11B Fe4 1_555 1_555
O11B_2 Fe1B 1_555 1_555
O12C Fe2 1_555 1_555
O12B C6B 1_555 1_555
C1A O2A 1_555 1_555
H1A C1A 1_555 1_555
C2B O3B 1_555 1_555
C2A O3A 1_555 1_555
H2B C2B 1_555 1_555
H2A C2A 1_555 1_555
C3B O5B 1_555 1_555
H3B C3B 1_555 1_555
C5B O9B 1_555 1_555
H5B C5B 1_555 1_555
C6B O11B 1_555 1_555
H6B C6B 1_555 1_555
Fe3 O9 1_555 1_555
Fe4 O11 1_555 1_555
O3 Fe2B 1_555 1_555
O5 Fe2C 1_555 1_555
O6 C3 1_555 1_555
O7 Fe2B 1_555 1_555
O10 C5 1_555 1_555
O12 Fe2C 1_555 1_555
Fe1B O3B 1_555 1_555
Fe1B O7B 1_555 1_555
Fe1B O9B 1_555 1_555
Fe2C O3A 1_555 1_555
Fe2C O7A 1_555 1_555
Fe2A O5B 1_555 1_555
Fe4_2 O11B_2 1_555 1_555
O4B C2B 1_555 1_555
O6B C3B 1_555 1_555

#END
