
#######################################################################
#
#                 Cambridge Crystallographic Data Centre
#                                CCDC 
#
#######################################################################
#
# If this CIF has been generated from an entry in the Cambridge 
# Structural Database, then it will include bibliographic, chemical, 
# crystal, experimental, refinement or atomic coordinate data resulting 
# from the CCDC's data processing and validation procedures.
#
#######################################################################

data_NIKYUC02
_symmetry_cell_setting           monoclinic
_symmetry_space_group_name_H-M   'P 21/c'
_symmetry_Int_Tables_number      14
_space_group_name_Hall           '-P 2ybc'
loop_
_symmetry_equiv_pos_site_id
_symmetry_equiv_pos_as_xyz
1 x,y,z
2 -x,1/2+y,1/2-z
3 -x,-y,-z
4 x,1/2-y,1/2+z
_cell_length_a                   11.5200(2)
_cell_length_b                   10.0853(2)
_cell_length_c                   18.6462(4)
_cell_angle_alpha                90
_cell_angle_beta                 126.6760(10)
_cell_angle_gamma                90
_cell_volume                     1737.48
loop_
_atom_site_label
_atom_site_type_symbol
_atom_site_fract_x
_atom_site_fract_y
_atom_site_fract_z
Fe1 Fe -0.62222(3) 0.07209(3) 0.133610(19)
Fe2 Fe -0.56544(3) 0.12200(3) -0.305840(19)
Fe3 Fe -0.5000 0.0000 0.0000
Fe4 Fe -1.0000 0.0000 0.0000
O1 O -0.55152(16) 0.18812(15) 0.25048(9)
O2 O -0.43935(19) 0.04876(16) 0.36626(10)
O3 O -0.41574(16) -0.02030(15) 0.21329(10)
O4 O -0.32426(18) -0.01856(19) 0.13660(11)
O5 O -0.54161(16) 0.24946(15) 0.11240(9)
O6 O -0.50149(19) 0.20617(17) 0.01128(11)
O7 O -0.65744(16) -0.08968(15) 0.19355(10)
O8 O -0.89563(18) -0.11856(18) 0.11594(11)
O9 O -0.66618(16) -0.02478(16) 0.02095(10)
O10 O -0.89025(18) -0.09854(17) -0.04217(12)
O11 O -0.83294(15) 0.14972(15) 0.06733(10)
O12 O -0.78958(17) 0.36371(16) 0.10522(11)
C1 C -0.4868(3) 0.1589(2) 0.33234(15)
C2 C -0.3157(3) -0.0369(3) 0.20475(16)
C3 C -0.5122(3) 0.2815(2) 0.05925(16)
C4 C -0.7700(3) -0.1431(3) 0.17811(16)
C5 C -0.7786(3) -0.0916(3) -0.03604(16)
C6 C -0.8705(3) 0.2690(2) 0.06394(16)
H1 H -0.474(2) 0.228(2) 0.3716(14)
H2 H -0.215(3) -0.061(3) 0.2588(18)
H3 H -0.504(3) 0.377(3) 0.0550(17)
H4 H -0.755(2) -0.218(2) 0.2152(14)
H5 H -0.774(3) -0.138(3) -0.0759(19)
H6 H -0.968(3) 0.285(2) 0.0275(16)
Fe1B Fe -0.37778(3) -0.07209(3) -0.133610(19)
Fe1B_2 Fe -1.37778(3) -0.07209(3) -0.133610(19)
Fe1A Fe -0.37778(3) 0.57209(3) 0.366390(19)
Fe2B Fe -0.43456(3) -0.12200(3) 0.305840(19)
Fe2C Fe -0.56544(3) 0.37800(3) 0.194160(19)
Fe2A Fe -0.43456(3) -0.37800(3) -0.194160(19)
Fe2A_2 Fe -1.43456(3) -0.37800(3) -0.194160(19)
Fe2B_2 Fe -0.43456(3) 0.87800(3) 0.305840(19)
Fe3C Fe -0.5000 0.5000 0.5000
Fe4_2 Fe 0.0000 0.0000 0.0000
O1B O -0.44848(16) -0.18812(15) -0.25048(9)
O1C O -0.55152(16) 0.31188(15) -0.24952(9)
O1A O -0.44848(16) 0.68812(15) 0.24952(9)
O2B O -0.56065(19) -0.04876(16) -0.36626(10)
O2A O -0.56065(19) 0.54876(16) 0.13374(10)
O3B O -0.58426(16) 0.02030(15) -0.21329(10)
O3A O -0.58426(16) 0.47970(15) 0.28671(10)
O4B O -0.67574(18) 0.01856(19) -0.13660(11)
O4A O -0.67574(18) 0.48144(19) 0.36340(11)
O5B O -0.45839(16) -0.24946(15) -0.11240(9)
O5C O -0.54161(16) 0.25054(15) -0.38760(9)
O6B O -0.49851(19) -0.20617(17) -0.01128(11)
O7B O -0.34256(16) 0.08968(15) -0.19355(10)
O7A O -0.34256(16) 0.41032(15) 0.30645(10)
O8B O -1.10437(18) 0.11856(18) -0.11594(11)
O9B O -0.33382(16) 0.02478(16) -0.02095(10)
O10B O -0.10975(18) 0.09854(17) 0.04217(12)
O10B_2 O -1.10975(18) 0.09854(17) 0.04217(12)
O11B O -1.16706(15) -0.14972(15) -0.06733(10)
O11B_2 O -0.16706(15) -0.14972(15) -0.06733(10)
O12C O -0.78958(17) 0.13629(16) -0.39478(11)
O12B O -1.21042(17) -0.36371(16) -0.10522(11)
C1A C -0.5132(3) 0.6589(2) 0.16766(15)
C2B C -0.6843(3) 0.0369(3) -0.20475(16)
C2A C -0.6843(3) 0.4631(3) 0.29525(16)
C3B C -0.4878(3) -0.2815(2) -0.05925(16)
C5B C -0.2214(3) 0.0916(3) 0.03604(16)
C6B C -1.1295(3) -0.2690(2) -0.06394(16)
H1A H -0.526(2) 0.728(2) 0.1284(14)
H2B H -0.785(3) 0.061(3) -0.2588(18)
H2A H -0.785(3) 0.439(3) 0.2412(18)
H3B H -0.496(3) -0.377(3) -0.0550(17)
H5B H -0.226(3) 0.138(3) 0.0759(19)
H6B H -1.032(3) -0.285(2) -0.0275(16)
O13 O -0.2137(8) 0.4874(8) 0.1590(4)
C7 C -0.1646(9) 0.6104(9) 0.2017(4)
H7 H -0.2446 0.6723 0.1763
H8 H -0.1191 0.6013 0.2651
C8 C -0.0680(9) 0.6537(8) 0.1885(6)
H9 H 0.0296 0.6405 0.2423
H10 H -0.0818 0.7478 0.1750
C9 C -0.0861(9) 0.5849(11) 0.1185(5)
H11 H 0.0056 0.5734 0.1278
H12 H -0.1528 0.6308 0.0622
C10 C -0.1428(11) 0.4628(9) 0.1192(6)
H13 H -0.0660 0.3982 0.1538
H14 H -0.2107 0.4293 0.0588
loop_
_geom_bond_atom_site_label_1
_geom_bond_atom_site_label_2
_geom_bond_site_symmetry_1
_geom_bond_site_symmetry_2
Fe1 O1 1_555 1_555
Fe2 O1C 1_555 1_555
Fe3 O4 1_555 1_555
Fe4 O8 1_555 1_555
O1 C1 1_555 1_555
O2 C1 1_555 1_555
O3 Fe1 1_555 1_555
O4 C2 1_555 1_555
O5 Fe1 1_555 1_555
O6 Fe3 1_555 1_555
O7 Fe1 1_555 1_555
O8 C4 1_555 1_555
O9 Fe1 1_555 1_555
O10 Fe4 1_555 1_555
O11 Fe1 1_555 1_555
O12 C6 1_555 1_555
C1 H1 1_555 1_555
C2 O3 1_555 1_555
C3 O5 1_555 1_555
C4 O7 1_555 1_555
C5 O9 1_555 1_555
C6 O11 1_555 1_555
H2 C2 1_555 1_555
H3 C3 1_555 1_555
H4 C4 1_555 1_555
H5 C5 1_555 1_555
H6 C6 1_555 1_555
O13 C7 1_555 1_555
C7 H7 1_555 1_555
H8 C7 1_555 1_555
C8 C7 1_555 1_555
H9 C8 1_555 1_555
H10 C8 1_555 1_555
C9 C8 1_555 1_555
H11 C9 1_555 1_555
H12 C9 1_555 1_555
C10 O13 1_555 1_555
H13 C10 1_555 1_555
H14 C10 1_555 1_555
Fe1B O1B 1_555 1_555
Fe1B_2 O11B 1_555 1_555
Fe1A O1A 1_555 1_555
Fe2B O2 1_555 1_555
Fe2C O1 1_555 1_555
Fe2A O1B 1_555 1_555
Fe2A_2 O12B 1_555 1_555
Fe2B_2 O1A 1_555 1_555
Fe3C O4A 1_555 1_555
Fe4_2 O10B 1_555 1_555
O1A C1A 1_555 1_555
O2B Fe2 1_555 1_555
O2A Fe2C 1_555 1_555
O3B Fe2 1_555 1_555
O3A Fe1A 1_555 1_555
O4B Fe3 1_555 1_555
O4A C2A 1_555 1_555
O5B Fe1B 1_555 1_555
O5C Fe2 1_555 1_555
O6B Fe3 1_555 1_555
O7B Fe2 1_555 1_555
O7A Fe1A 1_555 1_555
O8B Fe4 1_555 1_555
O9B Fe3 1_555 1_555
O10B C5B 1_555 1_555
O10B_2 Fe4 1_555 1_555
O11B Fe4 1_555 1_555
O11B_2 Fe1B 1_555 1_555
O12C Fe2 1_555 1_555
O12B C6B 1_555 1_555
C1A O2A 1_555 1_555
C2B O3B 1_555 1_555
C2A O3A 1_555 1_555
C3B O5B 1_555 1_555
C5B O9B 1_555 1_555
C6B O11B 1_555 1_555
H1A C1A 1_555 1_555
H2B C2B 1_555 1_555
H2A C2A 1_555 1_555
H3B C3B 1_555 1_555
H5B C5B 1_555 1_555
H6B C6B 1_555 1_555
Fe3 O9 1_555 1_555
Fe4 O11 1_555 1_555
O3 Fe2B 1_555 1_555
O5 Fe2C 1_555 1_555
O6 C3 1_555 1_555
O7 Fe2B 1_555 1_555
O10 C5 1_555 1_555
O12 Fe2C 1_555 1_555
C9 C10 1_555 1_555
Fe1B O3B 1_555 1_555
Fe1B O7B 1_555 1_555
Fe1B O9B 1_555 1_555
Fe2C O3A 1_555 1_555
Fe2C O7A 1_555 1_555
Fe2A O5B 1_555 1_555
Fe4_2 O11B_2 1_555 1_555
O4B C2B 1_555 1_555
O6B C3B 1_555 1_555

#END
