
#######################################################################
#
#                 Cambridge Crystallographic Data Centre
#                                CCDC 
#
#######################################################################
#
# If this CIF has been generated from an entry in the Cambridge 
# Structural Database, then it will include bibliographic, chemical, 
# crystal, experimental, refinement or atomic coordinate data resulting 
# from the CCDC's data processing and validation procedures.
#
#######################################################################

data_NIKZEN01
_symmetry_cell_setting           monoclinic
_symmetry_space_group_name_H-M   'P 21/c'
_symmetry_Int_Tables_number      14
_space_group_name_Hall           '-P 2ybc'
loop_
_symmetry_equiv_pos_site_id
_symmetry_equiv_pos_as_xyz
1 x,y,z
2 -x,1/2+y,1/2-z
3 -x,-y,-z
4 x,1/2-y,1/2+z
_cell_length_a                   11.4443(2)
_cell_length_b                   9.9369(2)
_cell_length_c                   18.4853(4)
_cell_angle_alpha                90
_cell_angle_beta                 126.7610(10)
_cell_angle_gamma                90
_cell_volume                     1684.13
loop_
_atom_site_label
_atom_site_type_symbol
_atom_site_fract_x
_atom_site_fract_y
_atom_site_fract_z
Fe1 Fe 0.37657(3) 0.07555(3) 0.13294(2)
Fe2 Fe 0.43205(3) 0.38470(3) 0.19201(2)
Fe3 Fe 0.5000 0.0000 0.0000
Fe4 Fe 0.0000 0.0000 0.0000
O1 O 0.44304(17) 0.19412(15) 0.24897(11)
O2 O 0.43788(18) 0.55665(16) 0.13127(11)
O3 O 0.58697(17) -0.01239(15) 0.21482(11)
O4 O 0.68144(19) -0.00550(18) 0.13887(12)
O5 O 0.45429(17) 0.25465(15) 0.10871(11)
O6 O 0.48368(19) 0.20874(17) 0.00185(12)
O7 O 0.34330(17) -0.08722(15) 0.19470(11)
O8 O 0.10290(18) -0.11601(17) 0.11842(13)
O9 O 0.33571(17) -0.02794(16) 0.02244(11)
O10 O 0.11073(18) -0.10659(17) -0.04051(13)
O11 O 0.16472(16) 0.15377(15) 0.06480(11)
O12 O 0.20506(17) 0.37319(15) 0.10055(12)
C1 C 0.5078(3) 0.1664(2) 0.33200(17)
H1 H 0.5152 0.2367 0.3694
C2 C 0.6905(3) -0.0232(3) 0.20779(18)
H2 H 0.7836 -0.0471 0.2608
C3 C 0.4769(3) 0.2867(2) 0.05145(17)
H3 H 0.4899 0.3797 0.0462
C4 C 0.2305(3) -0.1394(2) 0.18176(17)
H4 H 0.2466 -0.2027 0.2254
C5 C 0.2246(3) -0.1022(2) -0.03332(18)
H5 H 0.2312 -0.1586 -0.0723
C6 C 0.1247(3) 0.2759(2) 0.05930(17)
H6 H 0.0229 0.2934 0.0195
Fe1A Fe 0.62343(3) 0.57555(3) 0.36706(2)
Fe1B Fe 0.62343(3) -0.07555(3) -0.13294(2)
Fe1B_2 Fe -0.37657(3) -0.07555(3) -0.13294(2)
Fe2A Fe 0.56795(3) -0.11530(3) 0.30799(2)
Fe2A_2 Fe 0.56795(3) 0.88470(3) 0.30799(2)
Fe2C Fe 0.43205(3) 0.11530(3) -0.30799(2)
Fe2B Fe 0.56795(3) -0.38470(3) -0.19201(2)
Fe2B_2 Fe -0.43205(3) -0.38470(3) -0.19201(2)
Fe3C Fe 0.5000 0.5000 0.5000
Fe4_2 Fe 1.0000 0.0000 0.0000
O1A O 0.55696(17) 0.69412(15) 0.25103(11)
O1B O 0.55696(17) -0.19412(15) -0.24897(11)
O1C O 0.44304(17) 0.30588(15) -0.25103(11)
O2A O 0.56212(18) 0.05665(16) 0.36873(11)
O2C O 0.43788(18) -0.05665(16) -0.36873(11)
O3A O 0.41303(17) 0.48761(15) 0.28518(11)
O3B O 0.41303(17) 0.01239(15) -0.21482(11)
O4B O 0.31856(19) 0.00550(18) -0.13887(12)
O4A O 0.31856(19) 0.49450(18) 0.36113(12)
O5B O 0.54571(17) -0.25465(15) -0.10871(11)
O5C O 0.45429(17) 0.24535(15) -0.39129(11)
O6B O 0.51632(19) -0.20874(17) -0.00185(12)
O7A O 0.65670(17) 0.41278(15) 0.30530(11)
O7B O 0.65670(17) 0.08722(15) -0.19470(11)
O8B O -0.10290(18) 0.11601(17) -0.11842(13)
O9B O 0.66429(17) 0.02794(16) -0.02244(11)
O10B O -0.11073(18) 0.10659(17) 0.04051(13)
O10B_2 O 0.88927(18) 0.10659(17) 0.04051(13)
O11B O -0.16472(16) -0.15377(15) -0.06480(11)
O11B_2 O 0.83528(16) -0.15377(15) -0.06480(11)
O12B O -0.20506(17) -0.37319(15) -0.10055(12)
O12C O 0.20506(17) 0.12681(15) -0.39945(12)
C1A C 0.4922(3) 0.6664(2) 0.16800(17)
H1A H 0.4848 0.7367 0.1306
C2A C 0.3095(3) 0.4768(3) 0.29221(18)
C2B C 0.3095(3) 0.0232(3) -0.20779(18)
H2A H 0.2164 0.4529 0.2392
H2B H 0.2164 0.0471 -0.2608
C3B C 0.5231(3) -0.2867(2) -0.05145(17)
H3B H 0.5101 -0.3797 -0.0462
C5B C 0.7754(3) 0.1022(2) 0.03332(18)
H5B H 0.7688 0.1586 0.0723
C6B C -0.1247(3) -0.2759(2) -0.05930(17)
H6B H -0.0229 -0.2934 -0.0195
O13 O 0.7697(6) 0.4441(8) 0.1610(3)
C7 C 0.8399(4) 0.5317(7) 0.1610(3)
C8 C 0.8813(6) 0.5139(7) 0.1018(4)
H7 H 0.9393 0.4316 0.1185
H8 H 0.9392 0.5913 0.1074
H9 H 0.7934 0.5067 0.0393
C9 C 0.8807(9) 0.6484(6) 0.2169(5)
H10 H 0.8301 0.6477 0.2448
H11 H 0.8537 0.7296 0.1800
H12 H 0.9863 0.6477 0.2642
loop_
_geom_bond_atom_site_label_1
_geom_bond_atom_site_label_2
_geom_bond_site_symmetry_1
_geom_bond_site_symmetry_2
Fe1 O1 1_555 1_555
Fe2 O1 1_555 1_555
Fe3 O4 1_555 1_555
Fe4 O8 1_555 1_555
O1 C1 1_555 1_555
O2 Fe2 1_555 1_555
O3 Fe1 1_555 1_555
O4 C2 1_555 1_555
O5 Fe1 1_555 1_555
O6 Fe3 1_555 1_555
O7 Fe1 1_555 1_555
O8 C4 1_555 1_555
O9 Fe1 1_555 1_555
O10 Fe4 1_555 1_555
O11 Fe1 1_555 1_555
O12 Fe2 1_555 1_555
C1 H1 1_555 1_555
C2 O3 1_555 1_555
H2 C2 1_555 1_555
C3 O5 1_555 1_555
H3 C3 1_555 1_555
C4 O7 1_555 1_555
H4 C4 1_555 1_555
C5 O9 1_555 1_555
H5 C5 1_555 1_555
C6 O11 1_555 1_555
H6 C6 1_555 1_555
O13 C7 1_555 1_555
C7 C8 1_555 1_555
C8 H7 1_555 1_555
H8 C8 1_555 1_555
H9 C8 1_555 1_555
C9 C7 1_555 1_555
H10 C9 1_555 1_555
H11 C9 1_555 1_555
H12 C9 1_555 1_555
Fe1A O1A 1_555 1_555
Fe1B O1B 1_555 1_555
Fe1B_2 O11B 1_555 1_555
Fe2A O3 1_555 1_555
Fe2A_2 O1A 1_555 1_555
Fe2C O1C 1_555 1_555
Fe2B O1B 1_555 1_555
Fe2B_2 O12B 1_555 1_555
Fe3C O4A 1_555 1_555
Fe4_2 O10B_2 1_555 1_555
O1A C1A 1_555 1_555
O2A C1 1_555 1_555
O2C Fe2C 1_555 1_555
O3A Fe2 1_555 1_555
O3B Fe1B 1_555 1_555
O4B Fe3 1_555 1_555
O4A C2A 1_555 1_555
O5B Fe1B 1_555 1_555
O5C Fe2C 1_555 1_555
O6B Fe3 1_555 1_555
O7A Fe2 1_555 1_555
O7B Fe1B 1_555 1_555
O8B Fe4 1_555 1_555
O9B Fe3 1_555 1_555
O10B Fe4 1_555 1_555
O10B_2 C5B 1_555 1_555
O11B Fe4 1_555 1_555
O11B_2 Fe1B 1_555 1_555
O12B C6B 1_555 1_555
O12C Fe2C 1_555 1_555
C1A O2 1_555 1_555
H1A C1A 1_555 1_555
C2A O3A 1_555 1_555
C2B O3B 1_555 1_555
H2A C2A 1_555 1_555
H2B C2B 1_555 1_555
C3B O5B 1_555 1_555
H3B C3B 1_555 1_555
C5B O9B 1_555 1_555
H5B C5B 1_555 1_555
C6B O11B 1_555 1_555
H6B C6B 1_555 1_555
Fe2 O5 1_555 1_555
Fe3 O9 1_555 1_555
Fe4 O11 1_555 1_555
O6 C3 1_555 1_555
O7 Fe2A 1_555 1_555
O10 C5 1_555 1_555
O12 C6 1_555 1_555
Fe1A O3A 1_555 1_555
Fe1A O7A 1_555 1_555
Fe1B O9B 1_555 1_555
Fe2A O2A 1_555 1_555
Fe2C O3B 1_555 1_555
Fe2C O7B 1_555 1_555
Fe2B O5B 1_555 1_555
Fe4_2 O11B_2 1_555 1_555
O4B C2B 1_555 1_555
O6B C3B 1_555 1_555

#END
