
#######################################################################
#
#                 Cambridge Crystallographic Data Centre
#                                CCDC 
#
#######################################################################
#
# If this CIF has been generated from an entry in the Cambridge 
# Structural Database, then it will include bibliographic, chemical, 
# crystal, experimental, refinement or atomic coordinate data resulting 
# from the CCDC's data processing and validation procedures.
#
#######################################################################

data_NIMXIS
_symmetry_cell_setting           monoclinic
_symmetry_space_group_name_H-M   'C 2/m'
_symmetry_Int_Tables_number      12
_space_group_name_Hall           '-C 2y'
loop_
_symmetry_equiv_pos_site_id
_symmetry_equiv_pos_as_xyz
1 x,y,z
2 -x,y,-z
3 1/2+x,1/2+y,z
4 1/2-x,1/2+y,-z
5 -x,-y,-z
6 x,-y,z
7 1/2-x,1/2-y,-z
8 1/2+x,1/2-y,z
_cell_length_a                   18.3609(8)
_cell_length_b                   18.2320(9)
_cell_length_c                   14.1621(7)
_cell_angle_alpha                90
_cell_angle_beta                 96.973(4)
_cell_angle_gamma                90
_cell_volume                     4705.78
loop_
_atom_site_label
_atom_site_type_symbol
_atom_site_fract_x
_atom_site_fract_y
_atom_site_fract_z
C1 C 0.5400(2) 0.6418(3) 0.3924(4)
Zn1 Zn 1.0000 1.0000 0.5000
Zn2 Zn 0.83416(4) 1.0000 0.50514(7)
Zn3 Zn 0.89770(3) 0.91494(3) 0.33517(5)
O1 O 0.47477(15) 0.66126(16) 0.3658(2)
O2 O 0.76699(16) 0.91402(18) 0.4652(3)
C2 C 0.6612(2) 0.8032(3) 0.4708(4)
C3 C 0.6091(2) 0.7487(3) 0.4669(4)
C4 C 0.6946(3) 0.7625(3) 0.3206(5)
C5 C 0.7058(2) 0.8096(3) 0.3978(4)
C6 C 0.6412(3) 0.7105(3) 0.3180(4)
C7 C 0.5976(2) 0.7002(3) 0.3916(4)
N1 N 0.6291(3) 0.6641(4) 0.2344(5)
O3 O 0.9171(2) 0.9375(2) 0.2063(3)
C8 C 0.9302(4) 1.0000 0.1710(6)
C9 C 0.9626(4) 1.0000 0.0804(6)
C10 C 0.9817(4) 0.9342(3) 0.0402(5)
O4 O 0.81043(17) 0.85749(19) 0.3412(3)
C11 C 0.7656(2) 0.8655(3) 0.4031(4)
O5 O 0.90724(19) 1.0000 0.4163(3)
O6 O 0.5824(2) 0.6195(3) 0.2257(3)
O7 O 0.6652(6) 0.6748(6) 0.1710(6)
O8 O 0.55997(17) 0.58090(18) 0.4238(2)
O9 O 0.8053(3) 1.0000 0.6363(4)
O3A O 1.0829(2) 0.9375(2) -0.2063(3)
C8A C 1.0698(4) 1.0000 -0.1710(6)
C9A C 1.0374(4) 1.0000 -0.0804(6)
C10A C 1.0183(4) 0.9342(3) -0.0402(5)
O3D O 1.0829(2) 1.0625(2) -0.2063(3)
C10D C 1.0183(4) 1.0658(3) -0.0402(5)
O3E O 0.9171(2) 1.0625(2) 0.2063(3)
C10E C 0.9817(4) 1.0658(3) 0.0402(5)
C1A C 1.4600(2) 0.6418(3) -0.3924(4)
Zn2A Zn 1.16584(4) 1.0000 -0.50514(7)
Zn3A Zn 1.10230(3) 0.91494(3) -0.33517(5)
O1A O 1.52523(15) 0.66126(16) -0.3658(2)
O2A O 1.23301(16) 0.91402(18) -0.4652(3)
C2A C 1.3388(2) 0.8032(3) -0.4708(4)
C3A C 1.3909(2) 0.7487(3) -0.4669(4)
C4A C 1.3054(3) 0.7625(3) -0.3206(5)
C5A C 1.2942(2) 0.8096(3) -0.3978(4)
C6A C 1.3588(3) 0.7105(3) -0.3180(4)
C7A C 1.4024(2) 0.7002(3) -0.3916(4)
N1A N 1.3709(3) 0.6641(4) -0.2344(5)
O4A O 1.18957(17) 0.85749(19) -0.3412(3)
C11A C 1.2344(2) 0.8655(3) -0.4031(4)
O5A O 1.09276(19) 1.0000 -0.4163(3)
O6A O 1.4176(2) 0.6195(3) -0.2257(3)
O7A O 1.3348(6) 0.6748(6) -0.1710(6)
O8A O 1.44003(17) 0.58090(18) -0.4238(2)
O9A O 1.1947(3) 1.0000 -0.6363(4)
C1D C 1.4600(2) 1.3582(3) -0.3924(4)
Zn3D Zn 1.10230(3) 1.08506(3) -0.33517(5)
O1D O 1.52523(15) 1.33874(16) -0.3658(2)
O2D O 1.23301(16) 1.08598(18) -0.4652(3)
C2D C 1.3388(2) 1.1968(3) -0.4708(4)
C3D C 1.3909(2) 1.2513(3) -0.4669(4)
C4D C 1.3054(3) 1.2375(3) -0.3206(5)
C5D C 1.2942(2) 1.1904(3) -0.3978(4)
C6D C 1.3588(3) 1.2895(3) -0.3180(4)
C7D C 1.4024(2) 1.2998(3) -0.3916(4)
N1D N 1.3709(3) 1.3359(4) -0.2344(5)
O4D O 1.18957(17) 1.14251(19) -0.3412(3)
C11D C 1.2344(2) 1.1345(3) -0.4031(4)
O6D O 1.4176(2) 1.3805(3) -0.2257(3)
O7D O 1.3348(6) 1.3252(6) -0.1710(6)
O8D O 1.44003(17) 1.41910(18) -0.4238(2)
C1E C 0.5400(2) 1.3582(3) 0.3924(4)
Zn3E Zn 0.89770(3) 1.08506(3) 0.33517(5)
O1E O 0.47477(15) 1.33874(16) 0.3658(2)
O2E O 0.76699(16) 1.08598(18) 0.4652(3)
C2E C 0.6612(2) 1.1968(3) 0.4708(4)
C3E C 0.6091(2) 1.2513(3) 0.4669(4)
C4E C 0.6946(3) 1.2375(3) 0.3206(5)
C5E C 0.7058(2) 1.1904(3) 0.3978(4)
C6E C 0.6412(3) 1.2895(3) 0.3180(4)
C7E C 0.5976(2) 1.2998(3) 0.3916(4)
N1E N 0.6291(3) 1.3359(4) 0.2344(5)
O4E O 0.81043(17) 1.14251(19) 0.3412(3)
C11E C 0.7656(2) 1.1345(3) 0.4031(4)
O6E O 0.5824(2) 1.3805(3) 0.2257(3)
O7E O 0.6652(6) 1.3252(6) 0.1710(6)
O8E O 0.55997(17) 1.41910(18) 0.4238(2)
Zn1_2 Zn 1.0000 1.0000 -0.5000
Zn1B Zn 0.5000 0.5000 0.5000
Zn1B_2 Zn 0.5000 1.5000 0.5000
Zn1B_3 Zn 1.5000 0.5000 -0.5000
Zn1B_4 Zn 1.5000 1.5000 -0.5000
Zn2B Zn 1.33416(4) 0.5000 -0.49486(7)
Zn2B_2 Zn 1.33416(4) 1.5000 -0.49486(7)
Zn2C Zn 0.66584(4) 0.5000 0.49486(7)
Zn2C_2 Zn 0.66584(4) 1.5000 0.49486(7)
Zn3B Zn 0.39770(3) 1.41494(3) 0.33517(5)
Zn3C Zn 1.60230(3) 1.41494(3) -0.33517(5)
Zn3F Zn 1.60230(3) 0.58506(3) -0.33517(5)
Zn3G Zn 0.39770(3) 0.58506(3) 0.33517(5)
O1B O 0.97477(15) 1.16126(16) 0.3658(2)
O1C O 1.02523(15) 1.16126(16) -0.3658(2)
O1F O 1.02523(15) 0.83874(16) -0.3658(2)
O1G O 0.97477(15) 0.83874(16) 0.3658(2)
O5A_2 O 1.09276(19) 1.0000 0.5837(3)
O8B O 1.05997(17) 1.08090(18) -0.5762(2)
O8B_2 O 1.05997(17) 1.08090(18) 0.4238(2)
O8C O 0.94003(17) 1.08090(18) 0.5762(2)
O8F O 0.94003(17) 0.91910(18) 0.5762(2)
O8G O 1.05997(17) 0.91910(18) -0.5762(2)
O8G_2 O 1.05997(17) 0.91910(18) 0.4238(2)
loop_
_geom_bond_atom_site_label_1
_geom_bond_atom_site_label_2
_geom_bond_site_symmetry_1
_geom_bond_site_symmetry_2
C1 O1 1_555 1_555
Zn1 O5 1_555 1_555
Zn2 O2 1_555 1_555
Zn3 O3 1_555 1_555
O1 Zn3G 1_555 1_555
O2 C11 1_555 1_555
C2 C3 1_555 1_555
C3 C7 1_555 1_555
C4 C5 1_555 1_555
C5 C2 1_555 1_555
C6 C4 1_555 1_555
C7 C1 1_555 1_555
N1 C6 1_555 1_555
O3 C8 1_555 1_555
C8 C9 1_555 1_555
C9 C10 1_555 1_555
C10 C10A 1_555 1_555
O4 Zn3 1_555 1_555
C11 C5 1_555 1_555
O5 Zn2 1_555 1_555
O6 N1 1_555 1_555
O7 N1 1_555 1_555
O8 C1 1_555 1_555
O9 Zn2 1_555 1_555
O3A C8A 1_555 1_555
C8A C9A 1_555 1_555
C9A C10A 1_555 1_555
O3D C8A 1_555 1_555
C10D C9A 1_555 1_555
O3E C8 1_555 1_555
C10E C9 1_555 1_555
C1A O1A 1_555 1_555
Zn2A O2A 1_555 1_555
Zn3A O3A 1_555 1_555
O1A Zn3F 1_555 1_555
O2A C11A 1_555 1_555
C2A C3A 1_555 1_555
C3A C7A 1_555 1_555
C4A C5A 1_555 1_555
C5A C2A 1_555 1_555
C6A C4A 1_555 1_555
C7A C1A 1_555 1_555
N1A C6A 1_555 1_555
O4A Zn3A 1_555 1_555
C11A C5A 1_555 1_555
O5A Zn2A 1_555 1_555
O6A N1A 1_555 1_555
O7A N1A 1_555 1_555
O8A C1A 1_555 1_555
O9A Zn2A 1_555 1_555
C1D O1D 1_555 1_555
Zn3D O3D 1_555 1_555
O1D Zn3C 1_555 1_555
O2D Zn2A 1_555 1_555
C2D C3D 1_555 1_555
C3D C7D 1_555 1_555
C4D C5D 1_555 1_555
C5D C2D 1_555 1_555
C6D C4D 1_555 1_555
C7D C1D 1_555 1_555
N1D C6D 1_555 1_555
O4D Zn3D 1_555 1_555
C11D O2D 1_555 1_555
O6D N1D 1_555 1_555
O7D N1D 1_555 1_555
O8D C1D 1_555 1_555
C1E O1E 1_555 1_555
Zn3E O5 1_555 1_555
O1E Zn3B 1_555 1_555
O2E Zn2 1_555 1_555
C2E C3E 1_555 1_555
C3E C7E 1_555 1_555
C4E C5E 1_555 1_555
C5E C2E 1_555 1_555
C6E C4E 1_555 1_555
C7E C1E 1_555 1_555
N1E C6E 1_555 1_555
O4E Zn3E 1_555 1_555
C11E O2E 1_555 1_555
O6E N1E 1_555 1_555
O7E N1E 1_555 1_555
O8E C1E 1_555 1_555
Zn1_2 O5A 1_555 1_555
Zn1B O8 1_555 1_555
Zn1B_2 O8E 1_555 1_555
Zn1B_3 O8A 1_555 1_555
Zn1B_4 O8D 1_555 1_555
Zn2B O8A 1_555 1_555
Zn2B_2 O8D 1_555 1_555
Zn2C O8 1_555 1_555
Zn2C_2 O8E 1_555 1_555
O1B Zn3E 1_555 1_555
O1C Zn3D 1_555 1_555
O1F Zn3A 1_555 1_555
O1G Zn3 1_555 1_555
O5A_2 Zn1 1_555 1_555
O8B Zn2A 1_555 1_555
O8B_2 Zn1 1_555 1_555
O8C Zn1 1_555 1_555
O8F Zn1 1_555 1_555
O8G Zn2A 1_555 1_555
O8G_2 Zn1 1_555 1_555
Zn2 O8C 1_555 1_555
Zn2 O8F 1_555 1_555
Zn3 O5 1_555 1_555
C6 C7 1_555 1_555
O4 C11 1_555 1_555
C10D C10E 1_555 1_555
O3E Zn3E 1_555 1_555
Zn3A O5A 1_555 1_555
C6A C7A 1_555 1_555
O4A C11A 1_555 1_555
O5A Zn3D 1_555 1_555
C5D C11D 1_555 1_555
C6D C7D 1_555 1_555
O4D C11D 1_555 1_555
C5E C11E 1_555 1_555
C6E C7E 1_555 1_555
O4E C11E 1_555 1_555
Zn1_2 O8B 1_555 1_555
Zn1_2 O8G 1_555 1_555

#END
