
#######################################################################
#
#                 Cambridge Crystallographic Data Centre
#                                CCDC 
#
#######################################################################
#
# If this CIF has been generated from an entry in the Cambridge 
# Structural Database, then it will include bibliographic, chemical, 
# crystal, experimental, refinement or atomic coordinate data resulting 
# from the CCDC's data processing and validation procedures.
#
#######################################################################

data_NINBIX
_symmetry_cell_setting           monoclinic
_symmetry_space_group_name_H-M   'P 21'
_symmetry_Int_Tables_number      4
_space_group_name_Hall           'P 2yb'
loop_
_symmetry_equiv_pos_site_id
_symmetry_equiv_pos_as_xyz
1 x,y,z
2 -x,1/2+y,-z
_cell_length_a                   9.0545(5)
_cell_length_b                   17.7259(7)
_cell_length_c                   10.9172(5)
_cell_angle_alpha                90
_cell_angle_beta                 96.9540(16)
_cell_angle_gamma                90
_cell_volume                     1739.31
loop_
_atom_site_label
_atom_site_type_symbol
_atom_site_fract_x
_atom_site_fract_y
_atom_site_fract_z
Cu1 Cu 0.51058(2) 0.155368(13) 0.23168(2)
S1 S 0.23411(7) 0.07638(4) 0.45295(6)
S2 S 0.67486(6) 0.23168(3) -0.04060(5)
F1 F 0.2775(5) -0.06429(15) 0.4046(4)
F2 F 0.1880(7) -0.04616(17) 0.5749(5)
F3 F 0.4208(6) -0.0213(3) 0.5606(5)
F4 F 0.7951(3) 0.35324(14) -0.1225(3)
F5 F 0.7091(3) 0.36784(12) 0.0513(3)
F6 F 0.9136(3) 0.30800(15) 0.0443(3)
O1 O 0.0891(3) 0.0713(3) 0.3887(4)
O2 O 0.2415(4) 0.11622(16) 0.5670(3)
O3 O 0.3486(2) 0.09618(10) 0.37833(16)
O4 O 0.7669(3) 0.18487(12) -0.10657(19)
O5 O 0.66372(19) 0.20674(10) 0.08405(15)
O6 O 0.5356(2) 0.25521(10) -0.10809(17)
N1 N 0.61356(19) 0.05420(9) 0.22322(16)
N2 N 1.3326(2) -0.31269(10) 0.62909(17)
N3 N 0.35335(19) 0.12239(10) 0.09331(17)
N4 N -0.4054(2) -0.24443(9) -0.24482(17)
C1 C 0.7600(3) 0.04935(12) 0.2145(3)
C2 C 0.8324(3) -0.01950(13) 0.2070(3)
C3 C 0.7529(3) -0.08618(12) 0.2101(2)
C4 C 0.6014(3) -0.08068(12) 0.2209(3)
C5 C 0.5367(3) -0.01035(13) 0.2253(3)
C6 C 0.8288(3) -0.16188(13) 0.2065(3)
C7 C 0.9316(3) -0.17649(13) 0.3272(3)
C8 C 1.0022(3) -0.25477(12) 0.3252(2)
C9 C 1.1184(3) -0.27257(11) 0.43209(19)
C10 C 1.1151(4) -0.24405(17) 0.5502(3)
C11 C 1.2239(4) -0.26490(17) 0.6455(3)
C12 C 1.2362(3) -0.31966(15) 0.4158(3)
C13 C 1.3381(3) -0.33944(17) 0.5155(3)
C14 C 0.2076(3) 0.13001(13) 0.1046(2)
C15 C 0.0965(3) 0.11023(13) 0.0113(2)
C16 C 0.1344(3) 0.08165(11) -0.0999(2)
C17 C 0.2849(3) 0.07397(13) -0.1107(2)
C18 C 0.3898(3) 0.09437(12) -0.0138(2)
C19 C 0.0141(3) 0.06124(12) -0.2026(2)
C20 C -0.0559(3) -0.01573(12) -0.1828(3)
C21 C -0.1959(3) -0.02732(13) -0.2750(3)
C22 C -0.2687(3) -0.10346(12) -0.2638(2)
C23 C -0.3069(3) -0.12991(13) -0.1513(3)
C24 C -0.3731(3) -0.19977(13) -0.1450(2)
C25 C -0.3022(3) -0.14963(13) -0.3656(2)
C26 C -0.3701(3) -0.21923(12) -0.3535(2)
C27 C 0.2881(8) -0.0196(3) 0.5051(6)
C28 C 0.7772(4) 0.32004(17) -0.0160(4)
H1 H 0.8163 0.0945 0.2134
H2 H 0.9359 -0.0208 0.1998
H3 H 0.5432 -0.1250 0.2252
H4 H 0.4328 -0.0076 0.2301
H5 H 0.8880 -0.1633 0.1360
H6 H 0.7528 -0.2022 0.1942
H7 H 1.0108 -0.1377 0.3375
H8 H 0.8735 -0.1728 0.3981
H9 H 0.9222 -0.2930 0.3230
H10 H 1.0482 -0.2599 0.2478
H11 H 1.0383 -0.2102 0.5660
H12 H 1.2201 -0.2441 0.7253
H13 H 1.2473 -0.3385 0.3359
H14 H 1.4155 -0.3736 0.5024
H15 H 0.1797 0.1497 0.1794
H16 H -0.0051 0.1161 0.0231
H17 H 0.3157 0.0547 -0.1847
H18 H 0.4921 0.0884 -0.0230
H19 H 0.0570 0.0606 -0.2818
H20 H -0.0644 0.1004 -0.2084
H21 H -0.0824 -0.0189 -0.0975
H22 H 0.0169 -0.0561 -0.1935
H23 H -0.2688 0.0127 -0.2623
H24 H -0.1690 -0.0218 -0.3598
H25 H -0.2873 -0.0998 -0.0791
H26 H -0.3968 -0.2171 -0.0674
H27 H -0.2786 -0.1338 -0.4440
H28 H -0.3922 -0.2500 -0.4247
Cu1A Cu -0.51058(2) -0.344632(13) -0.23168(2)
Cu1A_2 Cu 1.48942(2) -0.344632(13) 0.76832(2)
N2A N 0.6674(2) 0.18731(10) 0.37091(17)
N4A N 0.4054(2) 0.25557(9) 0.24482(17)
O7 O 0.4037(7) 0.2386(4) 0.6382(5)
loop_
_geom_bond_atom_site_label_1
_geom_bond_atom_site_label_2
_geom_bond_site_symmetry_1
_geom_bond_site_symmetry_2
Cu1 O3 1_555 1_555
S1 O1 1_555 1_555
S2 O4 1_555 1_555
F1 C27 1_555 1_555
F2 C27 1_555 1_555
F3 C27 1_555 1_555
F4 C28 1_555 1_555
F5 C28 1_555 1_555
F6 C28 1_555 1_555
O2 S1 1_555 1_555
O3 S1 1_555 1_555
O5 Cu1 1_555 1_555
O6 S2 1_555 1_555
N1 Cu1 1_555 1_555
N2 C11 1_555 1_555
N3 Cu1 1_555 1_555
N4 C24 1_555 1_555
C1 N1 1_555 1_555
C2 C1 1_555 1_555
C3 C2 1_555 1_555
C4 C3 1_555 1_555
C5 N1 1_555 1_555
C6 C3 1_555 1_555
C7 C6 1_555 1_555
C8 C7 1_555 1_555
C9 C8 1_555 1_555
C10 C9 1_555 1_555
C11 C10 1_555 1_555
C12 C9 1_555 1_555
C13 N2 1_555 1_555
C14 N3 1_555 1_555
C15 C14 1_555 1_555
C16 C15 1_555 1_555
C17 C16 1_555 1_555
C18 N3 1_555 1_555
C19 C16 1_555 1_555
C20 C19 1_555 1_555
C21 C20 1_555 1_555
C22 C21 1_555 1_555
C23 C22 1_555 1_555
C24 C23 1_555 1_555
C25 C22 1_555 1_555
C26 N4 1_555 1_555
C27 S1 1_555 1_555
C28 S2 1_555 1_555
H1 C1 1_555 1_555
H2 C2 1_555 1_555
H3 C4 1_555 1_555
H4 C5 1_555 1_555
H5 C6 1_555 1_555
H6 C6 1_555 1_555
H7 C7 1_555 1_555
H8 C7 1_555 1_555
H9 C8 1_555 1_555
H10 C8 1_555 1_555
H11 C10 1_555 1_555
H12 C11 1_555 1_555
H13 C12 1_555 1_555
H14 C13 1_555 1_555
H15 C14 1_555 1_555
H16 C15 1_555 1_555
H17 C17 1_555 1_555
H18 C18 1_555 1_555
H19 C19 1_555 1_555
H20 C19 1_555 1_555
H21 C20 1_555 1_555
H22 C20 1_555 1_555
H23 C21 1_555 1_555
H24 C21 1_555 1_555
H25 C23 1_555 1_555
H26 C24 1_555 1_555
H27 C25 1_555 1_555
H28 C26 1_555 1_555
Cu1A N4 1_555 1_555
Cu1A_2 N2 1_555 1_555
N2A Cu1 1_555 1_555
N4A Cu1 1_555 1_555
S2 O5 1_555 1_555
C4 C5 1_555 1_555
C12 C13 1_555 1_555
C17 C18 1_555 1_555
C25 C26 1_555 1_555

#END
