
#######################################################################
#
#                 Cambridge Crystallographic Data Centre
#                                CCDC 
#
#######################################################################
#
# If this CIF has been generated from an entry in the Cambridge 
# Structural Database, then it will include bibliographic, chemical, 
# crystal, experimental, refinement or atomic coordinate data resulting 
# from the CCDC's data processing and validation procedures.
#
#######################################################################

data_NIRDOI
_symmetry_cell_setting           monoclinic
_symmetry_space_group_name_H-M   'P 21/c'
_symmetry_Int_Tables_number      14
_space_group_name_Hall           '-P 2ybc'
loop_
_symmetry_equiv_pos_site_id
_symmetry_equiv_pos_as_xyz
1 x,y,z
2 -x,1/2+y,1/2-z
3 -x,-y,-z
4 x,1/2-y,1/2+z
_cell_length_a                   16.9840(18)
_cell_length_b                   16.3420(19)
_cell_length_c                   15.648(2)
_cell_angle_alpha                90
_cell_angle_beta                 103.230(2)
_cell_angle_gamma                90
_cell_volume                     4227.87
loop_
_atom_site_label
_atom_site_type_symbol
_atom_site_fract_x
_atom_site_fract_y
_atom_site_fract_z
Zn1 Zn 0.44123(4) -0.04109(4) 0.36577(5)
Zn2 Zn -0.17468(2) 0.00780(2) 1.05341(3)
Zn3 Zn 0.0000 0.0000 1.0000
C1 C 0.3454(4) 0.0764(5) 0.2437(5)
H1 H 0.3469 0.0367 0.2015
C2 C 0.3122(5) 0.1505(5) 0.2152(6)
H2 H 0.2908 0.1581 0.1555
C3 C 0.3093(4) 0.2131(6) 0.2708(5)
H3 H 0.2908 0.2646 0.2503
C4 C 0.3380(4) 0.1954(4) 0.3688(7)
C5 C 0.3678(3) 0.1205(3) 0.3865(4)
H4 H 0.3865 0.1066 0.4453
C6 C 0.3468(3) 0.2352(4) 0.5104(4)
H5 H 0.3594 0.2850 0.5445
H6 H 0.3919 0.1977 0.5286
C7 C 0.2704(3) 0.1966(3) 0.5289(3)
C8 C 0.2716(4) 0.1238(4) 0.5702(4)
H7 H 0.3202 0.0956 0.5877
C9 C 0.2007(4) 0.0902(4) 0.5872(5)
H8 H 0.2032 0.0403 0.6163
C10 C 0.1280(3) 0.1295(3) 0.5618(3)
C11 C 0.1288(4) 0.2049(4) 0.5196(4)
H9 H 0.0810 0.2343 0.5018
C12 C 0.1994(4) 0.2360(4) 0.5042(4)
H10 H 0.1980 0.2860 0.4756
C13 C 0.0523(3) 0.0964(3) 0.5802(3)
C14 C 0.0526(4) 0.0317(4) 0.6390(4)
H11 H 0.1014 0.0087 0.6681
C15 C -0.0193(5) 0.0018(4) 0.6542(5)
H12 H -0.0177 -0.0425 0.6918
C16 C -0.0925(4) 0.0352(4) 0.6157(3)
C17 C -0.0934(4) 0.0991(5) 0.5606(4)
H13 H -0.1423 0.1239 0.5349
C18 C -0.0221(4) 0.1285(4) 0.5416(4)
H14 H -0.0251 0.1711 0.5016
C19 C -0.1698(4) 0.0025(4) 0.6353(4)
H15 H -0.1654 -0.0562 0.6439
H16 H -0.2147 0.0131 0.5857
C20 C -0.1515(3) 0.0101(3) 0.7965(3)
H17 H -0.1186 -0.0358 0.7994
C21 C -0.1641(2) 0.0442(2) 0.8735(3)
C22 C -0.2135(3) 0.1135(3) 0.8654(3)
H18 H -0.2235 0.1387 0.9151
C23 C -0.2474(3) 0.1443(4) 0.7827(4)
H19 H -0.2813 0.1896 0.7773
C24 C -0.2323(3) 0.1098(4) 0.7094(4)
H20 H -0.2536 0.1326 0.6545
C25 C 0.4546(5) -0.1556(6) 0.2683(6)
C26 C 0.4502(4) -0.2277(4) 0.2067(4)
C27 C 0.4410(5) -0.2196(4) 0.1206(4)
H21 H 0.4417 -0.1679 0.0961
C28 C 0.4304(5) -0.2881(4) 0.0672(4)
H22 H 0.4230 -0.2815 0.0068
C29 C 0.4305(3) -0.3652(3) 0.1010(3)
C30 C 0.4219(3) -0.4378(4) 0.0417(4)
C31 C 0.4429(4) -0.3747(4) 0.1900(4)
H23 H 0.4442 -0.4269 0.2139
C32 C 0.4537(4) -0.3069(4) 0.2447(4)
H24 H 0.4630 -0.3132 0.3053
C33 C 0.0473(2) -0.3800(2) 1.3665(3)
C34 C -0.0615(2) -0.2838(3) 1.2926(3)
H25 H -0.0956 -0.3063 1.3251
C35 C 0.0172(2) -0.3141(2) 1.3020(3)
C36 C 0.0659(3) -0.2820(3) 1.2498(3)
H26 H 0.1177 -0.3028 1.2545
C37 C 0.0382(3) -0.2198(3) 1.1915(3)
H27 H 0.0708 -0.1997 1.1560
C38 C -0.0381(2) -0.1871(2) 1.1855(3)
C39 C -0.0881(2) -0.2202(2) 1.2345(3)
H28 H -0.1401 -0.1997 1.2286
C40 C -0.0648(2) -0.1170(2) 1.1260(3)
C41 C -0.3287(3) -0.0084(3) 1.0108(4)
C42 C -0.4183(3) -0.0042(3) 1.0052(4)
C43 C -0.4470(3) 0.0446(4) 1.0617(4)
H29 H -0.4115 0.0748 1.1043
C44 C -0.4696(3) -0.0490(4) 0.9448(4)
H30 H -0.4494 -0.0831 0.9072
N1 N 0.3737(3) 0.0582(4) 0.3216(3)
N2 N -0.1863(3) 0.0426(3) 0.7170(2)
O1 O 0.4434(5) -0.0864(4) 0.2414(5)
O2 O 0.4606(6) -0.1655(4) 0.3449(5)
O3 O 0.3874(3) -0.4270(3) -0.0391(3)
O4 O 0.4497(3) -0.5051(2) 0.0702(3)
O5 O -0.01631(18) -0.0895(2) 1.0848(2)
O6 O -0.13438(17) -0.08897(19) 1.1216(2)
O7 O 0.12076(17) -0.3988(2) 1.3767(2)
O8 O -0.00100(17) -0.4121(2) 1.4049(2)
O9 O -0.3005(2) -0.0593(3) 0.9664(3)
O10 O -0.28428(19) 0.0427(2) 1.0578(3)
O11 O -0.12882(15) 0.01211(17) 0.94931(18)
O12 O 0.3363(3) 0.2546(3) 0.4148(4)
Zn1B Zn -0.44123(4) 0.04109(4) 1.63423(5)
Zn1C Zn 0.44123(4) -0.45891(4) -0.13423(5)
Zn1A Zn 0.55877(4) -0.54109(4) 0.13423(5)
Zn1C_2 Zn 0.44123(4) -0.45891(4) 0.86577(5)
Zn1B_2 Zn 0.55877(4) 0.04109(4) 0.63423(5)
Zn2B Zn 0.17468(2) -0.00780(2) 0.94659(3)
Zn2A Zn 0.17468(2) -0.49220(2) 1.44659(3)
Zn2B_2 Zn -0.82532(2) -0.00780(2) 0.94659(3)
Zn2C Zn -0.17468(2) 0.49220(2) 0.55341(3)
Zn3C Zn 0.0000 -0.5000 1.5000
Zn3C_2 Zn 0.0000 0.5000 0.5000
C1B C -0.3454(4) -0.0764(5) 1.7563(5)
H1B H -0.3469 -0.0367 1.7985
C2B C -0.3122(5) -0.1505(5) 1.7848(6)
H2B H -0.2908 -0.1581 1.8445
C3B C -0.3093(4) -0.2131(6) 1.7292(5)
H3B H -0.2908 -0.2646 1.7497
C4B C -0.3380(4) -0.1954(4) 1.6312(7)
C5B C -0.3678(3) -0.1205(3) 1.6135(4)
H4B H -0.3865 -0.1066 1.5547
C6B C -0.3468(3) -0.2352(4) 1.4896(4)
H5B H -0.3594 -0.2850 1.4555
H6B H -0.3919 -0.1977 1.4714
C7B C -0.2704(3) -0.1966(3) 1.4711(3)
C8B C -0.2716(4) -0.1238(4) 1.4298(4)
H7B H -0.3202 -0.0956 1.4123
C9B C -0.2007(4) -0.0902(4) 1.4128(5)
H8B H -0.2032 -0.0403 1.3837
C10B C -0.1280(3) -0.1295(3) 1.4382(3)
C11B C -0.1288(4) -0.2049(4) 1.4804(4)
H9B H -0.0810 -0.2343 1.4982
C12B C -0.1994(4) -0.2360(4) 1.4958(4)
H10B H -0.1980 -0.2860 1.5244
C13B C -0.0523(3) -0.0964(3) 1.4198(3)
C14B C -0.0526(4) -0.0317(4) 1.3610(4)
H11B H -0.1014 -0.0087 1.3319
C15B C 0.0193(5) -0.0018(4) 1.3458(5)
H12B H 0.0177 0.0425 1.3082
C16B C 0.0925(4) -0.0352(4) 1.3843(3)
C17B C 0.0934(4) -0.0991(5) 1.4394(4)
H13B H 0.1423 -0.1239 1.4651
C18B C 0.0221(4) -0.1285(4) 1.4584(4)
H14B H 0.0251 -0.1711 1.4984
C19B C 0.1698(4) -0.0025(4) 1.3647(4)
H15B H 0.1654 0.0562 1.3561
H16B H 0.2147 -0.0131 1.4143
C20B C 0.1515(3) -0.0101(3) 1.2035(3)
H17B H 0.1186 0.0358 1.2006
C21B C 0.1641(2) -0.0442(2) 1.1265(3)
C22B C 0.2135(3) -0.1135(3) 1.1346(3)
H18B H 0.2235 -0.1387 1.0849
C23B C 0.2474(3) -0.1443(4) 1.2173(4)
H19B H 0.2813 -0.1896 1.2227
C24B C 0.2323(3) -0.1098(4) 1.2906(4)
H20B H 0.2536 -0.1326 1.3455
C25C C 0.4546(5) -0.3444(6) 0.7683(6)
C26C C 0.4502(4) -0.2723(4) 0.7067(4)
C27C C 0.4410(5) -0.2804(4) 0.6206(4)
H21C H 0.4417 -0.3321 0.5961
C28C C 0.4304(5) -0.2119(4) 0.5672(4)
H22C H 0.4230 -0.2185 0.5068
C29C C 0.4305(3) -0.1348(3) 0.6010(3)
C30C C 0.4219(3) -0.0622(4) 0.5417(4)
C31C C 0.4429(4) -0.1253(4) 0.6900(4)
H23C H 0.4442 -0.0731 0.7139
C32C C 0.4537(4) -0.1931(4) 0.7447(4)
H24C H 0.4630 -0.1868 0.8053
C33B C -0.0473(2) 0.3800(2) 0.6335(3)
C34B C 0.0615(2) 0.2838(3) 0.7074(3)
H25B H 0.0956 0.3063 0.6749
C35B C -0.0172(2) 0.3141(2) 0.6980(3)
C36B C -0.0659(3) 0.2820(3) 0.7502(3)
H26B H -0.1177 0.3028 0.7455
C37B C -0.0382(3) 0.2198(3) 0.8085(3)
H27B H -0.0708 0.1997 0.8440
C38B C 0.0381(2) 0.1871(2) 0.8145(3)
C39B C 0.0881(2) 0.2202(2) 0.7655(3)
H28B H 0.1401 0.1997 0.7714
C40B C 0.0648(2) 0.1170(2) 0.8740(3)
C41B C -0.6713(3) 0.0084(3) 0.9892(4)
C42B C -0.5817(3) 0.0042(3) 0.9948(4)
C43B C -0.5530(3) -0.0446(4) 0.9383(4)
H29B H -0.5885 -0.0748 0.8957
C44B C -0.5304(3) 0.0490(4) 1.0552(4)
H30B H -0.5506 0.0831 1.0928
N1B N -0.3737(3) -0.0582(4) 1.6784(3)
N2B N 0.1863(3) -0.0426(3) 1.2830(2)
O1C O 0.4434(5) -0.4136(4) 0.7414(5)
O1B O -0.4434(5) 0.0864(4) 1.7586(5)
O2C O 0.4606(6) -0.3345(4) 0.8449(5)
O2B O -0.4606(6) 0.1655(4) 1.6551(5)
O3C O 0.3874(3) -0.0730(3) 0.4609(3)
O3A O -0.3874(3) 0.0730(3) 1.5391(3)
O4C O 0.4497(3) 0.0051(2) 0.5702(3)
O4A O 0.5503(3) -0.0051(2) 0.4298(3)
O4C_2 O -0.5503(3) 0.0051(2) 1.5702(3)
O5B O 0.01631(18) 0.0895(2) 0.9152(2)
O6B O 0.13438(17) 0.08897(19) 0.8784(2)
O7B O -0.12076(17) 0.3988(2) 0.6233(2)
O7A O -0.12076(17) 0.1012(2) 1.1233(2)
O7C O 0.12076(17) -0.1012(2) 0.8767(2)
O8B O 0.00100(17) 0.4121(2) 0.5951(2)
O8C O -0.00100(17) -0.0879(2) 0.9049(2)
O8A O 0.00100(17) 0.0879(2) 1.0951(2)
O9B O -0.6995(2) 0.0593(3) 1.0336(3)
O10B O -0.71572(19) -0.0427(2) 0.9422(3)
O10B_2 O 0.28428(19) -0.0427(2) 0.9422(3)
O11B O 0.12882(15) -0.01211(17) 1.05069(18)
O12B O -0.3363(3) -0.2546(3) 1.5852(4)
O13 O 0.2853(13) -0.2095(15) 0.8734(18)
O14? O 0.2462(11) -0.2283(13) 0.9252(15)
loop_
_geom_bond_atom_site_label_1
_geom_bond_atom_site_label_2
_geom_bond_site_symmetry_1
_geom_bond_site_symmetry_2
Zn1 N1 1_555 1_555
Zn2 O6 1_555 1_555
Zn3 O5 1_555 1_555
C1 H1 1_555 1_555
C2 C1 1_555 1_555
H2 C2 1_555 1_555
C3 C2 1_555 1_555
H3 C3 1_555 1_555
C4 C3 1_555 1_555
C5 C4 1_555 1_555
H4 C5 1_555 1_555
C6 H5 1_555 1_555
H6 C6 1_555 1_555
C7 C6 1_555 1_555
C8 C7 1_555 1_555
H7 C8 1_555 1_555
C9 C8 1_555 1_555
H8 C9 1_555 1_555
C10 C9 1_555 1_555
C11 C10 1_555 1_555
H9 C11 1_555 1_555
C12 C7 1_555 1_555
H10 C12 1_555 1_555
C13 C10 1_555 1_555
C14 C13 1_555 1_555
H11 C14 1_555 1_555
C15 C14 1_555 1_555
H12 C15 1_555 1_555
C16 C15 1_555 1_555
C17 C16 1_555 1_555
H13 C17 1_555 1_555
C18 C13 1_555 1_555
H14 C18 1_555 1_555
C19 C16 1_555 1_555
H15 C19 1_555 1_555
H16 C19 1_555 1_555
C20 H17 1_555 1_555
C21 C20 1_555 1_555
C22 C21 1_555 1_555
H18 C22 1_555 1_555
C23 C22 1_555 1_555
H19 C23 1_555 1_555
C24 C23 1_555 1_555
H20 C24 1_555 1_555
C25 C26 1_555 1_555
C26 C27 1_555 1_555
C27 H21 1_555 1_555
C28 C27 1_555 1_555
H22 C28 1_555 1_555
C29 C28 1_555 1_555
C30 C29 1_555 1_555
C31 C29 1_555 1_555
H23 C31 1_555 1_555
C32 C26 1_555 1_555
H24 C32 1_555 1_555
C33 C35 1_555 1_555
C34 H25 1_555 1_555
C35 C34 1_555 1_555
C36 C35 1_555 1_555
H26 C36 1_555 1_555
C37 C36 1_555 1_555
H27 C37 1_555 1_555
C38 C37 1_555 1_555
C39 C34 1_555 1_555
H28 C39 1_555 1_555
C40 C38 1_555 1_555
C41 C42 1_555 1_555
C42 C43 1_555 1_555
C43 H29 1_555 1_555
C44 C42 1_555 1_555
H30 C44 1_555 1_555
N1 C1 1_555 1_555
N2 C19 1_555 1_555
O1 Zn1 1_555 1_555
O2 Zn1 1_555 1_555
O3 C30 1_555 1_555
O4 C30 1_555 1_555
O5 C40 1_555 1_555
O6 C40 1_555 1_555
O7 C33 1_555 1_555
O8 C33 1_555 1_555
O9 C41 1_555 1_555
O10 Zn2 1_555 1_555
O11 Zn2 1_555 1_555
O12 C4 1_555 1_555
Zn1B N1B 1_555 1_555
Zn1C O3 1_555 1_555
Zn1A O4 1_555 1_555
Zn1C_2 O1C 1_555 1_555
Zn1B_2 O4C 1_555 1_555
Zn2B O6B 1_555 1_555
Zn2A O7 1_555 1_555
Zn2B_2 O10B 1_555 1_555
Zn2C O7B 1_555 1_555
Zn3C O8 1_555 1_555
Zn3C_2 O8B 1_555 1_555
C1B H1B 1_555 1_555
C2B C1B 1_555 1_555
H2B C2B 1_555 1_555
C3B C2B 1_555 1_555
H3B C3B 1_555 1_555
C4B C3B 1_555 1_555
C5B C4B 1_555 1_555
H4B C5B 1_555 1_555
C6B H5B 1_555 1_555
H6B C6B 1_555 1_555
C7B C6B 1_555 1_555
C8B C7B 1_555 1_555
H7B C8B 1_555 1_555
C9B C8B 1_555 1_555
H8B C9B 1_555 1_555
C10B C9B 1_555 1_555
C11B C10B 1_555 1_555
H9B C11B 1_555 1_555
C12B C7B 1_555 1_555
H10B C12B 1_555 1_555
C13B C10B 1_555 1_555
C14B C13B 1_555 1_555
H11B C14B 1_555 1_555
C15B C14B 1_555 1_555
H12B C15B 1_555 1_555
C16B C15B 1_555 1_555
C17B C16B 1_555 1_555
H13B C17B 1_555 1_555
C18B C13B 1_555 1_555
H14B C18B 1_555 1_555
C19B C16B 1_555 1_555
H15B C19B 1_555 1_555
H16B C19B 1_555 1_555
C20B H17B 1_555 1_555
C21B C20B 1_555 1_555
C22B C21B 1_555 1_555
H18B C22B 1_555 1_555
C23B C22B 1_555 1_555
H19B C23B 1_555 1_555
C24B C23B 1_555 1_555
H20B C24B 1_555 1_555
C25C C26C 1_555 1_555
C26C C27C 1_555 1_555
C27C H21C 1_555 1_555
C28C C27C 1_555 1_555
H22C C28C 1_555 1_555
C29C C28C 1_555 1_555
C30C C29C 1_555 1_555
C31C C29C 1_555 1_555
H23C C31C 1_555 1_555
C32C C26C 1_555 1_555
H24C C32C 1_555 1_555
C33B C35B 1_555 1_555
C34B H25B 1_555 1_555
C35B C34B 1_555 1_555
C36B C35B 1_555 1_555
H26B C36B 1_555 1_555
C37B C36B 1_555 1_555
H27B C37B 1_555 1_555
C38B C37B 1_555 1_555
C39B C34B 1_555 1_555
H28B C39B 1_555 1_555
C40B C38B 1_555 1_555
C41B C42B 1_555 1_555
C42B C43B 1_555 1_555
C43B C44 1_555 1_555
H29B C43B 1_555 1_555
C44B C43 1_555 1_555
H30B C44B 1_555 1_555
N1B C1B 1_555 1_555
N2B C19B 1_555 1_555
O1C C25C 1_555 1_555
O1B Zn1B 1_555 1_555
O2C Zn1C_2 1_555 1_555
O2B Zn1B 1_555 1_555
O3C Zn1 1_555 1_555
O3A Zn1B 1_555 1_555
O4C C30C 1_555 1_555
O4A Zn1 1_555 1_555
O4C_2 Zn1B 1_555 1_555
O5B Zn3 1_555 1_555
O6B C40B 1_555 1_555
O7B C33B 1_555 1_555
O7A Zn2 1_555 1_555
O7C Zn2B 1_555 1_555
O8B C33B 1_555 1_555
O8C Zn3 1_555 1_555
O8A Zn3 1_555 1_555
O9B C41B 1_555 1_555
O10B C41B 1_555 1_555
O10B_2 Zn2B 1_555 1_555
O11B Zn3 1_555 1_555
O12B C4B 1_555 1_555
Zn3 O11 1_555 1_555
C5 N1 1_555 1_555
C6 O12 1_555 1_555
C11 C12 1_555 1_555
C17 C18 1_555 1_555
C20 N2 1_555 1_555
C21 O11 1_555 1_555
C24 N2 1_555 1_555
C25 O1 1_555 1_555
C25 O2 1_555 1_555
C31 C32 1_555 1_555
C38 C39 1_555 1_555
C41 O10 1_555 1_555
Zn2B O11B 1_555 1_555
C5B N1B 1_555 1_555
C6B O12B 1_555 1_555
C11B C12B 1_555 1_555
C17B C18B 1_555 1_555
C20B N2B 1_555 1_555
C21B O11B 1_555 1_555
C24B N2B 1_555 1_555
C25C O2C 1_555 1_555
C30C O3C 1_555 1_555
C31C C32C 1_555 1_555
C38B C39B 1_555 1_555
C40B O5B 1_555 1_555
C42B C44B 1_555 1_555

#END
