
#######################################################################
#
#                 Cambridge Crystallographic Data Centre
#                                CCDC 
#
#######################################################################
#
# If this CIF has been generated from an entry in the Cambridge 
# Structural Database, then it will include bibliographic, chemical, 
# crystal, experimental, refinement or atomic coordinate data resulting 
# from the CCDC's data processing and validation procedures.
#
#######################################################################

data_NISBEX
_symmetry_cell_setting           monoclinic
_symmetry_space_group_name_H-M   'P 21/c'
_symmetry_Int_Tables_number      14
_space_group_name_Hall           '-P 2ybc'
loop_
_symmetry_equiv_pos_site_id
_symmetry_equiv_pos_as_xyz
1 x,y,z
2 -x,1/2+y,1/2-z
3 -x,-y,-z
4 x,1/2-y,1/2+z
_cell_length_a                   12.4011(9)
_cell_length_b                   24.8971(18)
_cell_length_c                   8.7794(5)
_cell_angle_alpha                90
_cell_angle_beta                 92.262(3)
_cell_angle_gamma                90
_cell_volume                     2708.54
loop_
_atom_site_label
_atom_site_type_symbol
_atom_site_fract_x
_atom_site_fract_y
_atom_site_fract_z
La1 La 0.00204(2) 0.008463(10) 0.75475(3)
O1 O 0.0311(3) 0.09862(15) 0.6190(4)
O2 O 0.0918(3) 0.10350(14) 0.8573(4)
O3 O 0.7938(3) 0.00242(14) 1.2989(4)
O4 O 0.0250(3) -0.09053(14) 0.6779(4)
O5 O -0.1658(3) -0.04678(16) 0.8138(4)
O6 O 0.8909(3) 0.00364(13) 1.5137(4)
O7 O 0.8484(3) 0.42206(15) 1.3083(4)
O8 O 0.9162(2) 0.46116(13) 1.5164(3)
C1 C 0.0791(4) 0.12358(19) 0.7272(5)
C2 C 0.1177(4) 0.1790(2) 0.6861(6)
H1 H 0.1544 0.1766 0.5895
H2 H 0.0545 0.2021 0.6689
N1 N 0.1906(3) 0.20500(16) 0.7981(4)
N2 N 0.1912(4) 0.25855(16) 0.8097(5)
N3 N 0.2677(3) 0.27163(17) 0.9111(5)
C3 C 0.3171(4) 0.2264(2) 0.9649(5)
C4 C 0.2683(4) 0.1833(2) 0.8910(5)
H3 H 0.2855 0.1467 0.9028
C5 C 0.4054(4) 0.2252(2) 1.0813(5)
C6 C 0.4555(4) 0.2724(2) 1.1354(5)
H4 H 0.4332 0.3060 1.0971
C7 C 0.5395(4) 0.2688(2) 1.2479(5)
C8 C 0.5894(4) 0.3174(2) 1.3164(5)
N4 N 0.5470(4) 0.36707(19) 1.2951(5)
N5 N 0.6052(4) 0.40198(19) 1.3773(6)
N6 N 0.6834(3) 0.37437(17) 1.4506(4)
C9 C 0.6784(4) 0.3220(2) 1.4163(6)
H5 H 0.7248 0.2944 1.4519
C10 C 0.5723(4) 0.2186(2) 1.3006(5)
H6 H 0.6301 0.2163 1.3728
C11 C 0.5214(3) 0.1715(2) 1.2490(5)
C12 C 0.4373(4) 0.17560(19) 1.1384(5)
H7 H 0.4021 0.1444 1.1025
C13 C 0.5540(4) 0.1195(2) 1.3104(6)
C14 C 0.6292(4) 0.1075(2) 1.4250(6)
H8 H 0.6725 0.1318 1.4819
N7 N 0.6276(3) 0.05444(18) 1.4386(5)
N8 N 0.5556(4) 0.03195(19) 1.3381(5)
N9 N 0.5101(4) 0.07206(18) 1.2609(5)
C15 C 0.8009(3) 0.00815(19) 1.4404(5)
C16 C 0.7010(4) 0.0204(2) 1.5295(5)
H9 H 0.7221 0.0386 1.6250
H10 H 0.6647 -0.0132 1.5548
C17 C 0.8471(4) 0.43000(18) 1.4477(5)
C18 C 0.7634(4) 0.4039(2) 1.5443(5)
H11 H 0.7269 0.4316 1.6026
H12 H 0.7992 0.3792 1.6170
La1B La 0.99796(2) -0.008463(10) 1.24525(3)
La1_2 La 1.00204(2) 0.008463(10) 1.75475(3)
La1C La 1.00204(2) 0.491537(10) 1.25475(3)
La1A La 0.99796(2) 0.508463(10) 1.74525(3)
O3B O 0.2062(3) -0.00242(14) 0.7011(4)
O6_2 O -0.1091(3) 0.00364(13) 0.5137(4)
O6B O 0.1091(3) -0.00364(13) 0.4863(4)
O7C O -0.1516(3) 0.07794(15) 0.8083(4)
O8C O -0.0838(2) 0.03884(13) 1.0164(3)
O8A O 0.0838(2) -0.03884(13) 0.9836(3)
O9 O 0.9482(3) 0.83271(17) 0.8772(4)
O10 O 0.7372(4) 0.88716(17) 0.6009(5)
O11 O 0.3536(5) 0.4123(2) 0.1832(7)
O12 O 0.6464(5) 0.9703(3) 0.9634(8)
O13 O 0.1354(6) 0.7789(3) 0.7745(10)
O14 O 0.8334(5) 0.1857(3) 0.5524(10)
loop_
_geom_bond_atom_site_label_1
_geom_bond_atom_site_label_2
_geom_bond_site_symmetry_1
_geom_bond_site_symmetry_2
La1 O1 1_555 1_555
O1 C1 1_555 1_555
O2 La1 1_555 1_555
O3 C15 1_555 1_555
O4 La1 1_555 1_555
O5 La1 1_555 1_555
O6 C15 1_555 1_555
O7 C17 1_555 1_555
O8 C17 1_555 1_555
C1 O2 1_555 1_555
C2 C1 1_555 1_555
H1 C2 1_555 1_555
H2 C2 1_555 1_555
N1 C2 1_555 1_555
N2 N1 1_555 1_555
N3 N2 1_555 1_555
C3 N3 1_555 1_555
C4 N1 1_555 1_555
H3 C4 1_555 1_555
C5 C3 1_555 1_555
C6 C5 1_555 1_555
H4 C6 1_555 1_555
C7 C6 1_555 1_555
C8 C7 1_555 1_555
N4 C8 1_555 1_555
N5 N4 1_555 1_555
N6 N5 1_555 1_555
C9 C8 1_555 1_555
H5 C9 1_555 1_555
C10 C7 1_555 1_555
H6 C10 1_555 1_555
C11 C10 1_555 1_555
C12 C5 1_555 1_555
H7 C12 1_555 1_555
C13 C11 1_555 1_555
C14 C13 1_555 1_555
H8 C14 1_555 1_555
N7 C14 1_555 1_555
N8 N7 1_555 1_555
N9 C13 1_555 1_555
C15 C16 1_555 1_555
C16 N7 1_555 1_555
H9 C16 1_555 1_555
H10 C16 1_555 1_555
C17 C18 1_555 1_555
C18 N6 1_555 1_555
H11 C18 1_555 1_555
H12 C18 1_555 1_555
La1B O3 1_555 1_555
La1_2 O6 1_555 1_555
La1C O7 1_555 1_555
La1A O8 1_555 1_555
O3B La1 1_555 1_555
O6_2 La1 1_555 1_555
O6B La1 1_555 1_555
O7C La1 1_555 1_555
O8C La1 1_555 1_555
O8A La1 1_555 1_555
O6 La1B 1_555 1_555
O8 La1C 1_555 1_555
C3 C4 1_555 1_555
N6 C9 1_555 1_555
C11 C12 1_555 1_555
N8 N9 1_555 1_555

#END
