
#######################################################################
#
#                 Cambridge Crystallographic Data Centre
#                                CCDC 
#
#######################################################################
#
# If this CIF has been generated from an entry in the Cambridge 
# Structural Database, then it will include bibliographic, chemical, 
# crystal, experimental, refinement or atomic coordinate data resulting 
# from the CCDC's data processing and validation procedures.
#
#######################################################################

data_NISPOV
_symmetry_cell_setting           triclinic
_symmetry_space_group_name_H-M   'P -1'
_symmetry_Int_Tables_number      2
_space_group_name_Hall           '-P 1'
loop_
_symmetry_equiv_pos_site_id
_symmetry_equiv_pos_as_xyz
1 x,y,z
2 -x,-y,-z
_cell_length_a                   10.143(4)
_cell_length_b                   10.257(4)
_cell_length_c                   15.500(6)
_cell_angle_alpha                86.982(6)
_cell_angle_beta                 73.520(5)
_cell_angle_gamma                81.229(5)
_cell_volume                     1528.17
loop_
_atom_site_label
_atom_site_type_symbol
_atom_site_fract_x
_atom_site_fract_y
_atom_site_fract_z
N1 N 0.3472(8) 0.4650(7) 0.4123(6)
H13 H 0.4085 0.5230 0.3979
H14 H 0.3890 0.3887 0.3843
C22 C 0.3086(11) 0.4422(10) 0.5102(8)
H15 H 0.3905 0.4093 0.5285
H16 H 0.2450 0.3788 0.5256
H17 H 0.2653 0.5236 0.5403
C23 C 0.2261(10) 0.5162(10) 0.3800(8)
H18 H 0.2555 0.5290 0.3160
H19 H 0.1827 0.5988 0.4085
H20 H 0.1609 0.4542 0.3946
Zn1 Zn 0.48645(9) 0.24757(9) 0.15729(7)
Zn2 Zn 0.5000 0.5000 0.0000
Zn3 Zn 0.45532(10) 0.23912(9) -0.06595(7)
Zn4 Zn 0.45758(9) 0.77761(9) 0.30037(7)
Zn5 Zn 0.45864(9) 0.07837(9) 0.39344(7)
P1 P 0.5851(2) 0.50795(19) 0.19815(15)
P2 P 0.6402(2) -0.0458(2) 0.20262(15)
P3 P -0.3520(2) 0.1634(2) 0.48638(15)
O1 O 0.5472(5) 0.3000(5) 0.0287(4)
O2 O 0.5303(5) 0.5739(5) 0.1222(4)
O3 O 0.5306(5) 0.3783(5) 0.2266(4)
O4 O 0.5478(5) 0.5970(5) 0.2795(4)
O5 O 1.2673(5) 0.2905(5) 0.0166(4)
O6 O 1.2888(5) 0.4880(6) 0.0642(4)
O7 O 0.6137(5) -0.1629(5) 0.1593(4)
O8 O 0.6136(5) 0.0839(5) 0.1567(4)
O9 O 0.5499(5) -0.0538(5) 0.3011(4)
O10 O 1.3370(6) -0.1549(5) 0.1257(4)
O11 O 1.2768(5) -0.1739(6) 0.2762(4)
O12 O 0.3335(5) 0.2021(5) 0.3410(4)
O13 O 0.2917(6) 0.2166(6) 0.2081(4)
O14 O -0.3483(5) 0.0173(5) 0.5102(4)
O15 O -0.4414(5) 0.2060(5) 0.4234(4)
O16 O -0.3934(5) 0.2519(5) 0.5678(4)
C1 C 0.7730(7) 0.4753(7) 0.1593(5)
C2 C 0.8390(7) 0.3623(7) 0.1099(6)
H1 H 0.7865 0.3016 0.0989
C3 C 0.9825(8) 0.3400(8) 0.0773(6)
H2 H 1.0251 0.2643 0.0444
C4 C 1.0636(8) 0.4280(8) 0.0929(5)
C5 C 0.9994(8) 0.5383(8) 0.1427(6)
H3 H 1.0528 0.5976 0.1545
C6 C 0.8556(8) 0.5624(8) 0.1756(6)
H4 H 0.8139 0.6378 0.2091
C7 C 1.2197(9) 0.4014(8) 0.0551(6)
C8 C 0.8189(8) -0.0715(7) 0.2060(5)
C9 C 0.9236(8) -0.0549(10) 0.1277(6)
H5 H 0.9004 -0.0272 0.0751
C10 C 1.0631(9) -0.0791(9) 0.1270(6)
H6 H 1.1318 -0.0668 0.0741
C11 C 1.0991(8) -0.1201(7) 0.2022(6)
C12 C 0.9954(8) -0.1363(8) 0.2820(6)
H7 H 1.0189 -0.1629 0.3347
C13 C 0.8571(8) -0.1122(8) 0.2816(6)
H8 H 0.7885 -0.1242 0.3346
C14 C 1.2510(8) -0.1539(8) 0.2012(6)
C15 C 0.2533(8) 0.2034(7) 0.2919(6)
C16 C 0.1017(8) 0.1959(7) 0.3386(5)
C17 C 0.0048(8) 0.2192(8) 0.2912(6)
H9 H 0.0322 0.2382 0.2299
C18 C -0.1359(8) 0.2143(8) 0.3356(6)
H10 H -0.2025 0.2321 0.3042
C19 C -0.1746(8) 0.1826(7) 0.4266(6)
C20 C -0.0750(8) 0.1586(8) 0.4731(6)
H11 H -0.1011 0.1374 0.5341
C21 C 0.0632(8) 0.1661(8) 0.4294(6)
H12 H 0.1296 0.1512 0.4610
O17 O 0.4582(16) 0.0374(12) 0.0047(12)
Zn1A Zn 0.51355(9) 0.75243(9) -0.15729(7)
Zn1A_2 Zn 0.51355(9) -0.24757(9) -0.15729(7)
Zn1A_3 Zn -0.48645(9) 0.75243(9) 0.84271(7)
Zn2_2 Zn 1.5000 0.5000 0.0000
Zn2_3 Zn -0.5000 0.5000 0.0000
Zn3A Zn 0.54468(10) 0.76088(9) 0.06595(7)
Zn3_2 Zn 1.45532(10) 0.23912(9) -0.06595(7)
Zn3A_2 Zn 0.54468(10) -0.23912(9) 0.06595(7)
Zn3A_3 Zn 1.54468(10) -0.23912(9) 0.06595(7)
Zn3A_4 Zn -0.45532(10) 0.76088(9) 0.06595(7)
Zn3_3 Zn -0.54468(10) 0.23912(9) -0.06595(7)
Zn4A Zn 0.54242(9) 0.22239(9) -0.30037(7)
Zn4_2 Zn 0.45758(9) -0.22239(9) 0.30037(7)
Zn4_3 Zn 1.45758(9) -0.22239(9) 0.30037(7)
Zn4A_2 Zn -0.45758(9) 0.22239(9) 0.69963(7)
Zn4A_3 Zn -0.45758(9) 0.22239(9) -0.30037(7)
Zn5A Zn 0.54136(9) -0.07837(9) -0.39344(7)
Zn5A_2 Zn -0.45864(9) -0.07837(9) 0.60656(7)
Zn5_2 Zn -0.54136(9) 0.07837(9) 0.39344(7)
Zn5A_3 Zn -0.45864(9) 0.92163(9) 0.60656(7)
Zn5_3 Zn 0.45864(9) 1.07837(9) 0.39344(7)
Zn5A_4 Zn 0.54136(9) 0.92163(9) 0.60656(7)
P1A P 0.4149(2) 0.49205(19) -0.19815(15)
P2A P 0.3598(2) 0.0458(2) -0.20262(15)
P3A P 0.3520(2) 0.8366(2) 0.51362(15)
O1A O 0.4528(5) 0.7000(5) -0.0287(4)
O2A O 0.4697(5) 0.4261(5) -0.1222(4)
O3A O 0.4694(5) 0.6217(5) -0.2266(4)
O4A O 0.4522(5) 0.4030(5) -0.2795(4)
O5A O -0.2673(5) 0.7095(5) -0.0166(4)
O5_2 O 0.2673(5) 0.2905(5) 0.0166(4)
O5A_2 O 0.7327(5) 0.7095(5) -0.0166(4)
O6A O -0.2888(5) 0.5120(6) -0.0642(4)
O6_2 O 0.2888(5) 0.4880(6) 0.0642(4)
O6A_2 O 0.7112(5) 0.5120(6) -0.0642(4)
O7A O 0.3863(5) 0.1629(5) -0.1593(4)
O7_2 O 0.6137(5) 0.8371(5) 0.1593(4)
O8A O 0.3864(5) -0.0839(5) -0.1567(4)
O8A_2 O 0.3864(5) 0.9161(5) -0.1567(4)
O9A O 0.4501(5) 0.0538(5) -0.3011(4)
O9_2 O 0.5499(5) 0.9462(5) 0.3011(4)
O10A O -0.3370(6) 0.1549(5) -0.1257(4)
O10A_2 O 0.6630(6) 0.1549(5) -0.1257(4)
O10_2 O 0.3370(6) 0.8451(5) 0.1257(4)
O11A O -0.2768(5) 0.1739(6) -0.2762(4)
O11_2 O 0.2768(5) 0.8261(6) 0.2762(4)
O11A_2 O 0.7232(5) 0.1739(6) -0.2762(4)
O12A O -0.3335(5) 0.7979(5) 0.6590(4)
O12A_2 O 0.6665(5) -0.2021(5) -0.3410(4)
O13A O -0.2917(6) 0.7834(6) 0.7919(4)
O13A_2 O 0.7083(6) 0.7834(6) -0.2081(4)
O14A O 0.3483(5) 0.9827(5) 0.4898(4)
O14A_2 O 0.3483(5) -0.0173(5) 0.4898(4)
O14_2 O 0.6517(5) 0.0173(5) -0.4898(4)
O15A O 0.4414(5) 0.7940(5) 0.5766(4)
O15_2 O 0.5586(5) 0.2060(5) 0.4234(4)
O15A_2 O 0.4414(5) -0.2060(5) -0.4234(4)
O16A O 0.3934(5) 0.7481(5) 0.4322(4)
O16_2 O 0.6066(5) 0.2519(5) -0.4322(4)
C1A C 0.2270(7) 0.5247(7) -0.1593(5)
C2A C 0.1610(7) 0.6377(7) -0.1099(6)
H1A H 0.2135 0.6984 -0.0989
C3A C 0.0175(8) 0.6600(8) -0.0773(6)
H2A H -0.0251 0.7357 -0.0444
C4A C -0.0636(8) 0.5720(8) -0.0929(5)
C5A C 0.0006(8) 0.4617(8) -0.1427(6)
H3A H -0.0528 0.4024 -0.1545
C6A C 0.1444(8) 0.4376(8) -0.1756(6)
H4A H 0.1861 0.3622 -0.2091
C7A C -0.2197(9) 0.5986(8) -0.0551(6)
C8A C 0.1811(8) 0.0715(7) -0.2060(5)
C9A C 0.0764(8) 0.0549(10) -0.1277(6)
H5A H 0.0996 0.0272 -0.0751
C10A C -0.0631(9) 0.0791(9) -0.1270(6)
H6A H -0.1318 0.0668 -0.0741
C11A C -0.0991(8) 0.1201(7) -0.2022(6)
C12A C 0.0046(8) 0.1363(8) -0.2820(6)
H7A H -0.0189 0.1629 -0.3347
C13A C 0.1429(8) 0.1122(8) -0.2816(6)
H8A H 0.2115 0.1242 -0.3346
C14A C -0.2510(8) 0.1539(8) -0.2012(6)
C15A C -0.2533(8) 0.7966(7) 0.7081(6)
C16A C -0.1017(8) 0.8041(7) 0.6614(5)
C17A C -0.0048(8) 0.7808(8) 0.7088(6)
H9A H -0.0322 0.7618 0.7701
C18A C 0.1359(8) 0.7857(8) 0.6644(6)
H10A H 0.2025 0.7679 0.6958
C19A C 0.1746(8) 0.8174(7) 0.5734(6)
C20A C 0.0750(8) 0.8414(8) 0.5269(6)
H11A H 0.1011 0.8626 0.4659
C21A C -0.0632(8) 0.8339(8) 0.5706(6)
H12A H -0.1296 0.8488 0.5390
O17A O 0.5418(16) -0.0374(12) -0.0047(12)
O17A_2 O 0.5418(16) 0.9626(12) -0.0047(12)
loop_
_geom_bond_atom_site_label_1
_geom_bond_atom_site_label_2
_geom_bond_site_symmetry_1
_geom_bond_site_symmetry_2
Zn1 O1 1_555 1_555
Zn2 O1 1_555 1_555
Zn3 O1 1_555 1_555
Zn4 O4 1_555 1_555
Zn5 O9 1_555 1_555
P1 O2 1_555 1_555
P2 O7 1_555 1_555
P3 O14 1_555 1_555
O2 Zn2 1_555 1_555
O3 Zn1 1_555 1_555
O4 P1 1_555 1_555
O5 C7 1_555 1_555
O6 C7 1_555 1_555
O7 Zn3A_2 1_555 1_555
O8 Zn1 1_555 1_555
O9 P2 1_555 1_555
O10 C14 1_555 1_555
O11 C14 1_555 1_555
O12 Zn5 1_555 1_555
O13 Zn1 1_555 1_555
O14 Zn5A_2 1_555 1_555
O15 P3 1_555 1_555
O16 P3 1_555 1_555
C1 P1 1_555 1_555
C2 C1 1_555 1_555
H1 C2 1_555 1_555
C3 C2 1_555 1_555
H2 C3 1_555 1_555
C4 C3 1_555 1_555
C5 C4 1_555 1_555
H3 C5 1_555 1_555
C6 C1 1_555 1_555
H4 C6 1_555 1_555
C7 C4 1_555 1_555
C8 P2 1_555 1_555
C9 C8 1_555 1_555
H5 C9 1_555 1_555
C10 C9 1_555 1_555
H6 C10 1_555 1_555
C11 C10 1_555 1_555
C12 C11 1_555 1_555
H7 C12 1_555 1_555
C13 C8 1_555 1_555
H8 C13 1_555 1_555
C14 C11 1_555 1_555
C15 O12 1_555 1_555
C16 C15 1_555 1_555
C17 C16 1_555 1_555
H9 C17 1_555 1_555
C18 C17 1_555 1_555
H10 C18 1_555 1_555
C19 P3 1_555 1_555
C20 C19 1_555 1_555
H11 C20 1_555 1_555
C21 C16 1_555 1_555
H12 C21 1_555 1_555
N1 H13 1_555 1_555
H14 N1 1_555 1_555
C22 N1 1_555 1_555
H15 C22 1_555 1_555
H16 C22 1_555 1_555
H17 C22 1_555 1_555
C23 N1 1_555 1_555
H18 C23 1_555 1_555
H19 C23 1_555 1_555
H20 C23 1_555 1_555
O17 Zn3 1_555 1_555
Zn1A O1A 1_555 1_555
Zn1A_2 O8A 1_555 1_555
Zn1A_3 O13A 1_555 1_555
Zn2_2 O6 1_555 1_555
Zn2_3 O6A 1_555 1_555
Zn3A O2 1_555 1_555
Zn3_2 O5 1_555 1_555
Zn3A_2 O17A 1_555 1_555
Zn3A_3 O10 1_555 1_555
Zn3A_4 O5A 1_555 1_555
Zn3_3 O10A 1_555 1_555
Zn4A O4A 1_555 1_555
Zn4_2 O7 1_555 1_555
Zn4_3 O11 1_555 1_555
Zn4A_2 O16 1_555 1_555
Zn4A_3 O11A 1_555 1_555
Zn5A O9A 1_555 1_555
Zn5_2 O15 1_555 1_555
Zn5A_3 O12A 1_555 1_555
Zn5_3 O9_2 1_555 1_555
Zn5A_4 O15A 1_555 1_555
P1A O2A 1_555 1_555
P2A O7A 1_555 1_555
P3A O14A 1_555 1_555
O1A Zn2 1_555 1_555
O2A Zn2 1_555 1_555
O3A Zn1A 1_555 1_555
O4A P1A 1_555 1_555
O5A C7A 1_555 1_555
O5_2 Zn3 1_555 1_555
O5A_2 Zn3A 1_555 1_555
O6A C7A 1_555 1_555
O6_2 Zn2 1_555 1_555
O6A_2 Zn2 1_555 1_555
O7A Zn3 1_555 1_555
O7_2 Zn4 1_555 1_555
O8A P2A 1_555 1_555
O8A_2 Zn1A 1_555 1_555
O9A Zn4A 1_555 1_555
O9_2 Zn4 1_555 1_555
O10A C14A 1_555 1_555
O10A_2 Zn3 1_555 1_555
O10_2 Zn3A 1_555 1_555
O11A C14A 1_555 1_555
O11_2 Zn4 1_555 1_555
O11A_2 Zn4A 1_555 1_555
O12A C15A 1_555 1_555
O12A_2 Zn5A 1_555 1_555
O13A C15A 1_555 1_555
O13A_2 Zn1A 1_555 1_555
O14A Zn5_3 1_555 1_555
O14A_2 Zn5 1_555 1_555
O14_2 Zn5A 1_555 1_555
O15A P3A 1_555 1_555
O15_2 Zn5 1_555 1_555
O15A_2 Zn5A 1_555 1_555
O16A Zn4 1_555 1_555
O16_2 Zn4A 1_555 1_555
C1A P1A 1_555 1_555
C2A C1A 1_555 1_555
H1A C2A 1_555 1_555
C3A C2A 1_555 1_555
H2A C3A 1_555 1_555
C4A C3A 1_555 1_555
C5A C4A 1_555 1_555
H3A C5A 1_555 1_555
C6A C1A 1_555 1_555
H4A C6A 1_555 1_555
C7A C4A 1_555 1_555
C8A P2A 1_555 1_555
C9A C8A 1_555 1_555
H5A C9A 1_555 1_555
C10A C9A 1_555 1_555
H6A C10A 1_555 1_555
C11A C10A 1_555 1_555
C12A C11A 1_555 1_555
H7A C12A 1_555 1_555
C13A C8A 1_555 1_555
H8A C13A 1_555 1_555
C14A C11A 1_555 1_555
C15A C16A 1_555 1_555
C16A C17A 1_555 1_555
C17A H9A 1_555 1_555
C18A C17A 1_555 1_555
H10A C18A 1_555 1_555
C19A P3A 1_555 1_555
C20A C19A 1_555 1_555
H11A C20A 1_555 1_555
C21A C16A 1_555 1_555
H12A C21A 1_555 1_555
O17A O17 1_555 1_555
O17A_2 Zn3A 1_555 1_555
Zn3 O2A 1_555 1_555
P1 O3 1_555 1_555
P2 O8 1_555 1_555
O9 Zn4_2 1_555 1_555
O13 C15 1_555 1_555
C5 C6 1_555 1_555
C12 C13 1_555 1_555
C18 C19 1_555 1_555
C20 C21 1_555 1_555
Zn3A O1A 1_555 1_555
Zn3A O7_2 1_555 1_555
Zn4A O7A 1_555 1_555
P1A O3A 1_555 1_555
P2A O9A 1_555 1_555
P3A O16A 1_555 1_555
C5A C6A 1_555 1_555
C12A C13A 1_555 1_555
C18A C19A 1_555 1_555
C20A C21A 1_555 1_555

#END
