
#######################################################################
#
#                 Cambridge Crystallographic Data Centre
#                                CCDC 
#
#######################################################################
#
# If this CIF has been generated from an entry in the Cambridge 
# Structural Database, then it will include bibliographic, chemical, 
# crystal, experimental, refinement or atomic coordinate data resulting 
# from the CCDC's data processing and validation procedures.
#
#######################################################################

data_NIWYAV
_symmetry_cell_setting           tetragonal
_symmetry_space_group_name_H-M   'I 4 c m'
_symmetry_Int_Tables_number      108
_space_group_name_Hall           'I 4 -2c'
loop_
_symmetry_equiv_pos_site_id
_symmetry_equiv_pos_as_xyz
1 x,y,z
2 -x,-y,z
3 -y,x,z
4 y,-x,z
5 x,-y,1/2+z
6 -x,y,1/2+z
7 -y,-x,1/2+z
8 y,x,1/2+z
9 1/2+x,1/2+y,1/2+z
10 1/2-x,1/2-y,1/2+z
11 1/2-y,1/2+x,1/2+z
12 1/2+y,1/2-x,1/2+z
13 1/2+x,1/2-y,z
14 1/2-x,1/2+y,z
15 1/2-y,1/2-x,z
16 1/2+y,1/2+x,z
_cell_length_a                   20.780(3)
_cell_length_b                   20.780(3)
_cell_length_c                   17.677(4)
_cell_angle_alpha                90
_cell_angle_beta                 90
_cell_angle_gamma                90
_cell_volume                     7633.08
loop_
_atom_site_label
_atom_site_type_symbol
_atom_site_fract_x
_atom_site_fract_y
_atom_site_fract_z
Zn1 Zn 0.33692(4) 0.16308(4) 0.84598(6)
Zn2 Zn 0.37464(5) 0.24631(5) 0.69815(9)
O1 O 0.3400(5) 0.1600(5) 0.9640(7)
O2 O 0.3354(3) 0.1646(3) 0.7255(5)
O3 O 0.2636(3) 0.3342(5) 0.3543(4)
O4 O 0.5634(3) 0.1700(3) 0.3413(4)
O5 O 0.3721(4) 0.2650(5) 0.5914(5)
O6 O 0.3134(4) 0.3194(4) 0.2441(3)
O7 O 0.4142(3) 0.1451(3) 0.6754(3)
C1 C 0.4679(4) 0.2287(5) 0.3523(5)
O8 O 0.4382(5) 0.1829(6) 0.5818(4)
C2 C 0.4085(5) 0.2361(5) 0.4674(5)
C3 C 0.3093(4) 0.3120(5) 0.3137(5)
C4 C 0.3632(4) 0.2793(5) 0.3537(5)
C5 C 0.4066(5) 0.2254(6) 0.5529(5)
C6 C 0.4617(5) 0.2159(5) 0.4285(5)
H1 H 0.4940 0.1933 0.4536
O9 O 0.5426(4) 0.2452(4) 0.2524(4)
C7 C 0.3595(5) 0.2674(5) 0.4315(5)
H2 H 0.3236 0.2807 0.4588
C8 C 0.4177(4) 0.2608(6) 0.3139(5)
H3 H 0.4211 0.2695 0.2624
C9 C 0.5296(5) 0.2127(6) 0.3110(5)
Zn2N Zn 0.25369(5) 0.12536(5) 0.69815(9)
O3N O 0.1658(5) 0.2364(3) 0.3543(4)
O4N O 0.3300(3) -0.0634(3) 0.3413(4)
O5N O 0.2350(5) 0.1279(4) 0.5914(5)
O6N O 0.1806(4) 0.1866(4) 0.2441(3)
O7N O 0.3549(3) 0.0858(3) 0.6754(3)
C1N C 0.2713(5) 0.0321(4) 0.3523(5)
O8N O 0.3171(6) 0.0618(5) 0.5818(4)
C2N C 0.2639(5) 0.0915(5) 0.4674(5)
C3N C 0.1880(5) 0.1907(4) 0.3137(5)
C4N C 0.2207(5) 0.1368(4) 0.3537(5)
C5N C 0.2746(6) 0.0934(5) 0.5529(5)
C6N C 0.2841(5) 0.0383(5) 0.4285(5)
H1N H 0.3067 0.0060 0.4536
O9N O 0.2548(4) -0.0426(4) 0.2524(4)
C7N C 0.2326(5) 0.1405(5) 0.4315(5)
H2N H 0.2193 0.1764 0.4588
C8N C 0.2392(6) 0.0823(4) 0.3139(5)
H3N H 0.2305 0.0789 0.2624
C9N C 0.2873(6) -0.0296(5) 0.3110(5)
Zn1D Zn 0.33692(4) -0.16308(4) 0.34598(6)
Zn1E Zn 0.66308(4) 0.16308(4) 0.34598(6)
Zn1G Zn 0.16308(4) 0.33692(4) 0.34598(6)
Zn2E Zn 0.62536(5) 0.24631(5) 0.19815(9)
Zn2G Zn 0.24631(5) 0.37464(5) 0.19815(9)
Zn2I Zn 0.12536(5) 0.25369(5) 0.19815(9)
Zn2J Zn 0.25369(5) -0.12536(5) 0.19815(9)
O3G O 0.3342(5) 0.2636(3) 0.8543(4)
O3I O 0.2364(3) 0.1658(5) 0.8543(4)
O4E O 0.4366(3) 0.1700(3) 0.8413(4)
O4J O 0.3300(3) 0.0634(3) 0.8413(4)
O6G O 0.3194(4) 0.3134(4) 0.7441(3)
O6I O 0.1866(4) 0.1806(4) 0.7441(3)
O9E O 0.4574(4) 0.2452(4) 0.7524(4)
O9J O 0.2548(4) 0.0426(4) 0.7524(4)
loop_
_geom_bond_atom_site_label_1
_geom_bond_atom_site_label_2
_geom_bond_site_symmetry_1
_geom_bond_site_symmetry_2
Zn1 O1 1_555 1_555
Zn2 O2 1_555 1_555
O2 Zn1 1_555 1_555
O3 C3 1_555 1_555
O4 C9 1_555 1_555
O5 Zn2 1_555 1_555
O6 C3 1_555 1_555
O7 Zn2 1_555 1_555
C1 C6 1_555 1_555
O8 C5 1_555 1_555
C2 C5 1_555 1_555
C3 C4 1_555 1_555
C4 C7 1_555 1_555
C5 O5 1_555 1_555
C6 C2 1_555 1_555
H1 C6 1_555 1_555
O9 C9 1_555 1_555
C7 C2 1_555 1_555
H2 C7 1_555 1_555
C8 C1 1_555 1_555
H3 C8 1_555 1_555
C9 C1 1_555 1_555
Zn2N O2 1_555 1_555
O3N C3N 1_555 1_555
O4N C9N 1_555 1_555
O5N Zn2N 1_555 1_555
O6N C3N 1_555 1_555
O7N Zn2N 1_555 1_555
C1N C6N 1_555 1_555
O8N C5N 1_555 1_555
C2N C5N 1_555 1_555
C3N C4N 1_555 1_555
C4N C7N 1_555 1_555
C5N O5N 1_555 1_555
C6N C2N 1_555 1_555
H1N C6N 1_555 1_555
O9N C9N 1_555 1_555
C7N C2N 1_555 1_555
H2N C7N 1_555 1_555
C8N C1N 1_555 1_555
H3N C8N 1_555 1_555
C9N C1N 1_555 1_555
Zn1D O4N 1_555 1_555
Zn1E O4 1_555 1_555
Zn1G O3 1_555 1_555
Zn2E O9 1_555 1_555
Zn2G O6 1_555 1_555
Zn2I O6N 1_555 1_555
Zn2J O9N 1_555 1_555
O3G Zn1 1_555 1_555
O3I Zn1 1_555 1_555
O4E Zn1 1_555 1_555
O4J Zn1 1_555 1_555
O6G Zn2 1_555 1_555
O6I Zn2N 1_555 1_555
O9E Zn2 1_555 1_555
O9J Zn2N 1_555 1_555
C4 C8 1_555 1_555
O3N Zn1G 1_555 1_555
C4N C8N 1_555 1_555

#END
