
#######################################################################
#
#                 Cambridge Crystallographic Data Centre
#                                CCDC 
#
#######################################################################
#
# If this CIF has been generated from an entry in the Cambridge 
# Structural Database, then it will include bibliographic, chemical, 
# crystal, experimental, refinement or atomic coordinate data resulting 
# from the CCDC's data processing and validation procedures.
#
#######################################################################

data_NOCYUB
_symmetry_cell_setting           triclinic
_symmetry_space_group_name_H-M   'P -1'
_symmetry_Int_Tables_number      2
_space_group_name_Hall           '-P 1'
loop_
_symmetry_equiv_pos_site_id
_symmetry_equiv_pos_as_xyz
1 x,y,z
2 -x,-y,-z
_cell_length_a                   7.875(7)
_cell_length_b                   13.898(13)
_cell_length_c                   13.910(13)
_cell_angle_alpha                107.624(12)
_cell_angle_beta                 97.416(14)
_cell_angle_gamma                97.310(13)
_cell_volume                     1416.36
loop_
_atom_site_label
_atom_site_type_symbol
_atom_site_fract_x
_atom_site_fract_y
_atom_site_fract_z
Sr1 Sr 0.60519(17) 0.70340(10) 0.20327(10)
C1 C 0.9748(16) 0.6621(9) 0.5210(9)
C2 C 0.9127(17) 0.5966(10) 0.4216(9)
C3 C 0.782(2) 0.5134(13) 0.4048(12)
H1 H 0.7367 0.4700 0.3385
C4 C 0.720(2) 0.4955(12) 0.4870(14)
H2 H 0.6383 0.4374 0.4776
C5 C 0.780(3) 0.5645(13) 0.5820(14)
H3 H 0.7320 0.5549 0.6369
C6 C 1.121(2) 0.7527(13) 0.5509(11)
C7 C 0.9749(17) 0.6117(11) 0.3274(10)
C8 C 0.7851(15) 0.6418(12) -0.1439(12)
C9 C 0.6495(19) 0.6012(11) -0.1050(11)
C10 C 0.4849(16) 0.6252(10) -0.1235(10)
H4 H 0.3941 0.5980 -0.0975
C11 C 0.4560(14) 0.6897(10) -0.1809(10)
H5 H 0.3459 0.7057 -0.1932
C12 C 0.5916(18) 0.7303(10) -0.2197(10)
H6 H 0.5723 0.7735 -0.2581
N1 N 0.7562(16) 0.7064(11) -0.2012(11)
C13 C 0.9705(14) 0.6268(12) -0.1264(12)
C14 C 0.673(3) 0.5264(17) -0.048(2)
C15 C 0.9736(17) 1.0202(10) 0.1619(10)
C16 C 0.9125(17) 0.9203(8) 0.0957(11)
C17 C 0.784(2) 0.9063(12) 0.0135(12)
H7 H 0.72(2) 0.824(13) -0.025(13)
C18 C 0.719(2) 0.9863(13) -0.0042(13)
H8 H 0.6349 0.9757 -0.0617
C19 C 0.778(3) 1.0826(13) 0.0639(12)
H9 H 0.7305 1.1375 0.0540
C20 C 1.1203(18) 1.0509(11) 0.2524(12)
C21 C 0.9726(17) 0.8270(8) 0.1111(10)
N2 N 0.9040(16) 0.6450(9) 0.5994(9)
O1 O 1.1683(16) 0.7954(12) 0.6452(9)
Zn1 Zn 0.9988(4) 0.75918(13) 0.74086(14)
Sr2 Sr 1.04672(15) 0.62629(8) 0.12646(9)
O2 O 1.1877(18) 0.7731(10) 0.4825(9)
O3 O 1.1072(12) 0.5811(8) 0.2995(7)
N3 N 0.9057(16) 1.0997(8) 0.1455(9)
O4 O 0.8710(15) 0.6473(11) 0.2756(9)
O5 O 1.0637(16) 0.6636(8) -0.1776(8)
O6 O 0.9990(17) 0.5731(8) -0.0736(9)
O7 O 0.6617(15) 0.4176(11) -0.0805(13)
O8 O 0.7037(12) 0.5568(8) 0.0568(8)
O9 O 1.1669(15) 1.1454(8) 0.2980(11)
O10 O 1.1887(18) 0.9829(9) 0.2737(10)
O11 O 0.8692(14) 0.7745(8) 0.1462(11)
O12 O 1.1071(13) 0.7998(7) 0.0805(8)
O13 O 0.707(3) 0.8577(14) 0.3585(15)
O14 O 0.4764(14) 0.6226(10) 0.3295(10)
H10 H 0.3720 0.5987 0.2982
H11 H 0.5010 0.6636 0.3912
O15 O 1.2689(14) 0.7757(8) 0.2764(8)
H12 H 1.2193 0.8270 0.2760
H13 H 1.2909 0.7791 0.3394
O16 O 0.4746(14) 0.8301(9) 0.1235(10)
H14 H 0.5151 0.8910 0.1638
H15 H 0.3711 0.8197 0.0906
Sr1A Sr 0.39481(17) 0.29660(10) -0.20327(10)
N1_2 N 0.7562(16) 0.7064(11) 0.7988(11)
Zn1_2 Zn 0.9988(4) 0.75918(13) -0.25914(14)
Zn1A Zn 1.0012(4) 1.24082(13) 0.25914(14)
Sr2A Sr 0.95328(15) 0.37371(8) -0.12646(9)
N3A N 1.0943(16) 0.9003(8) 0.8545(9)
O5_2 O 1.0637(16) 0.6636(8) 0.8224(8)
O6A O 1.0010(17) 0.4269(8) 0.0736(9)
O7A O 0.3383(15) 0.5824(11) 0.0805(13)
O7A_2 O 1.3383(15) 0.5824(11) 0.0805(13)
O9A O 0.8331(15) 0.8546(8) 0.7020(11)
O17 O 0.555(2) 0.0327(13) 0.2510(15)
H16 H 0.5063 0.0130 0.2951
H17 H 0.6333 0.0865 0.2741
O18 O 0.555(2) 0.7517(14) 0.5354(14)
H18 H 0.5639 0.8036 0.5141
H19 H 0.4735 0.7573 0.5707
loop_
_geom_bond_atom_site_label_1
_geom_bond_atom_site_label_2
_geom_bond_site_symmetry_1
_geom_bond_site_symmetry_2
Sr1 O4 1_555 1_555
C1 C2 1_555 1_555
C2 C3 1_555 1_555
C3 H1 1_555 1_555
C4 C3 1_555 1_555
H2 C4 1_555 1_555
C5 C4 1_555 1_555
H3 C5 1_555 1_555
C6 C1 1_555 1_555
C7 C2 1_555 1_555
C8 C9 1_555 1_555
C9 C10 1_555 1_555
C10 H4 1_555 1_555
C11 C10 1_555 1_555
H5 C11 1_555 1_555
C12 C11 1_555 1_555
H6 C12 1_555 1_555
N1 C8 1_555 1_555
C13 C8 1_555 1_555
C14 C9 1_555 1_555
C15 C16 1_555 1_555
C16 C17 1_555 1_555
C17 H7 1_555 1_555
C18 C17 1_555 1_555
H8 C18 1_555 1_555
C19 C18 1_555 1_555
H9 C19 1_555 1_555
C20 C15 1_555 1_555
C21 C16 1_555 1_555
N2 C1 1_555 1_555
O1 C6 1_555 1_555
Zn1 N2 1_555 1_555
Sr2 O3 1_555 1_555
O2 C6 1_555 1_555
O3 C7 1_555 1_555
N3 C15 1_555 1_555
O4 C7 1_555 1_555
O5 C13 1_555 1_555
O6 C13 1_555 1_555
O7 C14 1_555 1_555
O8 Sr1 1_555 1_555
O9 C20 1_555 1_555
O10 C20 1_555 1_555
O11 Sr1 1_555 1_555
O12 C21 1_555 1_555
O13 Sr1 1_555 1_555
O14 Sr1 1_555 1_555
H10 O14 1_555 1_555
H11 O14 1_555 1_555
O15 Sr2 1_555 1_555
H12 O15 1_555 1_555
H13 O15 1_555 1_555
O16 Sr1 1_555 1_555
H14 O16 1_555 1_555
H15 O16 1_555 1_555
O17 H16 1_555 1_555
H17 O17 1_555 1_555
O18 H18 1_555 1_555
H19 O18 1_555 1_555
Sr1A O7 1_555 1_555
N1_2 Zn1 1_555 1_555
Zn1_2 N1 1_555 1_555
Zn1A N3 1_555 1_555
Sr2A O6 1_555 1_555
N3A Zn1 1_555 1_555
O5_2 Zn1 1_555 1_555
O6A Sr2 1_555 1_555
O7A Sr1 1_555 1_555
O7A_2 Sr2 1_555 1_555
O9A Zn1 1_555 1_555
C5 N2 1_555 1_555
C12 N1 1_555 1_555
C14 O8 1_555 1_555
C19 N3 1_555 1_555
C21 O11 1_555 1_555
O1 Zn1 1_555 1_555
Sr2 O4 1_555 1_555
Sr2 O6 1_555 1_555
Sr2 O8 1_555 1_555
Sr2 O11 1_555 1_555
Sr2 O12 1_555 1_555
O5 Zn1_2 1_555 1_555
O7 Sr2A 1_555 1_555
O9 Zn1A 1_555 1_555
Sr2A O6A 1_555 1_555

#END
