
#######################################################################
#
#                 Cambridge Crystallographic Data Centre
#                                CCDC 
#
#######################################################################
#
# If this CIF has been generated from an entry in the Cambridge 
# Structural Database, then it will include bibliographic, chemical, 
# crystal, experimental, refinement or atomic coordinate data resulting 
# from the CCDC's data processing and validation procedures.
#
#######################################################################

data_NOCZAI
_symmetry_cell_setting           triclinic
_symmetry_space_group_name_H-M   'P -1'
_symmetry_Int_Tables_number      2
_space_group_name_Hall           '-P 1'
loop_
_symmetry_equiv_pos_site_id
_symmetry_equiv_pos_as_xyz
1 x,y,z
2 -x,-y,-z
_cell_length_a                   7.834(5)
_cell_length_b                   13.782(9)
_cell_length_c                   13.798(9)
_cell_angle_alpha                107.577(10)
_cell_angle_beta                 97.328(10)
_cell_angle_gamma                97.034(10)
_cell_volume                     1388.03
loop_
_atom_site_label
_atom_site_type_symbol
_atom_site_fract_x
_atom_site_fract_y
_atom_site_fract_z
Sr1 Sr 0.60210(14) 0.70232(9) 0.20543(9)
C1 C 0.9666(15) 0.6574(9) 0.5222(9)
N1 N 0.8891(16) 0.6406(8) 0.5998(8)
O1 O 1.1596(12) 0.7858(9) 0.6519(7)
Ni1 Ni 0.9748(3) 0.75517(13) 0.73631(13)
Sr2 Sr 1.04431(13) 0.62649(7) 0.12700(7)
C2 C 0.9118(15) 0.5921(10) 0.4213(9)
O2 O 1.1880(15) 0.7699(8) 0.4891(8)
N2 N 0.7489(16) 0.7105(9) -0.2026(9)
O3 O 1.1084(11) 0.5806(7) 0.3006(6)
N3 N 0.9190(16) 1.1081(8) 0.1492(8)
C3 C 0.7828(18) 0.5072(11) 0.4034(11)
H1 H 0.7452 0.4618 0.3366
O4 O 0.8679(12) 0.6404(9) 0.2736(7)
C4 C 0.711(2) 0.4896(11) 0.4817(11)
H2 H 0.6269 0.4318 0.4703
O5 O 1.0615(14) 0.6602(8) -0.1835(8)
C5 C 0.768(2) 0.5607(10) 0.5800(12)
H3 H 0.7163 0.5505 0.6341
O6 O 1.0008(10) 0.5739(6) -0.0752(6)
C6 C 1.1156(16) 0.7468(11) 0.5543(10)
O7 O 0.6640(13) 0.4308(9) -0.0922(9)
C7 C 0.9753(16) 0.6075(10) 0.3277(9)
O8 O 0.7030(11) 0.5614(7) 0.0523(7)
C8 C 0.7838(15) 0.6464(11) -0.1471(11)
O9 O 1.1658(13) 1.1466(7) 0.3094(9)
C9 C 0.640(2) 0.6036(11) -0.1060(11)
O10 O 1.1899(16) 0.9822(8) 0.2774(9)
C10 C 0.4878(18) 0.6286(10) -0.1241(10)
H4 H 0.3963 0.6014 -0.0980
O11 O 0.8683(12) 0.7795(8) 0.1543(10)
C11 C 0.454(2) 0.6969(12) -0.1830(12)
H5 H 0.3442 0.7140 -0.1956
O12 O 1.1007(11) 0.8001(6) 0.0839(7)
C12 C 0.5905(18) 0.7343(12) -0.2185(12)
H6 H 0.5735 0.7791 -0.2561
C13 C 0.9685(15) 0.6274(10) -0.1329(9)
O13 O 0.695(2) 0.8573(12) 0.3644(12)
O14 O 0.4768(13) 0.6213(8) 0.3324(8)
H7 H 0.3723 0.5973 0.3011
H8 H 0.5013 0.6623 0.3942
C14 C 0.675(2) 0.5286(12) -0.0476(12)
O15 O 1.2664(13) 0.7749(7) 0.2782(7)
H9 H 1.2167 0.8262 0.2777
H10 H 1.2883 0.7783 0.3412
C15 C 0.9790(14) 1.0257(9) 0.1662(9)
C16 C 0.9113(15) 0.9256(8) 0.1018(10)
O16 O 0.4709(13) 0.8284(8) 0.1233(8)
H11 H 0.5114 0.8894 0.1636
H12 H 0.3674 0.8180 0.0905
C17 C 0.7831(17) 0.9137(10) 0.0193(10)
H13 H 0.7345 0.8477 -0.0250
C18 C 0.7261(18) 0.9977(12) 0.0016(11)
H14 H 0.6418 0.9893 -0.0555
C19 C 0.794(3) 1.0941(12) 0.0688(11)
H15 H 0.7529 1.1511 0.0581
C20 C 1.1213(17) 1.0539(10) 0.2584(11)
C21 C 0.9683(16) 0.8302(7) 0.1164(9)
Sr1A Sr 0.39790(14) 0.29768(9) -0.20543(9)
Ni1_2 Ni 0.9748(3) 0.75517(13) -0.26369(13)
Ni1A Ni 1.0252(3) 1.24483(13) 0.26369(13)
Sr2A Sr 0.95569(13) 0.37351(7) -0.12700(7)
N2_2 N 0.7489(16) 0.7105(9) 0.7974(9)
N3A N 1.0810(16) 0.8919(8) 0.8508(8)
O5_2 O 1.0615(14) 0.6602(8) 0.8165(8)
O6A O 0.9992(10) 0.4261(6) 0.0752(6)
O7A O 0.3360(13) 0.5692(9) 0.0922(9)
O7A_2 O 1.3360(13) 0.5692(9) 0.0922(9)
O9A O 0.8342(13) 0.8534(7) 0.6906(9)
O17 O 0.5649(19) 0.0364(12) 0.2526(14)
H16 H 0.5160 0.0168 0.2966
H17 H 0.6430 0.0902 0.2757
O18 O 0.555(2) 0.7582(13) 0.5307(13)
H18 H 0.5641 0.8100 0.5094
H19 H 0.4737 0.7637 0.5660
loop_
_geom_bond_atom_site_label_1
_geom_bond_atom_site_label_2
_geom_bond_site_symmetry_1
_geom_bond_site_symmetry_2
Sr1 O4 1_555 1_555
C1 N1 1_555 1_555
N1 Ni1 1_555 1_555
O1 Ni1 1_555 1_555
Ni1 N2_2 1_555 1_555
Sr2 O3 1_555 1_555
C2 C1 1_555 1_555
O2 C6 1_555 1_555
N2 C8 1_555 1_555
O3 C7 1_555 1_555
N3 C15 1_555 1_555
C3 C2 1_555 1_555
H1 C3 1_555 1_555
O4 Sr2 1_555 1_555
C4 C3 1_555 1_555
H2 C4 1_555 1_555
O5 C13 1_555 1_555
C5 N1 1_555 1_555
H3 C5 1_555 1_555
O6 Sr2 1_555 1_555
C6 C1 1_555 1_555
O7 C14 1_555 1_555
C7 C2 1_555 1_555
O8 Sr1 1_555 1_555
C8 C9 1_555 1_555
O9 C20 1_555 1_555
C9 C10 1_555 1_555
O10 C20 1_555 1_555
C10 H4 1_555 1_555
O11 Sr1 1_555 1_555
C11 C10 1_555 1_555
H5 C11 1_555 1_555
O12 Sr2 1_555 1_555
C12 N2 1_555 1_555
H6 C12 1_555 1_555
C13 O6 1_555 1_555
O13 Sr1 1_555 1_555
O14 Sr1 1_555 1_555
H7 O14 1_555 1_555
H8 O14 1_555 1_555
C14 O8 1_555 1_555
O15 Sr2 1_555 1_555
H9 O15 1_555 1_555
H10 O15 1_555 1_555
C15 C16 1_555 1_555
C16 C17 1_555 1_555
O16 Sr1 1_555 1_555
H11 O16 1_555 1_555
H12 O16 1_555 1_555
C17 H13 1_555 1_555
C18 C17 1_555 1_555
H14 C18 1_555 1_555
C19 N3 1_555 1_555
H15 C19 1_555 1_555
C20 C15 1_555 1_555
C21 O11 1_555 1_555
O17 H16 1_555 1_555
H17 O17 1_555 1_555
O18 H18 1_555 1_555
H19 O18 1_555 1_555
Sr1A O7 1_555 1_555
Ni1_2 N2 1_555 1_555
Ni1A N3 1_555 1_555
Sr2A O6 1_555 1_555
N3A Ni1 1_555 1_555
O5_2 Ni1 1_555 1_555
O6A Sr2 1_555 1_555
O7A Sr1 1_555 1_555
O7A_2 Sr2 1_555 1_555
O9A Ni1 1_555 1_555
O1 C6 1_555 1_555
Sr2 O8 1_555 1_555
Sr2 O11 1_555 1_555
O4 C7 1_555 1_555
C4 C5 1_555 1_555
O5 Ni1_2 1_555 1_555
O7 Sr2A 1_555 1_555
C8 C13 1_555 1_555
O9 Ni1A 1_555 1_555
C9 C14 1_555 1_555
C11 C12 1_555 1_555
O12 C21 1_555 1_555
C16 C21 1_555 1_555
C18 C19 1_555 1_555
Sr2A O6A 1_555 1_555

#END
