
#######################################################################
#
#                 Cambridge Crystallographic Data Centre
#                                CCDC 
#
#######################################################################
#
# If this CIF has been generated from an entry in the Cambridge 
# Structural Database, then it will include bibliographic, chemical, 
# crystal, experimental, refinement or atomic coordinate data resulting 
# from the CCDC's data processing and validation procedures.
#
#######################################################################

data_NOHFOG
_symmetry_cell_setting           monoclinic
_symmetry_space_group_name_H-M   'P 21/c'
_symmetry_Int_Tables_number      14
_space_group_name_Hall           '-P 2ybc'
loop_
_symmetry_equiv_pos_site_id
_symmetry_equiv_pos_as_xyz
1 x,y,z
2 -x,1/2+y,1/2-z
3 -x,-y,-z
4 x,1/2-y,1/2+z
_cell_length_a                   9.84420(10)
_cell_length_b                   29.2288(2)
_cell_length_c                   10.87950(10)
_cell_angle_alpha                90
_cell_angle_beta                 92.1770(3)
_cell_angle_gamma                90
_cell_volume                     3128.14
loop_
_atom_site_label
_atom_site_type_symbol
_atom_site_fract_x
_atom_site_fract_y
_atom_site_fract_z
Er1 Er 0.454831(13) 0.081489(5) 0.958445(14)
O1 O 0.5229(3) 0.07098(11) 0.7499(3)
O2 O 0.5491(3) 0.11148(11) 1.1461(3)
Er2 Er 0.459739(14) 0.251539(5) 0.736580(14)
O3 O 0.4034(3) 0.17502(10) 0.6801(3)
O4 O 0.3165(3) 0.31710(11) 0.7365(3)
O5 O 0.5402(3) 0.30510(11) 0.8852(3)
O6 O 0.2879(2) 0.22749(10) 0.8593(2)
O7 O 0.3564(2) 0.24506(10) 1.0493(3)
O8 O 0.2921(2) 0.14169(9) 1.0156(2)
O9 O 0.2641(2) 0.10955(10) 0.8358(3)
O10 O -0.3839(2) 0.21779(9) 0.8696(2)
O11 O -0.4378(2) 0.14558(10) 0.9037(3)
O12 O -0.3554(2) 0.27724(9) 1.1113(2)
O13 O -0.3554(2) 0.20370(10) 1.1460(3)
C1 C 0.0752(3) 0.15129(12) 0.9126(3)
C2 C 0.0309(3) 0.19298(12) 0.9677(3)
C3 C 0.1210(3) 0.22855(12) 1.0095(3)
C4 C 0.0740(3) 0.26433(15) 1.0780(4)
H1 H 0.1341 0.2868 1.1068
C5 C -0.0645(4) 0.26718(15) 1.1050(4)
H2 H -0.0940 0.2907 1.1549
C6 C -0.1570(3) 0.23571(13) 1.0586(3)
C7 C -0.1119(3) 0.19887(12) 0.9832(3)
C8 C -0.2054(3) 0.16726(12) 0.9249(3)
C9 C -0.1587(3) 0.12812(13) 0.8715(4)
H3 H -0.2200 0.1070 0.8374
C10 C -0.0173(3) 0.11974(13) 0.8683(4)
H4 H 0.0133 0.0924 0.8355
C11 C 0.2189(3) 0.13504(12) 0.9209(3)
C12 C 0.2670(3) 0.23292(12) 0.9709(3)
C13 C -0.3535(3) 0.17773(12) 0.9009(3)
C14 C -0.2982(3) 0.23862(13) 1.1047(3)
O14 O 0.3224(3) 0.05013(10) 1.1007(3)
O15 O 0.3146(3) 0.00932(11) 1.2726(3)
O16 O -0.3940(2) -0.00988(10) 1.1162(3)
O17 O -0.3414(2) 0.04615(10) 0.9859(3)
C15 C 0.1184(3) 0.01069(13) 1.1387(3)
C16 C 0.0262(4) 0.01367(16) 1.2294(4)
H5 H 0.0569 0.0174 1.3106
C17 C -0.1141(3) 0.01112(16) 1.2016(4)
H6 H -0.1752 0.0128 1.2646
C18 C -0.1614(3) 0.00618(12) 1.0831(3)
C19 C 0.0718(3) 0.00117(12) 1.0142(3)
C20 C 0.2630(3) 0.02353(13) 1.1729(3)
C21 C -0.3112(3) 0.01417(13) 1.0592(3)
Er1_2 Er 1.454831(13) 0.081489(5) 0.958445(14)
Er1_3 Er -0.545169(13) 0.081489(5) 0.958445(14)
Er1B Er -0.454831(13) -0.081489(5) 1.041555(14)
Er1B_2 Er 0.545169(13) -0.081489(5) 1.041555(14)
O1_2 O 1.5229(3) 0.07098(11) 0.7499(3)
O2_2 O 1.5491(3) 0.11148(11) 1.1461(3)
Er2_2 Er 1.459739(14) 0.251539(5) 0.736580(14)
Er2C Er 0.459739(14) 0.248461(5) 1.236580(14)
Er2_3 Er -0.540261(14) 0.251539(5) 0.736580(14)
Er2C_2 Er -0.540261(14) 0.248461(5) 1.236580(14)
Er2C_3 Er 1.459739(14) 0.248461(5) 1.236580(14)
O3_2 O 1.4034(3) 0.17502(10) 0.6801(3)
O4_2 O 1.3165(3) 0.31710(11) 0.7365(3)
O5_2 O 1.5402(3) 0.30510(11) 0.8852(3)
O6_2 O 1.2879(2) 0.22749(10) 0.8593(2)
O7_2 O 1.3564(2) 0.24506(10) 1.0493(3)
O7C O 0.3564(2) 0.25494(10) 0.5493(3)
O7C_2 O 1.3564(2) 0.25494(10) 0.5493(3)
O8_2 O 1.2921(2) 0.14169(9) 1.0156(2)
O9_2 O 1.2641(2) 0.10955(10) 0.8358(3)
O10_2 O 0.6161(2) 0.21779(9) 0.8696(2)
O10_3 O 1.6161(2) 0.21779(9) 0.8696(2)
O11_2 O 0.5622(2) 0.14558(10) 0.9037(3)
O11_3 O 1.5622(2) 0.14558(10) 0.9037(3)
O12_2 O 0.6446(2) 0.27724(9) 1.1113(2)
O12C O 0.6446(2) 0.22276(9) 0.6113(2)
O12C_2 O 1.6446(2) 0.22276(9) 0.6113(2)
O13_2 O 0.6446(2) 0.20370(10) 1.1460(3)
O13C O 0.6446(2) 0.29630(10) 0.6460(3)
O13C_2 O 1.6446(2) 0.29630(10) 0.6460(3)
C1_2 C 1.0752(3) 0.15129(12) 0.9126(3)
C2_2 C 1.0309(3) 0.19298(12) 0.9677(3)
C3_2 C 1.1210(3) 0.22855(12) 1.0095(3)
C4_2 C 1.0740(3) 0.26433(15) 1.0780(4)
H1_2 H 1.1341 0.2868 1.1068
C5_2 C 0.9355(4) 0.26718(15) 1.1050(4)
H2_2 H 0.9060 0.2907 1.1549
C6_2 C 0.8430(3) 0.23571(13) 1.0586(3)
C7_2 C 0.8881(3) 0.19887(12) 0.9832(3)
C8_2 C 0.7946(3) 0.16726(12) 0.9249(3)
C9_2 C 0.8413(3) 0.12812(13) 0.8715(4)
H3_2 H 0.7800 0.1070 0.8374
C10_2 C 0.9827(3) 0.11974(13) 0.8683(4)
H4_2 H 1.0133 0.0924 0.8355
C11_2 C 1.2189(3) 0.13504(12) 0.9209(3)
C12_2 C 1.2670(3) 0.23292(12) 0.9709(3)
C13_2 C 0.6465(3) 0.17773(12) 0.9009(3)
C14_2 C 0.7018(3) 0.23862(13) 1.1047(3)
O14B O -0.3224(3) -0.05013(10) 0.8993(3)
O14_2 O 1.3224(3) 0.05013(10) 1.1007(3)
O15B O -0.3146(3) -0.00932(11) 0.7274(3)
O16B O 0.3940(2) 0.00988(10) 0.8838(3)
O16B_2 O 1.3940(2) 0.00988(10) 0.8838(3)
O17B O 0.3414(2) -0.04615(10) 1.0141(3)
O17_2 O 0.6586(2) 0.04615(10) 0.9859(3)
O17_3 O 1.6586(2) 0.04615(10) 0.9859(3)
C15B C -0.1184(3) -0.01069(13) 0.8613(3)
C16B C -0.0262(4) -0.01367(16) 0.7706(4)
H5B H -0.0569 -0.0174 0.6894
C17B C 0.1141(3) -0.01112(16) 0.7984(4)
H6B H 0.1752 -0.0128 0.7354
C18B C 0.1614(3) -0.00618(12) 0.9169(3)
C19B C -0.0718(3) -0.00117(12) 0.9858(3)
C20B C -0.2630(3) -0.02353(13) 0.8271(3)
C21B C 0.3112(3) -0.01417(13) 0.9408(3)
O18 O 0.5326(4) 0.06069(14) 1.3593(3)
O19 O 0.1784(4) 0.07803(14) 1.5952(4)
O20 O 0.6739(4) 0.12640(14) 1.5998(4)
O21 O 0.2489(4) -0.01228(16) 1.5096(3)
O22 O 0.3559(5) 0.12498(15) 1.4500(4)
O23 O -0.0853(5) 0.09018(18) 1.4932(5)
loop_
_geom_bond_atom_site_label_1
_geom_bond_atom_site_label_2
_geom_bond_site_symmetry_1
_geom_bond_site_symmetry_2
Er1 O1 1_555 1_555
O2 Er1 1_555 1_555
Er2 O3 1_555 1_555
O4 Er2 1_555 1_555
O5 Er2 1_555 1_555
O6 Er2 1_555 1_555
O7 C12 1_555 1_555
O8 Er1 1_555 1_555
O9 Er1 1_555 1_555
O10 C13 1_555 1_555
O11 C13 1_555 1_555
O12 C14 1_555 1_555
O13 C14 1_555 1_555
C1 C2 1_555 1_555
C2 C3 1_555 1_555
C3 C4 1_555 1_555
C4 H1 1_555 1_555
C5 C4 1_555 1_555
H2 C5 1_555 1_555
C6 C5 1_555 1_555
C7 C2 1_555 1_555
C8 C7 1_555 1_555
C9 C8 1_555 1_555
H3 C9 1_555 1_555
C10 C1 1_555 1_555
H4 C10 1_555 1_555
C11 O8 1_555 1_555
C12 O6 1_555 1_555
C13 C8 1_555 1_555
C14 C6 1_555 1_555
O14 Er1 1_555 1_555
O15 C20 1_555 1_555
O16 C21 1_555 1_555
O17 C21 1_555 1_555
C15 C16 1_555 1_555
C16 H5 1_555 1_555
C17 C16 1_555 1_555
H6 C17 1_555 1_555
C18 C17 1_555 1_555
C19 C15 1_555 1_555
C20 O14 1_555 1_555
C21 C18 1_555 1_555
Er1_2 O1_2 1_555 1_555
Er1_3 O11 1_555 1_555
Er1B O16 1_555 1_555
Er1B_2 O17B 1_555 1_555
O2_2 Er1_2 1_555 1_555
Er2_2 O3_2 1_555 1_555
Er2C O7 1_555 1_555
Er2_3 O10 1_555 1_555
Er2C_2 O12 1_555 1_555
Er2C_3 O7_2 1_555 1_555
O4_2 Er2_2 1_555 1_555
O5_2 Er2_2 1_555 1_555
O6_2 Er2_2 1_555 1_555
O7_2 C12_2 1_555 1_555
O7C Er2 1_555 1_555
O7C_2 Er2_2 1_555 1_555
O8_2 Er1_2 1_555 1_555
O9_2 Er1_2 1_555 1_555
O10_2 Er2 1_555 1_555
O10_3 Er2_2 1_555 1_555
O11_2 Er1 1_555 1_555
O11_3 Er1_2 1_555 1_555
O12_2 Er2C 1_555 1_555
O12C Er2 1_555 1_555
O12C_2 Er2_2 1_555 1_555
O13_2 Er2C 1_555 1_555
O13C Er2 1_555 1_555
O13C_2 Er2_2 1_555 1_555
C1_2 C2_2 1_555 1_555
C2_2 C3_2 1_555 1_555
C3_2 C4_2 1_555 1_555
C4_2 H1_2 1_555 1_555
C5_2 C4_2 1_555 1_555
H2_2 C5_2 1_555 1_555
C6_2 C5_2 1_555 1_555
C7_2 C2_2 1_555 1_555
C8_2 C7_2 1_555 1_555
C9_2 C8_2 1_555 1_555
H3_2 C9_2 1_555 1_555
C10_2 C1_2 1_555 1_555
H4_2 C10_2 1_555 1_555
C11_2 O8_2 1_555 1_555
C12_2 O6_2 1_555 1_555
C13_2 O10_2 1_555 1_555
C14_2 O12_2 1_555 1_555
O14B Er1B 1_555 1_555
O14_2 Er1_2 1_555 1_555
O15B C20B 1_555 1_555
O16B Er1 1_555 1_555
O16B_2 Er1_2 1_555 1_555
O17B C21B 1_555 1_555
O17_2 Er1 1_555 1_555
O17_3 Er1_2 1_555 1_555
C15B C16B 1_555 1_555
C16B H5B 1_555 1_555
C17B C16B 1_555 1_555
H6B C17B 1_555 1_555
C18B C19 1_555 1_555
C19B C18 1_555 1_555
C20B O14B 1_555 1_555
C21B O16B 1_555 1_555
O9 C11 1_555 1_555
O13 Er2C_2 1_555 1_555
C1 C11 1_555 1_555
C3 C12 1_555 1_555
C6 C7 1_555 1_555
C9 C10 1_555 1_555
O17 Er1_3 1_555 1_555
C15 C20 1_555 1_555
C19 C19B 1_555 1_555
O9_2 C11_2 1_555 1_555
O11_2 C13_2 1_555 1_555
O13_2 C14_2 1_555 1_555
C1_2 C11_2 1_555 1_555
C3_2 C12_2 1_555 1_555
C6_2 C7_2 1_555 1_555
C6_2 C14_2 1_555 1_555
C8_2 C13_2 1_555 1_555
C9_2 C10_2 1_555 1_555
C15B C19B 1_555 1_555
C15B C20B 1_555 1_555
C17B C18B 1_555 1_555
C18B C21B 1_555 1_555

#END
