
#######################################################################
#
#                 Cambridge Crystallographic Data Centre
#                                CCDC 
#
#######################################################################
#
# If this CIF has been generated from an entry in the Cambridge 
# Structural Database, then it will include bibliographic, chemical, 
# crystal, experimental, refinement or atomic coordinate data resulting 
# from the CCDC's data processing and validation procedures.
#
#######################################################################

data_NOHSUA
_symmetry_cell_setting           monoclinic
_symmetry_space_group_name_H-M   'P 21/c'
_symmetry_Int_Tables_number      14
_space_group_name_Hall           '-P 2ybc'
loop_
_symmetry_equiv_pos_site_id
_symmetry_equiv_pos_as_xyz
1 x,y,z
2 -x,1/2+y,1/2-z
3 -x,-y,-z
4 x,1/2-y,1/2+z
_cell_length_a                   16.135(3)
_cell_length_b                   26.792(5)
_cell_length_c                   18.630(4)
_cell_angle_alpha                90
_cell_angle_beta                 110.57(3)
_cell_angle_gamma                90
_cell_volume                     7540.08
loop_
_atom_site_label
_atom_site_type_symbol
_atom_site_fract_x
_atom_site_fract_y
_atom_site_fract_z
Ca1 Ca 0.95226(5) 0.43205(3) 0.97084(4)
Ca2 Ca 0.27871(5) -0.06301(3) 0.44478(4)
Ca3 Ca 0.5000 0.0000 0.5000
O1 O 0.87049(19) 0.48035(12) 0.86476(17)
H1 H 0.8345(17) 0.4983(10) 0.8765(7)
H2 H 0.8397(19) 0.4617(2) 0.8292(8)
O2 O 0.17571(19) -0.12287(12) 0.37644(17)
H3 H 0.1251(5) -0.1153(8) 0.3762(18)
H4 H 0.1719(18) -0.1229(10) 0.3303(5)
O3 O 1.06307(16) 0.49387(10) 0.95642(15)
H5 H 1.1141(3) 0.4817(6) 0.9762(16)
H6 H 1.0545(14) 0.4973(9) 0.9095(2)
O4 O 0.85245(18) 0.36484(11) 0.90870(18)
O5 O 0.78752(16) 0.41468(10) 0.96482(14)
O6 O 0.02382(17) 0.38481(10) 0.89772(16)
O7 O -0.06102(19) 0.32073(13) 0.8368(2)
H7 H -0.0892(18) 0.3334(12) 0.862(2)
O8 O 0.24076(16) 0.01694(10) 0.48378(14)
O9 O 0.38053(15) -0.00475(9) 0.54573(14)
O10 O 0.37590(18) -0.00615(10) 0.38663(15)
O11 O 0.23427(17) -0.02322(11) 0.32494(15)
O12 O -0.02959(18) 0.11738(11) -0.41243(16)
O13 O 0.08430(17) 0.07399(11) -0.41593(15)
O14 O 0.50263(19) 0.41519(11) -0.00446(16)
O15 O 0.62665(19) 0.37679(11) 0.06676(18)
C1 C 0.4521(2) 0.27240(14) 0.7895(2)
C2 C 0.3774(2) 0.29126(15) 0.8017(2)
H8 H 0.3836 0.3197 0.8336
C3 C 0.2942(2) 0.26948(15) 0.7684(2)
C4 C 0.2866(2) 0.22717(14) 0.7232(2)
H9 H 0.2303 0.2121 0.6998
C5 C 0.3604(2) 0.20651(15) 0.7116(2)
C6 C 0.4424(2) 0.22993(14) 0.7443(2)
H10 H 0.4926 0.2166 0.7357
C7 C 0.5389(2) 0.29910(15) 0.8236(2)
C8 C 0.6184(3) 0.27674(16) 0.8270(3)
H11 H 0.6182 0.2438 0.8082
C9 C 0.6977(3) 0.30259(17) 0.8577(3)
H12 H 0.7511 0.2874 0.8583
C10 C 0.7001(2) 0.34999(15) 0.8873(2)
C11 C 0.6210(2) 0.37187(15) 0.8840(2)
H13 H 0.6213 0.4045 0.9039
C12 C 0.5423(2) 0.34685(15) 0.8524(2)
H14 H 0.4888 0.3628 0.8503
C13 C 0.7848(2) 0.37835(15) 0.9227(2)
C14 C 0.2174(2) 0.29015(14) 0.7853(2)
C15 C 0.2156(2) 0.34047(15) 0.8045(2)
H15 H 0.2608 0.3622 0.8015
C16 C 0.1490(2) 0.35922(16) 0.8279(2)
H16 H 0.1499 0.3932 0.8429
C17 C 0.0805(3) 0.32774(16) 0.8291(2)
C18 C 0.0791(3) 0.27795(17) 0.8056(2)
H17 H 0.0312 0.2568 0.8042
C19 C 0.1473(2) 0.25958(16) 0.7845(2)
H18 H 0.1463 0.2257 0.7692
C20 C 0.0123(3) 0.34747(16) 0.8579(2)
C21 C 0.3504(2) 0.16058(15) 0.6647(2)
C22 C 0.2726(2) 0.15167(15) 0.6020(2)
H19 H 0.2267 0.1759 0.5882
C23 C 0.2618(2) 0.10813(14) 0.5602(2)
H20 H 0.2087 0.1026 0.5179
C24 C 0.3283(2) 0.07221(14) 0.5796(2)
C25 C 0.4068(2) 0.08100(15) 0.6414(2)
H21 H 0.4532 0.0571 0.6541
C26 C 0.4172(2) 0.12438(15) 0.6839(2)
H22 H 0.4701 0.1297 0.7265
C27 C 0.3156(2) 0.02585(15) 0.5335(2)
C28 C 0.2953(3) 0.12610(16) 0.0765(2)
C29 C 0.2414(3) 0.11279(17) 0.0028(2)
H23 H 0.2045 0.0842 -0.0047
C30 C 0.2408(3) 0.14091(17) -0.0607(2)
C31 C 0.2934(3) 0.18259(16) -0.0491(2)
H24 H 0.2941 0.2013 -0.0922
C32 C 0.3461(3) 0.19827(16) 0.0247(2)
C33 C 0.3473(3) 0.16940(16) 0.0869(2)
H25 H 0.3838 0.1791 0.1372
C34 C 0.2978(3) 0.09477(16) 0.1424(2)
C35 C 0.3764(3) 0.08721(17) 0.2047(2)
H26 H 0.4291 0.1032 0.2050
C36 C 0.3792(3) 0.05730(16) 0.2655(2)
H27 H 0.4332 0.0535 0.3075
C37 C 0.3036(3) 0.03261(15) 0.2658(2)
C38 C 0.2237(3) 0.04046(15) 0.2039(2)
H28 H 0.1711 0.0245 0.2038
C39 C 0.2210(3) 0.07063(15) 0.1444(2)
H29 H 0.1664 0.0755 0.1034
C40 C 0.3041(3) -0.00121(15) 0.3298(2)
C41 C 0.1889(3) 0.12608(16) -0.1406(2)
C42 C 0.0975(3) 0.13069(19) -0.1694(2)
H30 H 0.0668 0.1398 -0.1363
C43 C 0.0506(3) 0.12196(18) -0.2469(3)
H31 H -0.0119 0.1255 -0.2666
C44 C 0.0950(3) 0.10815(16) -0.2954(2)
C45 C 0.1852(3) 0.10246(19) -0.2664(2)
H32 H 0.2155 0.0913 -0.2989
C46 C 0.2324(3) 0.11287(18) -0.1899(2)
H33 H 0.2952 0.1109 -0.1712
C47 C 0.0465(3) 0.09917(15) -0.3795(2)
C48 C 0.3979(3) 0.24495(15) 0.0320(2)
C49 C 0.3571(3) 0.28630(15) -0.0114(2)
H34 H 0.2963 0.2845 -0.0427
C50 C 0.4034(3) 0.32957(15) -0.0096(2)
H35 H 0.3742 0.3577 -0.0386
C51 C 0.4936(3) 0.33233(15) 0.0350(2)
C52 C 0.5342(3) 0.29118(16) 0.0794(2)
H36 H 0.5951 0.2929 0.1105
C53 C 0.4875(3) 0.24818(16) 0.0788(2)
H37 H 0.5158 0.2207 0.1100
C54 C 0.5446(3) 0.37820(15) 0.0324(2)
Ca1B Ca 0.04774(5) -0.43205(3) 0.02916(4)
Ca2B Ca 0.72129(5) 0.06301(3) 0.55522(4)
O1B O 0.12951(19) -0.48035(12) 0.13524(17)
H1B H 0.1655(17) -0.4983(10) 0.1235(7)
H2B H 0.1603(19) -0.4617(2) 0.1708(8)
O2B O 0.82429(19) 0.12287(12) 0.62356(17)
H3B H 0.8749(5) 0.1153(8) 0.6238(18)
H4B H 0.8281(18) 0.1229(10) 0.6697(5)
O3B O -0.06307(16) -0.49387(10) 0.04358(15)
H5B H -0.1141(3) -0.4817(6) 0.0238(16)
H6B H -0.0545(14) -0.4973(9) 0.0905(2)
O4B O 0.14755(18) -0.36484(11) 0.09130(18)
O5B O 0.21248(16) -0.41468(10) 0.03518(14)
O6B O 0.97618(17) -0.38481(10) 0.10228(16)
O7B O 1.06102(19) -0.32073(13) 0.1632(2)
H7B H 1.0892(18) -0.3334(12) 0.138(2)
O8B O 0.75924(16) -0.01694(10) 0.51622(14)
O9B O 0.61947(15) 0.00475(9) 0.45427(14)
O10B O 0.62410(18) 0.00615(10) 0.61337(15)
O11B O 0.76573(17) 0.02322(11) 0.67506(15)
O12B O 1.02959(18) -0.11738(11) 1.41243(16)
O13B O 0.91570(17) -0.07399(11) 1.41593(15)
O14B O 0.49737(19) -0.41519(11) 1.00446(16)
O15B O 0.37335(19) -0.37679(11) 0.93324(18)
C1B C 0.5479(2) -0.27240(14) 0.2105(2)
C2B C 0.6226(2) -0.29126(15) 0.1983(2)
H8B H 0.6164 -0.3197 0.1664
C3B C 0.7058(2) -0.26948(15) 0.2316(2)
C4B C 0.7134(2) -0.22717(14) 0.2768(2)
H9B H 0.7697 -0.2121 0.3002
C5B C 0.6396(2) -0.20651(15) 0.2884(2)
C6B C 0.5576(2) -0.22993(14) 0.2557(2)
H10B H 0.5074 -0.2166 0.2643
C7B C 0.4611(2) -0.29910(15) 0.1764(2)
C8B C 0.3816(3) -0.27674(16) 0.1730(3)
H11B H 0.3818 -0.2438 0.1918
C9B C 0.3023(3) -0.30259(17) 0.1423(3)
H12B H 0.2489 -0.2874 0.1417
C10B C 0.2999(2) -0.34999(15) 0.1127(2)
C11B C 0.3790(2) -0.37187(15) 0.1160(2)
H13B H 0.3787 -0.4045 0.0961
C12B C 0.4577(2) -0.34685(15) 0.1476(2)
H14B H 0.5112 -0.3628 0.1497
C13B C 0.2152(2) -0.37835(15) 0.0773(2)
C14B C 0.7826(2) -0.29015(14) 0.2147(2)
C15B C 0.7844(2) -0.34047(15) 0.1955(2)
H15B H 0.7392 -0.3622 0.1985
C16B C 0.8510(2) -0.35922(16) 0.1721(2)
H16B H 0.8501 -0.3932 0.1571
C17B C 0.9195(3) -0.32774(16) 0.1709(2)
C18B C 0.9209(3) -0.27795(17) 0.1944(2)
H17B H 0.9688 -0.2568 0.1958
C19B C 0.8527(2) -0.25958(16) 0.2155(2)
H18B H 0.8537 -0.2257 0.2308
C20B C 0.9877(3) -0.34747(16) 0.1421(2)
C21B C 0.6496(2) -0.16058(15) 0.3353(2)
C22B C 0.7274(2) -0.15167(15) 0.3980(2)
H19B H 0.7733 -0.1759 0.4118
C23B C 0.7382(2) -0.10813(14) 0.4398(2)
H20B H 0.7913 -0.1026 0.4821
C24B C 0.6717(2) -0.07221(14) 0.4204(2)
C25B C 0.5932(2) -0.08100(15) 0.3586(2)
H21B H 0.5468 -0.0571 0.3459
C26B C 0.5828(2) -0.12438(15) 0.3161(2)
H22B H 0.5299 -0.1297 0.2735
C27B C 0.6844(2) -0.02585(15) 0.4665(2)
C28B C 0.7047(3) -0.12610(16) 0.9235(2)
C29B C 0.7586(3) -0.11279(17) 0.9972(2)
H23B H 0.7955 -0.0842 1.0047
C30B C 0.7592(3) -0.14091(17) 1.0607(2)
C31B C 0.7066(3) -0.18259(16) 1.0491(2)
H24B H 0.7059 -0.2013 1.0922
C32B C 0.6539(3) -0.19827(16) 0.9753(2)
C33B C 0.6527(3) -0.16940(16) 0.9131(2)
H25B H 0.6162 -0.1791 0.8628
C34B C 0.7022(3) -0.09477(16) 0.8576(2)
C35B C 0.6236(3) -0.08721(17) 0.7953(2)
H26B H 0.5709 -0.1032 0.7950
C36B C 0.6208(3) -0.05730(16) 0.7345(2)
H27B H 0.5668 -0.0535 0.6925
C37B C 0.6964(3) -0.03261(15) 0.7342(2)
C38B C 0.7763(3) -0.04046(15) 0.7961(2)
H28B H 0.8289 -0.0245 0.7962
C39B C 0.7790(3) -0.07063(15) 0.8556(2)
H29B H 0.8336 -0.0755 0.8966
C40B C 0.6959(3) 0.00121(15) 0.6702(2)
C41B C 0.8111(3) -0.12608(16) 1.1406(2)
C42B C 0.9025(3) -0.13069(19) 1.1694(2)
H30B H 0.9332 -0.1398 1.1363
C43B C 0.9494(3) -0.12196(18) 1.2469(3)
H31B H 1.0119 -0.1255 1.2666
C44B C 0.9050(3) -0.10815(16) 1.2954(2)
C45B C 0.8148(3) -0.10246(19) 1.2664(2)
H32B H 0.7845 -0.0913 1.2989
C46B C 0.7676(3) -0.11287(18) 1.1899(2)
H33B H 0.7048 -0.1109 1.1712
C47B C 0.9535(3) -0.09917(15) 1.3795(2)
C48B C 0.6021(3) -0.24495(15) 0.9680(2)
C49B C 0.6429(3) -0.28630(15) 1.0114(2)
H34B H 0.7037 -0.2845 1.0427
C50B C 0.5966(3) -0.32957(15) 1.0096(2)
H35B H 0.6258 -0.3577 1.0386
C51B C 0.5064(3) -0.33233(15) 0.9650(2)
C52B C 0.4658(3) -0.29118(16) 0.9206(2)
H36B H 0.4049 -0.2929 0.8895
C53B C 0.5125(3) -0.24818(16) 0.9212(2)
H37B H 0.4842 -0.2207 0.8900
C54B C 0.4554(3) -0.37820(15) 0.9676(2)
Ca1_2 Ca -0.04774(5) -0.56795(3) -0.02916(4)
Ca1_3 Ca -0.04774(5) 0.43205(3) 0.97084(4)
Ca1A Ca 1.04774(5) -0.06795(3) 1.52916(4)
Ca1B_2 Ca 1.04774(5) -0.43205(3) 0.02916(4)
Ca1B_3 Ca 1.04774(5) 0.56795(3) 1.02916(4)
Ca1C Ca -0.04774(5) 0.06795(3) -0.52916(4)
Ca2A Ca 0.72129(5) 0.43699(3) 0.05522(4)
Ca2A_2 Ca 0.72129(5) 0.43699(3) 1.05522(4)
Ca2C Ca 0.27871(5) -0.43699(3) -0.05522(4)
Ca2C_2 Ca 0.27871(5) -0.43699(3) 0.94478(4)
Ca3A Ca 0.5000 -0.5000 1.0000
Ca3A_2 Ca 0.5000 0.5000 0.0000
O3_2 O 0.06307(16) -0.50613(10) -0.04358(15)
O3B_2 O 0.93693(16) 0.50613(10) 1.04358(15)
O5A O 0.21248(16) -0.08532(10) 0.53518(14)
O5C O 0.78752(16) 0.08532(10) 0.46482(14)
O6_2 O 1.02382(17) 0.38481(10) 0.89772(16)
O6B_2 O -0.02382(17) -0.38481(10) 0.10228(16)
O12A O 0.02959(18) -0.38262(11) -0.08757(16)
O12C O 0.97041(18) 0.38262(11) 1.08757(16)
O13A O -0.08430(17) -0.42601(11) -0.08407(15)
O13C O 1.08430(17) 0.42601(11) 1.08407(15)
O14A O 0.49737(19) -0.08481(11) 0.50446(16)
O14C O 0.50263(19) 0.08481(11) 0.49554(16)
O15A O 0.37335(19) -0.12321(11) 0.43324(18)
O15C O 0.62665(19) 0.12321(11) 0.56676(18)
O16 O 1.0572(2) 0.50855(14) 0.81313(17)
H38 H 1.027(2) 0.4912(16) 0.7753(18)
H39 H 1.1053(16) 0.5144(17) 0.807(3)
O17 O 0.9716(4) 0.4632(2) 0.6727(3)
C55 C 0.9503(6) 0.4156(3) 0.6533(4)
H40 H 0.9173 0.4010 0.6841
H41 H 1.0039 0.3953 0.6605
C56 C 0.8941(11) 0.4185(4) 0.5715(6)
H42 H 0.9302 0.4130 0.5388
H43 H 0.8472 0.3927 0.5590
C57 C 0.8570(9) 0.4657(4) 0.5592(6)
H44 H 0.7966 0.4652 0.5614
H45 H 0.8540 0.4788 0.5087
C58 C 0.9141(10) 0.4948(3) 0.6190(7)
H46 H 0.9480 0.5181 0.5985
H47 H 0.8793 0.5147 0.6432
O18 O 0.1526(5) -0.1477(3) 0.2263(4)
C59 C 0.1402(7) -0.1068(3) 0.1712(5)
H48 H 0.0901 -0.1143 0.1234
H49 H 0.1273 -0.0753 0.1929
C60 C 0.2203(7) -0.1023(4) 0.1557(6)
H50 H 0.2374 -0.0668 0.1555
H51 H 0.2138 -0.1173 0.1054
C61 C 0.2869(7) -0.1299(5) 0.2190(7)
H52 H 0.3373 -0.1413 0.2046
H53 H 0.3091 -0.1097 0.2665
C62 C 0.2327(8) -0.1713(5) 0.2266(10)
H54 H 0.2205 -0.1948 0.1831
H55 H 0.2618 -0.1896 0.2751
O19 O 0.4384(5) -0.1380(4) 0.1222(4)
C63 C 0.5001(8) -0.1538(5) 0.0868(6)
H56 H 0.4846 -0.1876 0.0644
H57 H 0.5609 -0.1548 0.1251
C64 C 0.4945(12) -0.1178(6) 0.0272(9)
H58 H 0.5546 -0.1075 0.0303
H59 H 0.4637 -0.1326 -0.0239
C65 C 0.4458(13) -0.0750(5) 0.0384(9)
H60 H 0.4849 -0.0455 0.0545
H61 H 0.3962 -0.0668 -0.0094
C66 C 0.4134(14) -0.0896(5) 0.0971(13)
H62 H 0.4364 -0.0664 0.1410
H63 H 0.3480 -0.0873 0.0774
O20 O 0.7620(16) 0.3070(4) 0.6234(11)
C67 C 0.7213(10) 0.2961(5) 0.5495(9)
H64 H 0.7447 0.3167 0.5168
H65 H 0.6567 0.3016 0.5338
C68 C 0.7413(12) 0.2427(5) 0.5440(6)
H66 H 0.6874 0.2246 0.5121
H67 H 0.7873 0.2388 0.5206
C69 C 0.7712(6) 0.2243(3) 0.6180(7)
H68 H 0.8121 0.1959 0.6238
H69 H 0.7216 0.2141 0.6343
C70 C 0.8155(13) 0.2668(5) 0.6586(8)
H70 H 0.8219 0.2646 0.7134
H71 H 0.8750 0.2701 0.6550
O21 O 1.0593(7) 0.3162(3) 0.5503(7)
C71 C 1.1052(7) 0.2729(4) 0.5313(9)
H72 H 1.1062 0.2761 0.4787
H73 H 1.1668 0.2705 0.5677
C72 C 1.0555(9) 0.2300(4) 0.5372(9)
H74 H 1.0713 0.2185 0.5909
H75 H 1.0624 0.2021 0.5048
C73 C 0.9665(9) 0.2516(6) 0.5076(16)
H76 H 0.9403 0.2462 0.4515
H77 H 0.9282 0.2350 0.5318
C74 C 0.9710(6) 0.3042(4) 0.5238(10)
H78 H 0.9389 0.3234 0.4768
H79 H 0.9444 0.3117 0.5631
O22 O 0.7356(6) 0.4650(4) 0.7215(7)
C75 C 0.7056(9) 0.4132(4) 0.7085(7)
H80 H 0.7377 0.3921 0.7532
H81 H 0.7146 0.3995 0.6624
C76 C 0.6110(12) 0.4159(7) 0.6973(11)
H82 H 0.5924 0.3868 0.7209
H83 H 0.5743 0.4173 0.6421
C77 C 0.6040(16) 0.4628(7) 0.7367(17)
H84 H 0.5430 0.4762 0.7166
H85 H 0.6216 0.4576 0.7927
C78 C 0.6652(11) 0.4956(5) 0.7188(12)
H86 H 0.6376 0.5105 0.6672
H87 H 0.6850 0.5228 0.7571
O23? O 0.7137(6) 0.4481(5) 0.7618(7)
C79? C 0.6308(11) 0.4755(7) 0.7354(10)
H88? H 0.6412 0.5111 0.7273
H89? H 0.6003 0.4731 0.7730
C80? C 0.5780(9) 0.4514(7) 0.6621(8)
H90? H 0.5140 0.4518 0.6542
H91? H 0.5876 0.4676 0.6180
C81? C 0.6140(14) 0.4001(7) 0.6742(12)
H92? H 0.5915 0.3810 0.7090
H93? H 0.5996 0.3819 0.6251
C82? C 0.7082(15) 0.4096(10) 0.7088(18)
H94? H 0.7401 0.3794 0.7351
H95? H 0.7333 0.4203 0.6698
loop_
_geom_bond_atom_site_label_1
_geom_bond_atom_site_label_2
_geom_bond_site_symmetry_1
_geom_bond_site_symmetry_2
Ca1 O1 1_555 1_555
Ca2 O2 1_555 1_555
Ca3 O9 1_555 1_555
O1 H1 1_555 1_555
H2 O1 1_555 1_555
O2 H3 1_555 1_555
H4 O2 1_555 1_555
O3 Ca1 1_555 1_555
H5 O3 1_555 1_555
H6 O3 1_555 1_555
O4 Ca1 1_555 1_555
O5 Ca1 1_555 1_555
O6 C20 1_555 1_555
O7 H7 1_555 1_555
O8 Ca2 1_555 1_555
O9 Ca2 1_555 1_555
O10 Ca2 1_555 1_555
O11 Ca2 1_555 1_555
O12 C47 1_555 1_555
O13 C47 1_555 1_555
O14 C54 1_555 1_555
O15 C54 1_555 1_555
C1 C2 1_555 1_555
C2 H8 1_555 1_555
C3 C2 1_555 1_555
C4 C3 1_555 1_555
H9 C4 1_555 1_555
C5 C4 1_555 1_555
C6 C1 1_555 1_555
H10 C6 1_555 1_555
C7 C1 1_555 1_555
C8 C7 1_555 1_555
H11 C8 1_555 1_555
C9 C8 1_555 1_555
H12 C9 1_555 1_555
C10 C9 1_555 1_555
C11 C10 1_555 1_555
H13 C11 1_555 1_555
C12 C7 1_555 1_555
H14 C12 1_555 1_555
C13 O4 1_555 1_555
C14 C3 1_555 1_555
C15 C14 1_555 1_555
H15 C15 1_555 1_555
C16 C15 1_555 1_555
H16 C16 1_555 1_555
C17 C16 1_555 1_555
C18 C17 1_555 1_555
H17 C18 1_555 1_555
C19 C14 1_555 1_555
H18 C19 1_555 1_555
C20 O7 1_555 1_555
C21 C5 1_555 1_555
C22 C21 1_555 1_555
H19 C22 1_555 1_555
C23 C22 1_555 1_555
H20 C23 1_555 1_555
C24 C23 1_555 1_555
C25 C24 1_555 1_555
H21 C25 1_555 1_555
C26 C21 1_555 1_555
H22 C26 1_555 1_555
C27 O8 1_555 1_555
C28 C29 1_555 1_555
C29 H23 1_555 1_555
C30 C29 1_555 1_555
C31 C30 1_555 1_555
H24 C31 1_555 1_555
C32 C31 1_555 1_555
C33 C28 1_555 1_555
H25 C33 1_555 1_555
C34 C28 1_555 1_555
C35 C34 1_555 1_555
H26 C35 1_555 1_555
C36 C35 1_555 1_555
H27 C36 1_555 1_555
C37 C36 1_555 1_555
C38 C37 1_555 1_555
H28 C38 1_555 1_555
C39 C34 1_555 1_555
H29 C39 1_555 1_555
C40 O10 1_555 1_555
C41 C30 1_555 1_555
C42 C41 1_555 1_555
H30 C42 1_555 1_555
C43 C42 1_555 1_555
H31 C43 1_555 1_555
C44 C43 1_555 1_555
C45 C44 1_555 1_555
H32 C45 1_555 1_555
C46 C41 1_555 1_555
H33 C46 1_555 1_555
C47 C44 1_555 1_555
C48 C32 1_555 1_555
C49 C48 1_555 1_555
H34 C49 1_555 1_555
C50 C49 1_555 1_555
H35 C50 1_555 1_555
C51 C50 1_555 1_555
C52 C51 1_555 1_555
H36 C52 1_555 1_555
C53 C48 1_555 1_555
H37 C53 1_555 1_555
C54 C51 1_555 1_555
O16 H38 1_555 1_555
H39 O16 1_555 1_555
O17 C55 1_555 1_555
C55 H40 1_555 1_555
H41 C55 1_555 1_555
C56 C55 1_555 1_555
H42 C56 1_555 1_555
H43 C56 1_555 1_555
C57 C56 1_555 1_555
H44 C57 1_555 1_555
H45 C57 1_555 1_555
C58 O17 1_555 1_555
H46 C58 1_555 1_555
H47 C58 1_555 1_555
O18 C59 1_555 1_555
C59 H48 1_555 1_555
H49 C59 1_555 1_555
C60 C59 1_555 1_555
H50 C60 1_555 1_555
H51 C60 1_555 1_555
C61 C60 1_555 1_555
H52 C61 1_555 1_555
H53 C61 1_555 1_555
C62 O18 1_555 1_555
H54 C62 1_555 1_555
H55 C62 1_555 1_555
O19 C63 1_555 1_555
C63 H56 1_555 1_555
H57 C63 1_555 1_555
C64 C63 1_555 1_555
H58 C64 1_555 1_555
H59 C64 1_555 1_555
C65 C64 1_555 1_555
H60 C65 1_555 1_555
H61 C65 1_555 1_555
C66 O19 1_555 1_555
H62 C66 1_555 1_555
H63 C66 1_555 1_555
O20 C67 1_555 1_555
C67 H64 1_555 1_555
H65 C67 1_555 1_555
C68 C67 1_555 1_555
H66 C68 1_555 1_555
H67 C68 1_555 1_555
C69 C68 1_555 1_555
H68 C69 1_555 1_555
H69 C69 1_555 1_555
C70 O20 1_555 1_555
H70 C70 1_555 1_555
H71 C70 1_555 1_555
O21 C71 1_555 1_555
C71 H72 1_555 1_555
H73 C71 1_555 1_555
C72 C71 1_555 1_555
H74 C72 1_555 1_555
H75 C72 1_555 1_555
C73 C72 1_555 1_555
H76 C73 1_555 1_555
H77 C73 1_555 1_555
C74 O21 1_555 1_555
H78 C74 1_555 1_555
H79 C74 1_555 1_555
O22 C75 1_555 1_555
C75 H80 1_555 1_555
H81 C75 1_555 1_555
C76 C75 1_555 1_555
H82 C76 1_555 1_555
H83 C76 1_555 1_555
C77 C76 1_555 1_555
H84 C77 1_555 1_555
H85 C77 1_555 1_555
C78 O22 1_555 1_555
H86 C78 1_555 1_555
H87 C78 1_555 1_555
Ca1B O1B 1_555 1_555
Ca2B O2B 1_555 1_555
O1B H1B 1_555 1_555
H2B O1B 1_555 1_555
O2B H3B 1_555 1_555
H4B O2B 1_555 1_555
O3B Ca1B 1_555 1_555
H5B O3B 1_555 1_555
H6B O3B 1_555 1_555
O4B Ca1B 1_555 1_555
O5B Ca1B 1_555 1_555
O6B C20B 1_555 1_555
O7B H7B 1_555 1_555
O8B Ca2B 1_555 1_555
O9B Ca3 1_555 1_555
O10B Ca3 1_555 1_555
O11B Ca2B 1_555 1_555
O12B C47B 1_555 1_555
O13B C47B 1_555 1_555
O14B C54B 1_555 1_555
O15B C54B 1_555 1_555
C1B C2B 1_555 1_555
C2B H8B 1_555 1_555
C3B C2B 1_555 1_555
C4B C3B 1_555 1_555
H9B C4B 1_555 1_555
C5B C4B 1_555 1_555
C6B C1B 1_555 1_555
H10B C6B 1_555 1_555
C7B C1B 1_555 1_555
C8B C7B 1_555 1_555
H11B C8B 1_555 1_555
C9B C8B 1_555 1_555
H12B C9B 1_555 1_555
C10B C9B 1_555 1_555
C11B C10B 1_555 1_555
H13B C11B 1_555 1_555
C12B C7B 1_555 1_555
H14B C12B 1_555 1_555
C13B O4B 1_555 1_555
C14B C3B 1_555 1_555
C15B C14B 1_555 1_555
H15B C15B 1_555 1_555
C16B C15B 1_555 1_555
H16B C16B 1_555 1_555
C17B C16B 1_555 1_555
C18B C17B 1_555 1_555
H17B C18B 1_555 1_555
C19B C14B 1_555 1_555
H18B C19B 1_555 1_555
C20B O7B 1_555 1_555
C21B C5B 1_555 1_555
C22B C21B 1_555 1_555
H19B C22B 1_555 1_555
C23B C22B 1_555 1_555
H20B C23B 1_555 1_555
C24B C23B 1_555 1_555
C25B C24B 1_555 1_555
H21B C25B 1_555 1_555
C26B C21B 1_555 1_555
H22B C26B 1_555 1_555
C27B O8B 1_555 1_555
C28B C29B 1_555 1_555
C29B H23B 1_555 1_555
C30B C29B 1_555 1_555
C31B C30B 1_555 1_555
H24B C31B 1_555 1_555
C32B C31B 1_555 1_555
C33B C28B 1_555 1_555
H25B C33B 1_555 1_555
C34B C28B 1_555 1_555
C35B C34B 1_555 1_555
H26B C35B 1_555 1_555
C36B C35B 1_555 1_555
H27B C36B 1_555 1_555
C37B C36B 1_555 1_555
C38B C37B 1_555 1_555
H28B C38B 1_555 1_555
C39B C34B 1_555 1_555
H29B C39B 1_555 1_555
C40B O10B 1_555 1_555
C41B C30B 1_555 1_555
C42B C41B 1_555 1_555
H30B C42B 1_555 1_555
C43B C42B 1_555 1_555
H31B C43B 1_555 1_555
C44B C43B 1_555 1_555
C45B C44B 1_555 1_555
H32B C45B 1_555 1_555
C46B C41B 1_555 1_555
H33B C46B 1_555 1_555
C47B C44B 1_555 1_555
C48B C32B 1_555 1_555
C49B C48B 1_555 1_555
H34B C49B 1_555 1_555
C50B C49B 1_555 1_555
H35B C50B 1_555 1_555
C51B C50B 1_555 1_555
C52B C51B 1_555 1_555
H36B C52B 1_555 1_555
C53B C48B 1_555 1_555
H37B C53B 1_555 1_555
C54B C51B 1_555 1_555
Ca1_2 O3B 1_555 1_555
Ca1_3 O6 1_555 1_555
Ca1A O12B 1_555 1_555
Ca1B_2 O6B 1_555 1_555
Ca1B_3 O3 1_555 1_555
Ca1C O12 1_555 1_555
Ca2A O15 1_555 1_555
Ca2A_2 O5 1_555 1_555
Ca2C O5B 1_555 1_555
Ca2C_2 O15B 1_555 1_555
Ca3A O14B 1_555 1_555
Ca3A_2 O14 1_555 1_555
O3_2 Ca1B 1_555 1_555
O3B_2 Ca1 1_555 1_555
O5A Ca2 1_555 1_555
O5C Ca2B 1_555 1_555
O6_2 Ca1 1_555 1_555
O6B_2 Ca1B 1_555 1_555
O12A Ca1B 1_555 1_555
O12C Ca1 1_555 1_555
O13A Ca1B 1_555 1_555
O13C Ca1 1_555 1_555
O14A Ca3 1_555 1_555
O14C Ca3 1_555 1_555
O15A Ca2 1_555 1_555
O15C Ca2B 1_555 1_555
Ca3 O10 1_555 1_555
O5 C13 1_555 1_555
O9 C27 1_555 1_555
O11 C40 1_555 1_555
O13 Ca1C 1_555 1_555
C5 C6 1_555 1_555
C10 C13 1_555 1_555
C11 C12 1_555 1_555
C17 C20 1_555 1_555
C18 C19 1_555 1_555
C24 C27 1_555 1_555
C25 C26 1_555 1_555
C32 C33 1_555 1_555
C37 C40 1_555 1_555
C38 C39 1_555 1_555
C45 C46 1_555 1_555
C52 C53 1_555 1_555
C57 C58 1_555 1_555
C61 C62 1_555 1_555
C65 C66 1_555 1_555
C69 C70 1_555 1_555
C73 C74 1_555 1_555
C77 C78 1_555 1_555
Ca2B O9B 1_555 1_555
Ca2B O10B 1_555 1_555
O5B C13B 1_555 1_555
O9B C27B 1_555 1_555
O11B C40B 1_555 1_555
O13B Ca1A 1_555 1_555
C5B C6B 1_555 1_555
C10B C13B 1_555 1_555
C11B C12B 1_555 1_555
C17B C20B 1_555 1_555
C18B C19B 1_555 1_555
C24B C27B 1_555 1_555
C25B C26B 1_555 1_555
C32B C33B 1_555 1_555
C37B C40B 1_555 1_555
C38B C39B 1_555 1_555
C45B C46B 1_555 1_555
C52B C53B 1_555 1_555
Ca1_2 O3_2 1_555 1_555
Ca1B_3 O3B_2 1_555 1_555

#END
