
#######################################################################
#
#                 Cambridge Crystallographic Data Centre
#                                CCDC 
#
#######################################################################
#
# If this CIF has been generated from an entry in the Cambridge 
# Structural Database, then it will include bibliographic, chemical, 
# crystal, experimental, refinement or atomic coordinate data resulting 
# from the CCDC's data processing and validation procedures.
#
#######################################################################

data_NOKPEJ
_symmetry_cell_setting           monoclinic
_symmetry_space_group_name_H-M   'C c'
_symmetry_Int_Tables_number      9
_space_group_name_Hall           'C -2yc'
loop_
_symmetry_equiv_pos_site_id
_symmetry_equiv_pos_as_xyz
1 x,y,z
2 x,-y,1/2+z
3 1/2+x,1/2+y,z
4 1/2+x,1/2-y,1/2+z
_cell_length_a                   13.0465(4)
_cell_length_b                   22.3040(7)
_cell_length_c                   8.6482(3)
_cell_angle_alpha                90
_cell_angle_beta                 127.82
_cell_angle_gamma                90
_cell_volume                     1987.91
loop_
_atom_site_label
_atom_site_type_symbol
_atom_site_fract_x
_atom_site_fract_y
_atom_site_fract_z
Cd1 Cd 0.863626(15) 0.606894(7) 0.51456(2)
Cd2 Cd 0.633618(16) 0.656186(7) -0.01885(2)
O1 O 0.6190(2) 0.61607(10) 0.2310(3)
O2 O 0.7014(2) 0.64534(11) 0.5278(3)
O3 O 0.1138(2) 0.60060(10) -0.2636(3)
O4 O 0.0089(2) 0.63766(11) -0.1629(3)
O5 O 0.6769(2) 0.70356(10) -0.2174(3)
H1 H 0.6941 0.6856 -0.2858
H2 H 0.6452 0.7386 -0.2535
O6 O 0.4640(3) 0.59663(11) -0.2802(4)
H3 H 0.3824 0.6023 -0.3574
H4 H 0.4935 0.5681 -0.3078
N1 N 0.8043(2) 0.71780(10) 0.2279(3)
N2 N 0.8896(2) 0.69677(9) 0.4164(3)
N3 N 0.9761(2) 0.77764(9) 0.3875(3)
N4 N 0.7631(2) 0.57668(10) 0.0687(3)
N5 N 0.8553(2) 0.56362(11) 0.2624(3)
N6 N 0.8478(2) 0.48815(10) 0.0903(4)
C1 C 0.9894(3) 0.73328(12) 0.5048(4)
H5 H 1.0619 0.7290 0.6350
C2 C 0.8598(3) 0.76588(11) 0.2192(4)
H6 H 0.8217 0.7891 0.1071
C3 C 0.9026(3) 0.51112(12) 0.2674(4)
H7 H 0.9678 0.4919 0.3830
C4 C 0.7625(3) 0.53101(14) -0.0273(4)
H8 H 0.7084 0.5286 -0.1632
C5 C 0.6062(3) 0.63721(13) 0.3531(4)
C6 C 0.4746(3) 0.65412(17) 0.2930(5)
H9 H 0.4668 0.6975 0.2837
H10 H 0.4693 0.6416 0.3953
C7 C 0.3605(3) 0.62751(17) 0.1007(5)
H11 H 0.3644 0.6396 -0.0033
H12 H 0.3652 0.5841 0.1091
C8 C 0.2361(3) 0.64787(19) 0.0542(5)
H13 H 0.2354 0.6914 0.0527
H14 H 0.2344 0.6353 0.1600
C9 C 0.1127(3) 0.62629(15) -0.1359(5)
Cd1_2 Cd -0.136374(15) 0.606894(7) -0.48544(2)
Cd1A Cd 0.863626(15) 0.393106(7) 0.01456(2)
Cd2C Cd 1.133618(16) 0.843814(7) 0.48115(2)
O3_2 O 1.1138(2) 0.60060(10) 0.7364(3)
O4_2 O 1.0089(2) 0.63766(11) 0.8371(3)
N3C N 0.4761(2) 0.72236(9) -0.1125(3)
N6A N 0.8478(2) 0.51185(10) 0.5903(4)
O7 O 1.0175(3) 0.68890(15) 0.1261(5)
H15 H 1.0249 0.6522 0.1576
H16 H 0.9941 0.6966 0.0123
O8 O 0.1834(3) 0.61127(12) 0.4729(5)
H17 H 0.1729 0.6021 0.5578
H18 H 0.1221 0.6304 0.3728
O9 O 0.4854(3) 0.50694(13) 0.5204(5)
H19 H 0.5137 0.4712 0.5431
H20 H 0.4067 0.5125 0.4218
O10 O 0.2082(3) 0.48422(13) 0.7663(5)
H21 H 0.2125 0.5215 0.7901
H22 H 0.1698 0.4622 0.7966
loop_
_geom_bond_atom_site_label_1
_geom_bond_atom_site_label_2
_geom_bond_site_symmetry_1
_geom_bond_site_symmetry_2
Cd1 O1 1_555 1_555
Cd2 O1 1_555 1_555
O1 C5 1_555 1_555
O2 Cd1 1_555 1_555
O3 C9 1_555 1_555
O4 C9 1_555 1_555
O5 Cd2 1_555 1_555
H1 O5 1_555 1_555
H2 O5 1_555 1_555
O6 Cd2 1_555 1_555
H3 O6 1_555 1_555
H4 O6 1_555 1_555
N1 Cd2 1_555 1_555
N2 Cd1 1_555 1_555
N3 C1 1_555 1_555
N4 Cd2 1_555 1_555
N5 Cd1 1_555 1_555
N6 C3 1_555 1_555
C1 N2 1_555 1_555
H5 C1 1_555 1_555
C2 N1 1_555 1_555
H6 C2 1_555 1_555
C3 N5 1_555 1_555
H7 C3 1_555 1_555
C4 N4 1_555 1_555
H8 C4 1_555 1_555
C5 O2 1_555 1_555
C6 C5 1_555 1_555
H9 C6 1_555 1_555
H10 C6 1_555 1_555
C7 C6 1_555 1_555
H11 C7 1_555 1_555
H12 C7 1_555 1_555
C8 C7 1_555 1_555
H13 C8 1_555 1_555
H14 C8 1_555 1_555
C9 C8 1_555 1_555
O7 H15 1_555 1_555
H16 O7 1_555 1_555
O8 H17 1_555 1_555
H18 O8 1_555 1_555
O9 H19 1_555 1_555
H20 O9 1_555 1_555
O10 H21 1_555 1_555
H22 O10 1_555 1_555
Cd1_2 O3 1_555 1_555
Cd1A N6 1_555 1_555
Cd2C N3 1_555 1_555
O3_2 Cd1 1_555 1_555
O4_2 Cd1 1_555 1_555
N3C Cd2 1_555 1_555
N6A Cd1 1_555 1_555
O4 Cd1_2 1_555 1_555
N1 N2 1_555 1_555
N3 C2 1_555 1_555
N4 N5 1_555 1_555
N6 C4 1_555 1_555

#END
