
#######################################################################
#
#                 Cambridge Crystallographic Data Centre
#                                CCDC 
#
#######################################################################
#
# If this CIF has been generated from an entry in the Cambridge 
# Structural Database, then it will include bibliographic, chemical, 
# crystal, experimental, refinement or atomic coordinate data resulting 
# from the CCDC's data processing and validation procedures.
#
#######################################################################

data_NOMKUX
_symmetry_cell_setting           monoclinic
_symmetry_space_group_name_H-M   'C 2/c'
_symmetry_Int_Tables_number      15
_space_group_name_Hall           '-C 2yn'
loop_
_symmetry_equiv_pos_site_id
_symmetry_equiv_pos_as_xyz
1 x,y,z
2 -x,y,1/2-z
3 1/2+x,1/2+y,z
4 1/2-x,1/2+y,1/2-z
5 -x,-y,-z
6 x,-y,1/2+z
7 1/2-x,1/2-y,-z
8 1/2+x,1/2-y,1/2+z
_cell_length_a                   43.520(5)
_cell_length_b                   12.546(5)
_cell_length_c                   21.894(5)
_cell_angle_alpha                90
_cell_angle_beta                 105.053(5)
_cell_angle_gamma                90
_cell_volume                     11544
loop_
_atom_site_label
_atom_site_type_symbol
_atom_site_fract_x
_atom_site_fract_y
_atom_site_fract_z
W1 W 0.16757(3) 0.00513(9) 0.06924(6)
W2 W 0.21073(3) 0.25536(10) 0.11276(6)
W3 W 0.04307(3) 0.25451(10) 0.02880(6)
W4 W 0.16973(3) 0.37086(10) -0.02381(6)
W5 W 0.08678(3) 0.00656(10) 0.02662(6)
W6 W 0.08336(3) 0.48720(10) 0.06928(6)
W7 W 0.12765(3) 0.11811(10) -0.06998(6)
W8 W 0.08293(3) 0.36464(11) -0.07020(6)
W9 W 0.17017(3) 0.48751(10) 0.11686(6)
W10 W 0.12575(3) 0.36601(11) 0.21941(6)
W11 W 0.08676(3) 0.13154(11) 0.17738(6)
W12 W 0.16738(3) 0.13837(10) 0.21765(6)
Ag1 Ag 0.20464(7) -0.1135(2) 0.31717(13)
Ag2 Ag 0.19080(7) 0.6305(3) -0.09642(15)
Ag3 Ag 0.03442(8) -0.1593(3) -0.10932(18)
Ag4 Ag 0.05220(9) -0.3441(3) 0.1896(2)
Si1 Si 0.12702(17) 0.2491(6) 0.0725(3)
O1 O 0.1858(5) 0.6056(17) 0.1434(10)
O2 O 0.0951(5) 0.3082(16) 0.0364(9)
O3 O 0.1916(5) 0.0810(16) 0.2814(10)
O4 O 0.1265(5) 0.2294(15) 0.1457(9)
O5 O 0.0945(5) 0.4333(16) 0.1533(11)
O6 O 0.0625(6) 0.0685(18) 0.2171(11)
O7 O 0.1851(5) 0.4251(15) -0.0826(10)
O8 O 0.1267(5) 0.5219(16) 0.0813(9)
O9 O 0.0631(5) -0.1007(18) 0.0102(10)
O10 O 0.2075(5) 0.4057(16) 0.1399(10)
O11 O 0.1586(5) 0.3113(17) 0.0694(10)
O12 O 0.0033(5) 0.2342(17) 0.0163(10)
O13 O 0.1579(5) 0.2343(16) -0.0542(9)
O14 O 0.1564(5) 0.4332(16) 0.1846(10)
O15 O 0.2076(5) 0.3051(17) 0.0297(10)
O16 O 0.0461(5) 0.2998(16) -0.0515(9)
O17 O 0.0670(5) 0.4161(16) -0.1443(9)
O18 O 0.0941(5) 0.2589(18) 0.2244(10)
N1 N 0.1635(6) -0.218(2) 0.2636(12)
O19 O 0.0958(5) 0.2321(16) -0.0880(11)
O20 O 0.1264(5) 0.4109(17) -0.0533(10)
N2 N 0.2366(6) 0.582(2) -0.0116(11)
O21 O 0.0571(5) 0.2129(16) 0.1116(9)
N3 N 0.2348(7) -0.091(2) 0.2367(13)
O22 O 0.1963(5) 0.2185(17) 0.1837(10)
N4 N 0.1498(6) 0.723(2) -0.0849(12)
O23 O 0.0464(5) 0.4004(16) 0.0567(10)
O24 O 0.1588(4) 0.0260(14) -0.0213(9)
O25 O 0.0572(5) 0.1180(17) 0.0078(10)
O26 O 0.1920(5) -0.0994(15) 0.0804(9)
O27 O 0.1267(5) 0.0789(17) 0.2252(10)
O28 O 0.0953(5) 0.0258(16) -0.0544(9)
O29 O 0.1661(5) 0.0390(16) 0.1538(9)
O30 O 0.1271(5) -0.0652(17) 0.0559(10)
O31 O 0.1751(5) 0.4893(17) 0.0338(10)
O32 O 0.1262(5) 0.1369(16) 0.0381(9)
O33 O 0.0762(5) 0.4840(17) -0.0205(10)
O34 O 0.0880(5) 0.0309(18) 0.1126(10)
O35 O 0.1962(5) 0.1223(17) 0.0777(10)
O36 O 0.0673(6) 0.6052(19) 0.0792(11)
O37 O 0.1593(5) 0.2637(17) 0.2583(10)
C1 C 0.2703(8) 0.438(3) 0.0341(15)
H1 H 0.2795 0.3741 0.0268
C2 C 0.1348(8) 0.785(3) -0.1251(17)
H2 H 0.1452 0.8111 -0.1542
C3 C 0.1048(9) 0.819(3) -0.1312(18)
H3 H 0.0971 0.8727 -0.1607
C4 C 0.1455(10) -0.197(3) 0.2081(19)
H4 H 0.1538 -0.1564 0.1806
C5 C 0.2528(8) 0.503(3) -0.0189(16)
H5 H 0.2537 0.4844 -0.0596
C6 C 0.2401(9) -0.196(3) 0.2104(16)
H6 H 0.2280 -0.2556 0.2148
C7 C 0.2648(10) -0.203(4) 0.1778(19)
H7 H 0.2712 -0.2675 0.1648
C8 C 0.1497(8) -0.275(2) 0.2939(15)
H8 H 0.1605 -0.2961 0.3345
C9 C 0.1292(9) 0.693(3) -0.0534(18)
H9 H 0.1364 0.6366 -0.0256
N5 N 0.1018(7) -0.280(2) 0.2234(14)
C10 C 0.2563(10) 0.557(3) 0.099(2)
H10 H 0.2570 0.5834 0.1386
N6 N 0.2791(7) -0.104(2) 0.1662(14)
C11 C 0.0320(8) -0.583(3) 0.2117(16)
H11 H 0.0489 -0.5806 0.2479
N7 N 0.0857(7) 0.783(2) -0.0982(13)
C12 C 0.0121(9) 0.184(3) -0.1691(16)
H12 H 0.0217 0.2334 -0.1895
C13 C 0.0268(8) 0.083(2) -0.1568(14)
H13 H 0.0450 0.0680 -0.1703
N8 N 0.2731(7) 0.471(2) 0.0940(13)
N9 N 0.0250(8) -0.493(3) 0.1817(15)
C14 C 0.1216(10) -0.306(3) 0.2720(19)
H14 H 0.1147 -0.3571 0.2963
N10 N 0.0146(8) 0.006(3) -0.1253(15)
C15 C -0.0087(8) 0.038(3) -0.1020(16)
H15 H -0.0155 -0.0077 -0.0748
C16 C 0.2501(8) -0.003(3) 0.2266(16)
H16 H 0.2458 0.0641 0.2409
C17 C 0.2370(10) 0.610(3) 0.0442(19)
H17 H 0.2243 0.6669 0.0500
N11 N -0.0142(7) 0.214(2) -0.1541(14)
C18 C 0.0173(8) -0.686(3) 0.1965(16)
H18 H 0.0247 -0.7436 0.2227
C19 C -0.0153(9) -0.596(3) 0.1144(18)
H19 H -0.0331 -0.5946 0.0801
C20 C 0.1136(12) -0.232(4) 0.187(2)
H20 H 0.1018 -0.2184 0.1458
C21 C 0.2751(10) -0.020(3) 0.1902(18)
H21 H 0.2880 0.0376 0.1861
C22 C 0.0988(11) 0.728(3) -0.054(2)
H22 H 0.0892 0.7107 -0.0216
C23 C -0.0242(11) 0.139(4) -0.116(2)
H23 H -0.0412 0.1557 -0.0994
C24 C -0.0006(11) -0.501(4) 0.130(2)
H24 H -0.0077 -0.4414 0.1048
N12 N -0.0073(7) -0.698(2) 0.1439(13)
O38 O 0.2500(5) 0.2398(15) 0.1396(9)
O39 O 0.1280(5) 0.0804(17) -0.1425(10)
O40 O 0.1261(6) 0.4387(19) 0.2842(11)
Ag1C Ag 0.29536(7) 0.3865(2) 0.18283(13)
Ag2F Ag 0.30920(7) -0.1305(3) 0.09642(15)
Ag3_2 Ag 0.03442(8) 0.8407(3) -0.10932(18)
Ag3D Ag -0.03442(8) -0.8407(3) 0.10932(18)
Ag4D Ag -0.05220(9) 0.3441(3) -0.1896(2)
N6F N 0.2209(7) 0.604(2) -0.1662(14)
N7_2 N 0.0857(7) -0.217(2) -0.0982(13)
N8C N 0.2269(7) -0.029(2) 0.4060(13)
N11D N 0.0142(7) -0.214(2) 0.1541(14)
N12D N 0.0073(7) -0.302(2) -0.1439(13)
O38C O 0.2500(5) -0.2602(15) 0.3604(9)
loop_
_geom_bond_atom_site_label_1
_geom_bond_atom_site_label_2
_geom_bond_site_symmetry_1
_geom_bond_site_symmetry_2
W1 O24 1_555 1_555
W2 O10 1_555 1_555
W3 O2 1_555 1_555
W4 O7 1_555 1_555
W5 O9 1_555 1_555
W6 O2 1_555 1_555
W7 O13 1_555 1_555
W8 O2 1_555 1_555
W9 O1 1_555 1_555
W10 O4 1_555 1_555
W11 O4 1_555 1_555
W12 O3 1_555 1_555
Ag1 O3 1_555 1_555
Ag2 O7 1_555 1_555
Ag3 O9 1_555 1_555
Ag4 N5 1_555 1_555
Si1 O2 1_555 1_555
O4 W12 1_555 1_555
O5 W6 1_555 1_555
O6 W11 1_555 1_555
O8 W6 1_555 1_555
O10 W9 1_555 1_555
O11 W2 1_555 1_555
O12 W3 1_555 1_555
O13 W4 1_555 1_555
O14 W9 1_555 1_555
O15 W2 1_555 1_555
O16 W3 1_555 1_555
O17 W8 1_555 1_555
O18 W10 1_555 1_555
N1 Ag1 1_555 1_555
O19 W7 1_555 1_555
O20 W4 1_555 1_555
N2 Ag2 1_555 1_555
O21 W3 1_555 1_555
N3 Ag1 1_555 1_555
O22 W2 1_555 1_555
N4 Ag2 1_555 1_555
O23 W3 1_555 1_555
O24 W7 1_555 1_555
O25 W3 1_555 1_555
O26 W1 1_555 1_555
O27 W11 1_555 1_555
O28 W5 1_555 1_555
O29 W1 1_555 1_555
O30 W1 1_555 1_555
O31 W4 1_555 1_555
O32 W1 1_555 1_555
O33 W6 1_555 1_555
O34 W5 1_555 1_555
O35 W1 1_555 1_555
O36 W6 1_555 1_555
O37 W10 1_555 1_555
C1 H1 1_555 1_555
C2 N4 1_555 1_555
H2 C2 1_555 1_555
C3 C2 1_555 1_555
H3 C3 1_555 1_555
C4 N1 1_555 1_555
H4 C4 1_555 1_555
C5 N2 1_555 1_555
H5 C5 1_555 1_555
C6 N3 1_555 1_555
H6 C6 1_555 1_555
C7 C6 1_555 1_555
H7 C7 1_555 1_555
C8 N1 1_555 1_555
H8 C8 1_555 1_555
C9 N4 1_555 1_555
H9 C9 1_555 1_555
N5 C14 1_555 1_555
C10 H10 1_555 1_555
N6 C7 1_555 1_555
C11 H11 1_555 1_555
N7 C3 1_555 1_555
C12 H12 1_555 1_555
C13 C12 1_555 1_555
H13 C13 1_555 1_555
N8 C1 1_555 1_555
N9 Ag4 1_555 1_555
C14 C8 1_555 1_555
H14 C14 1_555 1_555
N10 Ag3 1_555 1_555
C15 N10 1_555 1_555
H15 C15 1_555 1_555
C16 N3 1_555 1_555
H16 C16 1_555 1_555
C17 N2 1_555 1_555
H17 C17 1_555 1_555
N11 C12 1_555 1_555
C18 C11 1_555 1_555
H18 C18 1_555 1_555
C19 H19 1_555 1_555
C20 C4 1_555 1_555
H20 C20 1_555 1_555
C21 N6 1_555 1_555
H21 C21 1_555 1_555
C22 C9 1_555 1_555
H22 C22 1_555 1_555
C23 C15 1_555 1_555
H23 C23 1_555 1_555
C24 N9 1_555 1_555
H24 C24 1_555 1_555
N12 C18 1_555 1_555
O38 W2 1_555 1_555
O39 W7 1_555 1_555
O40 W10 1_555 1_555
Ag1C N8 1_555 1_555
Ag2F N6 1_555 1_555
Ag3_2 N7 1_555 1_555
Ag3D N12 1_555 1_555
Ag4D N11 1_555 1_555
N6F Ag2 1_555 1_555
N7_2 Ag3 1_555 1_555
N8C Ag1 1_555 1_555
N11D Ag4 1_555 1_555
N12D Ag3 1_555 1_555
O38C Ag1 1_555 1_555
W2 O35 1_555 1_555
W4 O11 1_555 1_555
W4 O15 1_555 1_555
W5 O25 1_555 1_555
W5 O30 1_555 1_555
W5 O32 1_555 1_555
W6 O23 1_555 1_555
W7 O28 1_555 1_555
W7 O32 1_555 1_555
W8 O16 1_555 1_555
W8 O19 1_555 1_555
W8 O20 1_555 1_555
W8 O33 1_555 1_555
W9 O8 1_555 1_555
W9 O11 1_555 1_555
W9 O31 1_555 1_555
W10 O5 1_555 1_555
W10 O14 1_555 1_555
W11 O18 1_555 1_555
W11 O21 1_555 1_555
W11 O34 1_555 1_555
W12 O22 1_555 1_555
W12 O27 1_555 1_555
W12 O29 1_555 1_555
W12 O37 1_555 1_555
Si1 O4 1_555 1_555
Si1 O11 1_555 1_555
Si1 O32 1_555 1_555
C1 C5 1_555 1_555
N5 C20 1_555 1_555
C10 N8 1_555 1_555
C10 C17 1_555 1_555
C11 N9 1_555 1_555
N7 C22 1_555 1_555
C13 N10 1_555 1_555
C16 C21 1_555 1_555
N11 C23 1_555 1_555
C19 C24 1_555 1_555
C19 N12 1_555 1_555
O38 Ag1C 1_555 1_555

#END
