
#######################################################################
#
#                 Cambridge Crystallographic Data Centre
#                                CCDC 
#
#######################################################################
#
# If this CIF has been generated from an entry in the Cambridge 
# Structural Database, then it will include bibliographic, chemical, 
# crystal, experimental, refinement or atomic coordinate data resulting 
# from the CCDC's data processing and validation procedures.
#
#######################################################################

data_NOMQAJ01
_symmetry_cell_setting           monoclinic
_symmetry_space_group_name_H-M   'P 21/c'
_symmetry_Int_Tables_number      14
_space_group_name_Hall           '-P 2ybc'
loop_
_symmetry_equiv_pos_site_id
_symmetry_equiv_pos_as_xyz
1 x,y,z
2 -x,1/2+y,1/2-z
3 -x,-y,-z
4 x,1/2-y,1/2+z
_cell_length_a                   15.3645(11)
_cell_length_b                   15.1275(11)
_cell_length_c                   8.3110(6)
_cell_angle_alpha                90
_cell_angle_beta                 91.8500(10)
_cell_angle_gamma                90
_cell_volume                     1930.69
loop_
_atom_site_label
_atom_site_type_symbol
_atom_site_fract_x
_atom_site_fract_y
_atom_site_fract_z
C1 C 0.31891(13) 1.08566(14) 0.9485(3)
H1 H 0.3654 1.1168 0.9075
C2 C 0.32046(13) 0.99369(14) 0.9418(3)
C3 C 0.24856(10) 0.94827(16) 0.9986(2)
H2 H 0.2469 0.8869 0.9939
C4 C 0.17920(13) 0.99466(13) 1.0624(3)
C5 C 0.18564(13) 1.08643(14) 1.0696(3)
H3 H 0.1412 1.1180 1.1165
C6 C 0.39708(13) 0.94669(14) 0.8789(3)
C7 C 0.44677(15) 0.98402(16) 0.7578(3)
H4 H 0.4317 1.0389 0.7149
C8 C 0.51850(14) 0.93901(17) 0.7021(3)
H5 H 0.5510 0.9641 0.6214
C9 C 0.54262(13) 0.85711(15) 0.7645(3)
C10 C 0.49321(15) 0.81980(16) 0.8849(3)
H6 H 0.5088 0.7651 0.9282
C11 C 0.42089(15) 0.86391(16) 0.9402(3)
H7 H 0.3878 0.8380 1.0193
C12 C 0.62220(14) 0.80932(16) 0.7091(3)
C13 C 0.09982(13) 0.94891(14) 1.1173(3)
C14 C 0.05087(15) 0.98305(16) 1.2423(3)
H8 H 0.0674 1.0358 1.2920
C15 C -0.02231(14) 0.93819(17) 1.2919(3)
H9 H -0.0545 0.9612 1.3750
C16 C -0.04834(14) 0.85921(15) 1.2191(3)
C17 C -0.00002(15) 0.82549(16) 1.0945(3)
H10 H -0.0169 0.7728 1.0450
C18 C 0.07309(14) 0.86973(16) 1.0434(3)
H11 H 0.1046 0.8467 0.9595
C19 C -0.12871(14) 0.81102(16) 1.2704(3)
N1 N 0.25331(9) 1.13139(14) 1.01161(19)
O1 O -0.16773(12) 0.84231(15) 1.3889(2)
O2 O -0.15221(13) 0.74259(13) 1.1949(3)
O3 O 0.65994(12) 0.84146(15) 0.5897(2)
O4 O 0.64650(13) 0.74045(13) 0.7822(3)
Zn1 Zn 0.254101(15) 1.267278(17) 1.01296(4)
O1A O 0.16773(12) 1.34231(15) 1.1111(2)
O2B O 0.15221(13) 1.25741(13) 0.8051(3)
O3A O 0.34006(12) 1.34146(15) 0.9103(2)
O4B O 0.35350(13) 1.25955(13) 1.2178(3)
Zn1A Zn -0.254101(15) 0.767278(17) 1.48704(4)
Zn1A_2 Zn 0.745899(15) 0.767278(17) 0.48704(4)
Zn1B Zn -0.254101(15) 0.732722(17) 0.98704(4)
Zn1B_2 Zn 0.745899(15) 0.732722(17) 0.98704(4)
C20 C 0.1999(4) 0.8038(5) 0.3714(11)
H12 H 0.1417 0.8004 0.3979
C21 C 0.2139(5) 0.9172(8) 0.5462(9)
H13 H 0.1532 0.9028 0.5508
H14 H 0.2201 0.9791 0.5234
H15 H 0.2423 0.9039 0.6479
C22 C 0.3347(4) 0.8705(5) 0.4035(11)
H16 H 0.3669 0.8524 0.4989
H17 H 0.3526 0.9289 0.3737
H18 H 0.3459 0.8302 0.3175
O5 O 0.2311(4) 0.7452(2) 0.2779(7)
N2 N 0.2494(3) 0.8707(3) 0.4323(6)
loop_
_geom_bond_atom_site_label_1
_geom_bond_atom_site_label_2
_geom_bond_site_symmetry_1
_geom_bond_site_symmetry_2
C1 H1 1_555 1_555
C2 C1 1_555 1_555
C3 C2 1_555 1_555
H2 C3 1_555 1_555
C4 C3 1_555 1_555
C5 C4 1_555 1_555
H3 C5 1_555 1_555
C6 C2 1_555 1_555
C7 C6 1_555 1_555
H4 C7 1_555 1_555
C8 C7 1_555 1_555
H5 C8 1_555 1_555
C9 C8 1_555 1_555
C10 C9 1_555 1_555
H6 C10 1_555 1_555
C11 C6 1_555 1_555
H7 C11 1_555 1_555
C12 C9 1_555 1_555
C13 C4 1_555 1_555
C14 C13 1_555 1_555
H8 C14 1_555 1_555
C15 C14 1_555 1_555
H9 C15 1_555 1_555
C16 C15 1_555 1_555
C17 C16 1_555 1_555
H10 C17 1_555 1_555
C18 C13 1_555 1_555
H11 C18 1_555 1_555
C19 C16 1_555 1_555
N1 C1 1_555 1_555
O1 C19 1_555 1_555
O2 C19 1_555 1_555
O3 C12 1_555 1_555
O4 C12 1_555 1_555
Zn1 N1 1_555 1_555
C20 H12 1_555 1_555
C21 H13 1_555 1_555
H14 C21 1_555 1_555
H15 C21 1_555 1_555
C22 H16 1_555 1_555
H17 C22 1_555 1_555
H18 C22 1_555 1_555
O5 C20 1_555 1_555
N2 C20 1_555 1_555
O1A Zn1 1_555 1_555
O2B Zn1 1_555 1_555
O3A Zn1 1_555 1_555
O4B Zn1 1_555 1_555
Zn1A O1 1_555 1_555
Zn1A_2 O3 1_555 1_555
Zn1B O2 1_555 1_555
Zn1B_2 O4 1_555 1_555
C5 N1 1_555 1_555
C10 C11 1_555 1_555
C17 C18 1_555 1_555
C21 N2 1_555 1_555
C22 N2 1_555 1_555

#END
