
#######################################################################
#
#                 Cambridge Crystallographic Data Centre
#                                CCDC 
#
#######################################################################
#
# If this CIF has been generated from an entry in the Cambridge 
# Structural Database, then it will include bibliographic, chemical, 
# crystal, experimental, refinement or atomic coordinate data resulting 
# from the CCDC's data processing and validation procedures.
#
#######################################################################

data_NOSHEK
_symmetry_cell_setting           monoclinic
_symmetry_space_group_name_H-M   'P 21/n'
_symmetry_Int_Tables_number      14
_space_group_name_Hall           '-P 2yn'
loop_
_symmetry_equiv_pos_site_id
_symmetry_equiv_pos_as_xyz
1 x,y,z
2 1/2-x,1/2+y,1/2-z
3 -x,-y,-z
4 1/2+x,1/2-y,1/2+z
_cell_length_a                   15.9584(13)
_cell_length_b                   8.2376(7)
_cell_length_c                   16.2554(13)
_cell_angle_alpha                90
_cell_angle_beta                 105.3680(10)
_cell_angle_gamma                90
_cell_volume                     2060.51
loop_
_atom_site_label
_atom_site_type_symbol
_atom_site_fract_x
_atom_site_fract_y
_atom_site_fract_z
U1 U 0.707516(7) 0.122656(13) 0.258689(7)
P1 P 0.93245(5) -0.01690(9) 0.29639(5)
P2 P 0.50345(5) -0.02565(9) 0.30373(5)
F1 F 0.75471(11) -0.1405(2) 0.29813(12)
O1 O 0.67180(14) 0.0498(3) 0.15297(14)
O2 O 0.74198(15) 0.1991(3) 0.36395(13)
O3 O 0.85858(14) 0.0999(2) 0.26359(14)
O4 O 1.01350(14) 0.0351(3) 0.26553(14)
O5 O 0.91580(13) -0.1929(2) 0.26989(13)
O6 O 0.96518(16) 0.2894(3) 0.41138(14)
H1 H 0.9332 0.2751 0.3618
O7 O 0.59588(14) -0.0172(3) 0.29847(14)
O8 O 0.45434(15) 0.1315(3) 0.26040(15)
O9 O 0.45047(14) -0.1722(3) 0.26612(14)
O10 O 0.38225(16) -0.2070(3) 0.39616(15)
H2 H 0.3918 -0.2153 0.3479
C1 C 0.96664(18) -0.0066(4) 0.41086(19)
C2 C 0.9800(2) 0.1435(3) 0.4531(2)
C3 C 0.9867(2) -0.1486(4) 0.4588(2)
H3 H 0.9774 -0.2507 0.4307
C4 C 0.50134(19) -0.0160(4) 0.41415(19)
C5 C 0.4416(2) -0.1040(4) 0.4458(2)
C6 C 0.5592(2) 0.0872(4) 0.4695(2)
H4 H 0.6001 0.1474 0.4487
P1B P 1.06755(5) 0.01690(9) 0.70361(5)
O3B O 1.14142(14) -0.0999(2) 0.73641(14)
O4B O 0.98650(14) -0.0351(3) 0.73447(14)
O5B O 1.08420(13) 0.1929(2) 0.73011(13)
O6B O 1.03482(16) -0.2894(3) 0.58862(14)
H1B H 1.0668 -0.2751 0.6382
C1B C 1.03336(18) 0.0066(4) 0.58914(19)
C2B C 1.0200(2) -0.1435(3) 0.5469(2)
C3B C 1.0133(2) 0.1486(4) 0.5412(2)
H3B H 1.0226 0.2507 0.5693
P2B P 0.49655(5) 0.02565(9) 0.69627(5)
O7B O 0.40412(14) 0.0172(3) 0.70153(14)
O8B O 0.54566(15) -0.1315(3) 0.73960(15)
O9B O 0.54953(14) 0.1722(3) 0.73388(14)
O10B O 0.61775(16) 0.2070(3) 0.60384(15)
H2B H 0.6082 0.2153 0.6521
C4B C 0.49866(19) 0.0160(4) 0.58585(19)
C5B C 0.5584(2) 0.1040(4) 0.5542(2)
C6B C 0.4408(2) -0.0872(4) 0.5305(2)
H4B H 0.3999 -0.1474 0.5513
U1B U 0.292484(7) -0.122656(13) 0.741311(7)
F1B F 0.24529(11) 0.1405(2) 0.70187(12)
O1B O 0.32820(14) -0.0498(3) 0.84703(14)
O2B O 0.25802(15) -0.1991(3) 0.63605(13)
U1A U 0.792484(7) -0.377344(13) 0.241311(7)
U1B_2 U 1.292484(7) -0.122656(13) 0.741311(7)
U1C U 0.207516(7) 0.377344(13) 0.758689(7)
U1C_2 U 1.207516(7) 0.377344(13) 0.758689(7)
F1A F 0.74529(11) 0.3595(2) 0.20187(12)
F1C F 0.25471(11) -0.3595(2) 0.79813(12)
O3B_2 O 0.14142(14) -0.0999(2) 0.73641(14)
O5A O 0.58420(13) 0.3071(2) 0.23011(13)
O5C O 0.41580(13) -0.3071(2) 0.76989(13)
N1 N 0.73914(18) 0.6580(3) 0.55551(18)
C7 C 0.8339(3) 0.4101(5) 0.5483(3)
H5 H 0.8551 0.3088 0.5782
H6 H 0.8834 0.4791 0.5465
H7 H 0.8000 0.3855 0.4900
C8 C 0.7771(2) 0.4980(4) 0.5949(2)
H8 H 0.8118 0.5189 0.6542
H9 H 0.7286 0.4253 0.5979
C9 C 0.6846(2) 0.7286(5) 0.6105(2)
H10 H 0.6532 0.8248 0.5811
H11 H 0.6405 0.6473 0.6153
C10 C 0.7346(3) 0.7780(7) 0.6987(3)
H12 H 0.6944 0.8205 0.7297
H13 H 0.7768 0.8622 0.6950
H14 H 0.7653 0.6834 0.7290
C11 C 0.6015(3) 0.5360(6) 0.4574(3)
H15 H 0.5692 0.5283 0.3972
H16 H 0.5652 0.5885 0.4897
H17 H 0.6175 0.4269 0.4802
C12 C 0.6824(2) 0.6347(5) 0.4653(2)
H18 H 0.6652 0.7430 0.4400
H19 H 0.7176 0.5817 0.4311
C13 C 0.8137(2) 0.7687(5) 0.5516(3)
H20 H 0.8571 0.7669 0.6078
H21 H 0.8421 0.7243 0.5091
C14 C 0.7889(3) 0.9427(5) 0.5286(4)
H22 H 0.8409 1.0047 0.5272
H23 H 0.7627 0.9897 0.5713
H24 H 0.7470 0.9468 0.4723
loop_
_geom_bond_atom_site_label_1
_geom_bond_atom_site_label_2
_geom_bond_site_symmetry_1
_geom_bond_site_symmetry_2
U1 F1 1_555 1_555
P1 O3 1_555 1_555
P2 O7 1_555 1_555
F1 U1A 1_555 1_555
O1 U1 1_555 1_555
O2 U1 1_555 1_555
O3 U1 1_555 1_555
O4 P1 1_555 1_555
O5 P1 1_555 1_555
O6 H1 1_555 1_555
O7 U1 1_555 1_555
O8 P2 1_555 1_555
O9 P2 1_555 1_555
O10 H2 1_555 1_555
C1 P1 1_555 1_555
C2 O6 1_555 1_555
C3 C1 1_555 1_555
H3 C3 1_555 1_555
C4 P2 1_555 1_555
C5 O10 1_555 1_555
C6 C4 1_555 1_555
H4 C6 1_555 1_555
N1 C8 1_555 1_555
C7 H5 1_555 1_555
H6 C7 1_555 1_555
H7 C7 1_555 1_555
C8 C7 1_555 1_555
H8 C8 1_555 1_555
H9 C8 1_555 1_555
C9 N1 1_555 1_555
H10 C9 1_555 1_555
H11 C9 1_555 1_555
C10 C9 1_555 1_555
H12 C10 1_555 1_555
H13 C10 1_555 1_555
H14 C10 1_555 1_555
C11 H15 1_555 1_555
H16 C11 1_555 1_555
H17 C11 1_555 1_555
C12 N1 1_555 1_555
H18 C12 1_555 1_555
H19 C12 1_555 1_555
C13 N1 1_555 1_555
H20 C13 1_555 1_555
H21 C13 1_555 1_555
C14 C13 1_555 1_555
H22 C14 1_555 1_555
H23 C14 1_555 1_555
H24 C14 1_555 1_555
P1B O3B 1_555 1_555
O3B U1B_2 1_555 1_555
O4B P1B 1_555 1_555
O5B P1B 1_555 1_555
O6B H1B 1_555 1_555
C1B P1B 1_555 1_555
C2B C3 1_555 1_555
C3B C2 1_555 1_555
H3B C3B 1_555 1_555
P2B O7B 1_555 1_555
O7B U1B 1_555 1_555
O8B P2B 1_555 1_555
O9B P2B 1_555 1_555
O10B H2B 1_555 1_555
C4B P2B 1_555 1_555
C5B C6 1_555 1_555
C6B C5 1_555 1_555
H4B C6B 1_555 1_555
U1B F1B 1_555 1_555
F1B U1C 1_555 1_555
O1B U1B 1_555 1_555
O2B U1B 1_555 1_555
U1A O5 1_555 1_555
U1C_2 O5B 1_555 1_555
F1A U1 1_555 1_555
F1C U1B 1_555 1_555
O3B_2 U1B 1_555 1_555
O5A U1 1_555 1_555
O5C U1B 1_555 1_555
C1 C2 1_555 1_555
C4 C5 1_555 1_555
C11 C12 1_555 1_555
O6B C2B 1_555 1_555
C1B C2B 1_555 1_555
C1B C3B 1_555 1_555
O10B C5B 1_555 1_555
C4B C5B 1_555 1_555
C4B C6B 1_555 1_555

#END
