
#######################################################################
#
#                 Cambridge Crystallographic Data Centre
#                                CCDC 
#
#######################################################################
#
# If this CIF has been generated from an entry in the Cambridge 
# Structural Database, then it will include bibliographic, chemical, 
# crystal, experimental, refinement or atomic coordinate data resulting 
# from the CCDC's data processing and validation procedures.
#
#######################################################################

data_NOWGUD
_symmetry_cell_setting           triclinic
_symmetry_space_group_name_H-M   'P -1'
_symmetry_Int_Tables_number      2
_space_group_name_Hall           '-P 1'
loop_
_symmetry_equiv_pos_site_id
_symmetry_equiv_pos_as_xyz
1 x,y,z
2 -x,-y,-z
_cell_length_a                   10.0030(11)
_cell_length_b                   21.988(3)
_cell_length_c                   26.144(3)
_cell_angle_alpha                108.7890(10)
_cell_angle_beta                 90.6000(10)
_cell_angle_gamma                100.8430(10)
_cell_volume                     5331.01
loop_
_atom_site_label
_atom_site_type_symbol
_atom_site_fract_x
_atom_site_fract_y
_atom_site_fract_z
Ag1 Ag 1.60208(9) 0.24819(4) 0.31412(5)
Ag2 Ag 1.96323(9) 0.25015(4) 0.27567(4)
Ag3 Ag 1.38727(10) 0.07378(4) 0.27493(4)
Ag4 Ag 1.61263(10) -0.05252(4) 0.23768(5)
Ag5 Ag 1.41481(10) -0.22372(5) 0.22839(6)
Ag6 Ag 1.05035(9) -0.22921(4) 0.20873(4)
N1 N 1.8747(9) 0.3391(5) 0.2941(4)
N2 N 1.7548(10) 0.3379(5) 0.3197(5)
N3 N 1.7265(12) 0.3960(5) 0.3330(5)
N4 N 1.8217(11) 0.4366(4) 0.3175(4)
H1 H 1.8250 0.4772 0.3214
N5 N 2.1621(10) 0.5207(5) 0.2522(4)
N6 N 1.3772(10) 0.2214(4) 0.2929(4)
N7 N 1.3101(11) 0.1590(4) 0.2674(4)
N8 N 1.1826(10) 0.1577(4) 0.2599(4)
N9 N 1.1579(11) 0.2180(4) 0.2808(4)
N10 N 1.2409(13) 0.4141(6) 0.3993(5)
H2 H 1.1922 0.4277 0.4260
N11 N 1.6960(10) 0.0518(4) 0.2479(4)
N12 N 1.6225(10) 0.0975(4) 0.2741(4)
N13 N 1.6916(10) 0.1555(4) 0.2761(4)
N14 N 1.8039(9) 0.1489(4) 0.2499(4)
N15 N 2.0042(19) -0.0401(10) 0.1574(8)
H3 H 2.0282 -0.0751 0.1590
N16 N 1.3071(9) -0.0299(4) 0.2683(4)
N17 N 1.3814(9) -0.0738(4) 0.2392(4)
N18 N 1.3178(9) -0.1322(5) 0.2370(4)
N19 N 1.2031(9) -0.1299(4) 0.2612(4)
N20 N 0.9575(12) -0.0559(6) 0.3879(5)
H4 H 0.9238 -0.0801 0.4066
N21 N 1.1391(9) -0.3153(4) 0.1770(4)
N22 N 1.2574(9) -0.3146(4) 0.2031(4)
N23 N 1.2749(11) -0.3743(5) 0.1952(4)
N24 N 1.1694(11) -0.4155(5) 0.1644(4)
H5 H 1.1563 -0.4576 0.1535
N25 N 0.7847(18) -0.4991(7) 0.0714(6)
N26 N 0.8552(9) -0.1999(4) 0.2203(4)
N27 N 0.8364(9) -0.1381(4) 0.2289(4)
N28 N 0.7073(10) -0.1395(4) 0.2305(5)
N29 N 0.6379(9) -0.1999(4) 0.2218(4)
N30 N 0.5694(13) -0.4144(6) 0.1625(5)
H6 H 0.5104 -0.4410 0.1372
C1 C 1.9084(11) 0.4003(5) 0.2950(4)
C2 C 2.0232(10) 0.4270(5) 0.2675(4)
C3 C 2.0627(11) 0.4947(5) 0.2822(4)
H7 H 2.0253 0.5221 0.3109
C4 C 2.2141(13) 0.4783(6) 0.2103(6)
H8 H 2.2788 0.4950 0.1904
C5 C 2.1737(12) 0.4135(6) 0.1975(5)
H9 H 2.2103 0.3860 0.1686
C6 C 2.0808(11) 0.3867(5) 0.2254(5)
H10 H 2.0560 0.3414 0.2164
C7 C 1.2787(11) 0.2560(5) 0.3012(4)
C8 C 1.3038(11) 0.3275(5) 0.3293(4)
C9 C 1.2181(13) 0.3483(7) 0.3721(5)
H11 H 1.1507 0.3188 0.3809
C10 C 1.3326(16) 0.4584(7) 0.3876(7)
H12 H 1.3438 0.5025 0.4081
C11 C 1.4104(17) 0.4391(6) 0.3454(6)
H13 H 1.4727 0.4707 0.3367
C12 C 1.3992(11) 0.3736(6) 0.3149(5)
H14 H 1.4528 0.3607 0.2861
C13 C 1.7999(10) 0.0837(5) 0.2323(4)
C14 C 1.8968(12) 0.0510(5) 0.1937(5)
C15 C 1.9432(18) 0.0741(8) 0.1544(7)
H15 H 1.9331 0.1156 0.1552
C16 C 2.005(2) 0.0373(10) 0.1137(8)
H16 H 2.0186 0.0495 0.0830
C17 C 2.044(2) -0.0136(12) 0.1158(10)
H17 H 2.0992 -0.0336 0.0898
C18 C 1.9254(12) -0.0071(6) 0.1951(5)
H18 H 1.8913 -0.0243 0.2217
C19 C 1.2014(10) -0.0651(5) 0.2820(4)
C20 C 1.1020(10) -0.0411(5) 0.3191(4)
C21 C 1.0462(14) -0.0766(6) 0.3506(5)
H19 H 1.0701 -0.1167 0.3463
C22 C 0.9216(14) 0.0017(7) 0.3961(6)
H20 H 0.8632 0.0162 0.4228
C23 C 0.9724(16) 0.0408(7) 0.3640(7)
H21 H 0.9436 0.0797 0.3675
C24 C 1.0661(13) 0.0196(5) 0.3274(5)
H22 H 1.1059 0.0461 0.3079
C25 C 1.0877(12) -0.3800(5) 0.1533(4)
C26 C 0.9673(15) -0.4070(6) 0.1150(5)
C27 C 0.9171(17) -0.3721(7) 0.0860(5)
H23 H 0.9589 -0.3288 0.0911
C28 C 0.8086(17) -0.4012(7) 0.0511(5)
H24 H 0.7746 -0.3773 0.0323
C29 C 0.7433(19) -0.4667(9) 0.0414(8)
H25 H 0.6723 -0.4869 0.0145
C30 C 0.9039(16) -0.4726(7) 0.1056(6)
H26 H 0.9409 -0.4981 0.1220
C31 C 0.7294(10) -0.2369(5) 0.2169(4)
C32 C 0.6965(10) -0.3066(5) 0.2079(4)
C33 C 0.6004(12) -0.3488(5) 0.1686(5)
H27 H 0.5556 -0.3329 0.1459
C34 C 0.6348(13) -0.4374(6) 0.1978(6)
H28 H 0.6103 -0.4812 0.1957
C35 C 0.7326(10) -0.3965(5) 0.2344(4)
H29 H 0.7795 -0.4132 0.2560
C36 C 0.7665(12) -0.3313(5) 0.2415(4)
H30 H 0.8340 -0.3037 0.2678
Ag2_2 Ag 0.96323(9) 0.25015(4) 0.27567(4)
Ag4_2 Ag 0.61263(10) -0.05252(4) 0.23768(5)
Ag5_2 Ag 0.41481(10) -0.22372(5) 0.22839(6)
N9_2 N 2.1579(11) 0.2180(4) 0.2808(4)
N28_2 N 1.7073(10) -0.1395(4) 0.2305(5)
N29_2 N 1.6379(9) -0.1999(4) 0.2218(4)
Mo1 Mo 1.77024(11) 0.19465(5) -0.07694(4)
Mo2 Mo 1.37354(11) 0.27376(5) 0.14949(4)
Mo3 Mo 1.90490(10) 0.32339(5) 0.04041(5)
Mo4 Mo 1.64205(10) 0.33796(4) -0.04208(4)
Mo5 Mo 1.23243(10) 0.14074(5) 0.02720(5)
Mo6 Mo 1.68847(11) 0.37472(4) 0.15161(4)
Mo7 Mo 1.44071(12) 0.09202(5) -0.07789(4)
Mo8 Mo 1.82197(11) 0.22660(5) 0.12838(4)
Mo9 Mo 1.50244(10) 0.12350(5) 0.11344(4)
Mo10 Mo 1.30706(10) 0.23255(5) -0.05794(4)
Mo11 Mo 1.41531(9) 0.37198(4) 0.06601(3)
Mo12 Mo 1.72364(9) 0.09360(4) 0.01002(3)
P1 P 1.5680(2) 0.23292(11) 0.03640(9)
O1 O 1.6275(10) 0.1884(5) 0.0606(4)
O2 O 1.5295(9) 0.2890(4) 0.0803(4)
O3 O 1.6730(9) 0.2613(4) 0.0035(4)
O4 O 1.4393(9) 0.1932(4) -0.0026(4)
O5 O 1.7586(12) 0.4386(4) 0.2046(4)
O6 O 1.8076(11) 0.3747(5) 0.0975(4)
O7 O 1.9525(8) 0.2297(4) 0.1698(3)
O8 O 1.9085(12) 0.2693(5) 0.0797(5)
O9 O 1.2694(9) 0.2879(5) 0.1988(3)
O10 O 2.0576(9) 0.3712(5) 0.0498(4)
O11 O 1.4535(14) 0.0773(4) 0.1515(4)
O12 O 1.6848(9) 0.1746(5) 0.1495(3)
O13 O 1.5993(10) 0.1418(5) -0.0985(4)
O14 O 1.7923(10) 0.0273(4) -0.0106(5)
O15 O 1.7971(9) 0.1402(5) -0.0352(4)
O16 O 1.8629(10) 0.1697(5) -0.1301(4)
O17 O 1.9188(11) 0.2610(5) -0.0266(4)
O18 O 1.5955(9) 0.0728(5) 0.0617(3)
O19 O 1.1864(11) 0.1864(5) -0.0187(5)
O20 O 1.0821(9) 0.0955(4) 0.0315(4)
O21 O 1.5724(9) 0.4129(5) 0.1203(4)
O22 O 1.1908(9) 0.2445(5) -0.0983(4)
O23 O 1.2963(14) 0.0816(5) -0.0359(5)
O24 O 1.4686(10) 0.2820(5) -0.0720(4)
O25 O 1.8092(12) 0.3663(5) -0.0020(4)
O26 O 1.3435(13) 0.1529(5) -0.0995(5)
O27 O 1.5297(9) 0.3374(5) 0.1824(4)
O28 O 1.6609(12) 0.3880(5) -0.0782(4)
O29 O 1.3974(9) 0.0281(4) -0.1348(4)
O30 O 1.5600(11) 0.3815(5) 0.0166(4)
O31 O 1.4470(10) 0.2066(4) 0.1526(4)
O32 O 1.3566(9) 0.4398(4) 0.0743(4)
O33 O 1.8406(10) 0.1452(5) 0.0699(4)
O34 O 1.5564(9) 0.0691(5) -0.0384(4)
O35 O 1.7173(11) 0.2658(5) -0.0911(4)
O36 O 1.7585(11) 0.3016(5) 0.1588(5)
O37 O 1.3099(9) 0.3101(5) 0.0077(4)
O38 O 1.3274(9) 0.3390(6) 0.1169(4)
O39 O 1.3547(9) 0.1090(5) 0.0661(4)
O40 O 1.2520(12) 0.2131(5) 0.0890(4)
Mo13 Mo 1.58325(11) 0.11941(6) 0.60539(5)
Mo14 Mo 1.85484(10) 0.15618(5) 0.52591(5)
Mo15 Mo 1.32317(11) 0.21248(6) 0.62781(4)
Mo16 Mo 1.54738(12) 0.36633(5) 0.65284(4)
Mo17 Mo 1.55502(11) 0.34534(5) 0.46610(4)
Mo18 Mo 1.58999(11) 0.09733(5) 0.41828(4)
Mo19 Mo 1.28285(10) 0.31030(5) 0.54598(4)
Mo20 Mo 1.82242(10) 0.37796(5) 0.56803(4)
Mo21 Mo 1.32814(10) 0.18888(5) 0.42336(4)
Mo22 Mo 1.81211(9) 0.27564(4) 0.65021(3)
Mo23 Mo 1.81692(10) 0.25124(5) 0.44111(4)
Mo24 Mo 1.31735(9) 0.08377(4) 0.50216(3)
P2 P 1.5695(2) 0.23244(11) 0.53590(9)
O41 O 1.6611(14) 0.2077(7) 0.5691(5)
O42 O 1.6530(12) 0.2830(6) 0.5129(5)
O43 O 1.4883(14) 0.1750(6) 0.4902(5)
O44 O 1.4716(17) 0.2684(6) 0.5756(5)
O45 O 1.9057(15) 0.2087(6) 0.4843(6)
O46 O 1.2299(14) 0.2593(7) 0.5882(5)
O47 O 1.1616(11) 0.3516(6) 0.5543(5)
O48 O 1.2395(13) 0.2453(6) 0.4828(5)
O49 O 1.5421(13) 0.3946(6) 0.4308(5)
O50 O 1.9337(12) 0.2621(7) 0.4001(4)
O51 O 1.7138(11) 0.1705(5) 0.4031(6)
O52 O 1.4447(10) 0.1655(7) 0.6424(4)
O53 O 1.8848(11) 0.3413(5) 0.6137(5)
O54 O 1.7222(13) 0.0980(6) 0.4663(5)
O55 O 1.4301(11) 0.2634(6) 0.4175(4)
O56 O 1.5942(14) 0.0728(6) 0.6425(5)
O57 O 1.6817(13) 0.4042(6) 0.6181(6)
O58 O 1.9278(10) 0.4504(4) 0.5847(4)
O59 O 1.7032(12) 0.2019(5) 0.6529(6)
O60 O 1.5396(9) 0.4277(5) 0.7081(3)
O61 O 1.6901(12) 0.3289(5) 0.6777(5)
O62 O 1.7284(14) 0.1096(6) 0.5658(6)
O63 O 1.4103(14) 0.3681(7) 0.6063(5)
O64 O 1.6914(11) 0.2972(5) 0.4269(4)
O65 O 1.2550(12) 0.1226(7) 0.4581(4)
O66 O 1.9784(8) 0.1150(4) 0.5206(4)
O67 O 1.9029(12) 0.2212(5) 0.5913(5)
O68 O 1.6896(10) 0.3945(6) 0.5171(4)
O69 O 1.2038(10) 0.0153(5) 0.4863(7)
O70 O 1.4108(11) 0.3577(5) 0.5074(4)
O71 O 1.6073(13) 0.0373(4) 0.3623(4)
O72 O 1.4524(11) 0.0574(7) 0.4514(4)
O73 O 1.4475(12) 0.1352(8) 0.3926(5)
O74 O 1.8842(13) 0.3286(6) 0.5061(5)
O75 O 1.4494(12) 0.0715(7) 0.5519(4)
O76 O 1.4252(14) 0.2950(7) 0.6678(5)
O77 O 1.2027(9) 0.2019(4) 0.6674(3)
O78 O 1.2572(11) 0.1371(6) 0.5643(4)
O79 O 1.2063(10) 0.1692(5) 0.3746(4)
O80 O 1.9335(12) 0.3006(9) 0.7003(5)
O81 O 0.8045(13) -0.4361(5) 0.3153(4)
O82 O 1.099(2) 0.4482(12) 0.4890(9)
O83? O 1.6700(16) 0.1975(7) 0.4949(5)
O84? O 1.6496(16) 0.2880(7) 0.5834(6)
O85? O 1.4781(15) 0.2579(7) 0.5050(6)
O86? O 1.4847(15) 0.1804(7) 0.5565(6)
loop_
_geom_bond_atom_site_label_1
_geom_bond_atom_site_label_2
_geom_bond_site_symmetry_1
_geom_bond_site_symmetry_2
Ag1 N2 1_555 1_555
Ag2 N1 1_555 1_555
Ag3 N7 1_555 1_555
Ag4 N11 1_555 1_555
Ag5 N18 1_555 1_555
Ag6 N19 1_555 1_555
N1 N2 1_555 1_555
N2 N3 1_555 1_555
N3 N4 1_555 1_555
N4 H1 1_555 1_555
N5 C3 1_555 1_555
N6 Ag1 1_555 1_555
N7 N6 1_555 1_555
N8 N7 1_555 1_555
N9 N8 1_555 1_555
N10 H2 1_555 1_555
N11 N12 1_555 1_555
N12 Ag3 1_555 1_555
N13 Ag1 1_555 1_555
N14 Ag2 1_555 1_555
N15 H3 1_555 1_555
N16 Ag3 1_555 1_555
N17 Ag4 1_555 1_555
N18 N17 1_555 1_555
N19 N18 1_555 1_555
N20 H4 1_555 1_555
N21 Ag6 1_555 1_555
N22 Ag5 1_555 1_555
N23 N22 1_555 1_555
N24 N23 1_555 1_555
H5 N24 1_555 1_555
N25 C29 1_555 1_555
N26 Ag6 1_555 1_555
N27 N26 1_555 1_555
N28 N27 1_555 1_555
N29 N28 1_555 1_555
N30 H6 1_555 1_555
C1 N1 1_555 1_555
C2 C1 1_555 1_555
C3 C2 1_555 1_555
H7 C3 1_555 1_555
C4 N5 1_555 1_555
H8 C4 1_555 1_555
C5 C4 1_555 1_555
H9 C5 1_555 1_555
C6 C2 1_555 1_555
H10 C6 1_555 1_555
C7 N6 1_555 1_555
C8 C7 1_555 1_555
C9 N10 1_555 1_555
H11 C9 1_555 1_555
C10 N10 1_555 1_555
H12 C10 1_555 1_555
C11 C10 1_555 1_555
H13 C11 1_555 1_555
C12 C8 1_555 1_555
H14 C12 1_555 1_555
C13 N11 1_555 1_555
C14 C13 1_555 1_555
C15 C14 1_555 1_555
H15 C15 1_555 1_555
C16 C15 1_555 1_555
H16 C16 1_555 1_555
C17 N15 1_555 1_555
H17 C17 1_555 1_555
C18 N15 1_555 1_555
H18 C18 1_555 1_555
C19 N16 1_555 1_555
C20 C19 1_555 1_555
C21 N20 1_555 1_555
H19 C21 1_555 1_555
C22 N20 1_555 1_555
H20 C22 1_555 1_555
C23 C22 1_555 1_555
H21 C23 1_555 1_555
C24 C20 1_555 1_555
H22 C24 1_555 1_555
C25 N21 1_555 1_555
C26 C25 1_555 1_555
C27 C26 1_555 1_555
H23 C27 1_555 1_555
C28 C27 1_555 1_555
H24 C28 1_555 1_555
C29 C28 1_555 1_555
H25 C29 1_555 1_555
C30 N25 1_555 1_555
H26 C30 1_555 1_555
C31 N26 1_555 1_555
C32 C31 1_555 1_555
C33 N30 1_555 1_555
H27 C33 1_555 1_555
C34 N30 1_555 1_555
H28 C34 1_555 1_555
C35 C34 1_555 1_555
H29 C35 1_555 1_555
C36 C32 1_555 1_555
H30 C36 1_555 1_555
Mo1 O3 1_555 1_555
Mo2 O2 1_555 1_555
Mo3 O3 1_555 1_555
Mo4 O3 1_555 1_555
Mo5 O4 1_555 1_555
Mo6 O2 1_555 1_555
Mo7 O4 1_555 1_555
Mo8 O1 1_555 1_555
Mo9 O1 1_555 1_555
Mo10 O4 1_555 1_555
Mo11 O2 1_555 1_555
Mo12 O1 1_555 1_555
P1 O1 1_555 1_555
O2 P1 1_555 1_555
O3 P1 1_555 1_555
O4 P1 1_555 1_555
O5 Mo6 1_555 1_555
O6 Mo3 1_555 1_555
O7 Mo8 1_555 1_555
O8 Mo3 1_555 1_555
O9 Mo2 1_555 1_555
O10 Mo3 1_555 1_555
O11 Mo9 1_555 1_555
O12 Mo8 1_555 1_555
O13 Mo1 1_555 1_555
O14 Mo12 1_555 1_555
O15 Mo1 1_555 1_555
O16 Mo1 1_555 1_555
O17 Mo1 1_555 1_555
O18 Mo9 1_555 1_555
O19 Mo5 1_555 1_555
O20 Mo5 1_555 1_555
O21 Mo6 1_555 1_555
O22 Mo10 1_555 1_555
O23 Mo5 1_555 1_555
O24 Mo4 1_555 1_555
O25 Mo3 1_555 1_555
O26 Mo7 1_555 1_555
O27 Mo2 1_555 1_555
O28 Mo4 1_555 1_555
O29 Mo7 1_555 1_555
O30 Mo4 1_555 1_555
O31 Mo2 1_555 1_555
O32 Mo11 1_555 1_555
O33 Mo8 1_555 1_555
O34 Mo7 1_555 1_555
O35 Mo1 1_555 1_555
O36 Mo6 1_555 1_555
O37 Mo10 1_555 1_555
O38 Mo2 1_555 1_555
O39 Mo5 1_555 1_555
O40 Mo2 1_555 1_555
Mo13 O41 1_555 1_555
Mo14 O41 1_555 1_555
Mo15 O44 1_555 1_555
Mo16 O44 1_555 1_555
Mo17 O42 1_555 1_555
Mo18 O43 1_555 1_555
Mo19 O44 1_555 1_555
Mo20 O42 1_555 1_555
Mo21 O43 1_555 1_555
Mo22 O41 1_555 1_555
Mo23 O42 1_555 1_555
Mo24 O43 1_555 1_555
P2 O41 1_555 1_555
O42 P2 1_555 1_555
O43 P2 1_555 1_555
O44 P2 1_555 1_555
O45 Mo14 1_555 1_555
O46 Mo15 1_555 1_555
O47 Mo19 1_555 1_555
O48 Mo19 1_555 1_555
O49 Mo17 1_555 1_555
O50 Mo23 1_555 1_555
O51 Mo18 1_555 1_555
O52 Mo13 1_555 1_555
O53 Mo20 1_555 1_555
O54 Mo14 1_555 1_555
O55 Mo17 1_555 1_555
O56 Mo13 1_555 1_555
O57 Mo16 1_555 1_555
O58 Mo20 1_555 1_555
O59 Mo13 1_555 1_555
O60 Mo16 1_555 1_555
O61 Mo16 1_555 1_555
O62 Mo13 1_555 1_555
O63 Mo16 1_555 1_555
O64 Mo17 1_555 1_555
O65 Mo21 1_555 1_555
O66 Mo14 1_555 1_555
O67 Mo14 1_555 1_555
O68 Mo17 1_555 1_555
O69 Mo24 1_555 1_555
O70 Mo17 1_555 1_555
O71 Mo18 1_555 1_555
O72 Mo18 1_555 1_555
O73 Mo18 1_555 1_555
O74 Mo20 1_555 1_555
O75 Mo13 1_555 1_555
O76 Mo15 1_555 1_555
O77 Mo15 1_555 1_555
O78 Mo15 1_555 1_555
O79 Mo21 1_555 1_555
O80 Mo22 1_555 1_555
Ag2_2 N9 1_555 1_555
Ag4_2 N28 1_555 1_555
Ag5_2 N29 1_555 1_555
N9_2 Ag2 1_555 1_555
N28_2 Ag4 1_555 1_555
N29_2 Ag5 1_555 1_555
N4 C1 1_555 1_555
N9 C7 1_555 1_555
N12 N13 1_555 1_555
N13 N14 1_555 1_555
N14 C13 1_555 1_555
N16 N17 1_555 1_555
N19 C19 1_555 1_555
N21 N22 1_555 1_555
N24 C25 1_555 1_555
N29 C31 1_555 1_555
C5 C6 1_555 1_555
C8 C9 1_555 1_555
C11 C12 1_555 1_555
C14 C18 1_555 1_555
C16 C17 1_555 1_555
C20 C21 1_555 1_555
C23 C24 1_555 1_555
C26 C30 1_555 1_555
C32 C33 1_555 1_555
C35 C36 1_555 1_555
Mo3 O17 1_555 1_555
Mo4 O25 1_555 1_555
Mo4 O35 1_555 1_555
Mo5 O40 1_555 1_555
Mo6 O6 1_555 1_555
Mo6 O27 1_555 1_555
Mo7 O13 1_555 1_555
Mo7 O23 1_555 1_555
Mo8 O8 1_555 1_555
Mo8 O36 1_555 1_555
Mo9 O12 1_555 1_555
Mo9 O31 1_555 1_555
Mo9 O39 1_555 1_555
Mo10 O19 1_555 1_555
Mo10 O24 1_555 1_555
Mo10 O26 1_555 1_555
Mo11 O21 1_555 1_555
Mo11 O30 1_555 1_555
Mo11 O37 1_555 1_555
Mo11 O38 1_555 1_555
Mo12 O15 1_555 1_555
Mo12 O18 1_555 1_555
Mo12 O33 1_555 1_555
Mo12 O34 1_555 1_555
Mo14 O62 1_555 1_555
Mo15 O52 1_555 1_555
Mo16 O76 1_555 1_555
Mo18 O54 1_555 1_555
Mo19 O46 1_555 1_555
Mo19 O63 1_555 1_555
Mo19 O70 1_555 1_555
Mo20 O57 1_555 1_555
Mo20 O68 1_555 1_555
Mo21 O48 1_555 1_555
Mo21 O55 1_555 1_555
Mo21 O73 1_555 1_555
Mo22 O53 1_555 1_555
Mo22 O59 1_555 1_555
Mo22 O61 1_555 1_555
Mo22 O67 1_555 1_555
Mo23 O45 1_555 1_555
Mo23 O51 1_555 1_555
Mo23 O64 1_555 1_555
Mo23 O74 1_555 1_555
Mo24 O65 1_555 1_555
Mo24 O72 1_555 1_555
Mo24 O75 1_555 1_555
Mo24 O78 1_555 1_555
N28_2 N29_2 1_555 1_555

#END
