
#######################################################################
#
#                 Cambridge Crystallographic Data Centre
#                                CCDC 
#
#######################################################################
#
# If this CIF has been generated from an entry in the Cambridge 
# Structural Database, then it will include bibliographic, chemical, 
# crystal, experimental, refinement or atomic coordinate data resulting 
# from the CCDC's data processing and validation procedures.
#
#######################################################################

data_NOZZUZ
_symmetry_cell_setting           monoclinic
_symmetry_space_group_name_H-M   'C 2/c'
_symmetry_Int_Tables_number      15
_space_group_name_Hall           '-C 2yn'
loop_
_symmetry_equiv_pos_site_id
_symmetry_equiv_pos_as_xyz
1 x,y,z
2 -x,y,1/2-z
3 1/2+x,1/2+y,z
4 1/2-x,1/2+y,1/2-z
5 -x,-y,-z
6 x,-y,1/2+z
7 1/2-x,1/2-y,-z
8 1/2+x,1/2-y,1/2+z
_cell_length_a                   26.567(5)
_cell_length_b                   14.332(3)
_cell_length_c                   25.354(7)
_cell_angle_alpha                90
_cell_angle_beta                 119.200(2)
_cell_angle_gamma                90
_cell_volume                     8426.97
loop_
_atom_site_label
_atom_site_type_symbol
_atom_site_fract_x
_atom_site_fract_y
_atom_site_fract_z
Cd1 Cd 0.164831(6) 0.532942(10) 0.967198(7)
Cd2 Cd 0.2500 0.7500 1.0000
Si1 Si 0.43612(2) 0.53502(4) 0.85835(3)
C1 C 0.48920(9) 0.43695(15) 0.89081(10)
C2 C 0.38544(9) 0.53936(15) 0.88983(10)
O1 O 0.22427(7) 0.62220(11) 0.93340(7)
O2 O 0.29178(7) 0.35377(11) 0.57382(7)
O3 O 0.66241(6) 0.22659(12) 0.99166(7)
O4 O 0.23214(9) 0.46945(12) 0.94527(11)
C3 C 0.47716(9) 0.64755(15) 0.87575(10)
C4 C 0.31703(9) 0.45805(14) 0.65473(10)
C5 C 0.29640(10) 0.54482(16) 0.91934(11)
C6 C 0.37109(11) 0.46013(16) 0.91204(13)
H1 H 0.3919 0.4038 0.9174
C7 C 0.31172(10) 0.62497(16) 0.89988(11)
H2 H 0.2921 0.6819 0.8967
C8 C 0.27594(9) 0.42340(15) 0.59202(10)
C9 C 0.54804(9) 0.45271(15) 0.92289(10)
H3 H 0.5619 0.5151 0.9309
C10 C 0.35522(10) 0.62242(15) 0.88506(11)
H4 H 0.3650 0.6777 0.8714
C11 C 0.41061(10) 0.4598(2) 0.74295(12)
H5 H 0.4501 0.4426 0.7618
C12 C 0.39078(9) 0.51221(14) 0.77533(10)
C13 C 0.33323(11) 0.54032(18) 0.74400(12)
H6 H 0.3184 0.5780 0.7641
C14 C 0.32727(12) 0.46250(17) 0.92630(14)
H7 H 0.3180 0.4078 0.9410
C15 C 0.24821(11) 0.54529(17) 0.93365(12)
C16 C 0.29704(11) 0.51493(19) 0.68436(12)
H8 H 0.2584 0.5368 0.6639
C17 C 0.37429(10) 0.4321(2) 0.68393(12)
H9 H 0.3889 0.3950 0.6634
C18 C 0.47096(10) 0.34379(17) 0.88081(14)
H10 H 0.4308 0.3305 0.8593
O5 O 0.22934(7) 0.46759(13) 0.56350(8)
O6 O 0.59234(7) 0.13046(12) 0.93276(10)
C19 C 0.58701(9) 0.38015(16) 0.94356(10)
H11 H 0.6271 0.3932 0.9653
O7 O 0.61904(9) 0.90757(13) 0.98230(9)
O8 O 0.59696(10) 0.92781(16) 0.88835(11)
C20 C 0.56852(8) 0.28904(15) 0.93312(10)
C21 C 0.55039(10) 0.80350(16) 0.90907(12)
C22 C 0.61089(9) 0.21076(16) 0.95399(11)
C23 C 0.50540(11) 0.67973(18) 0.93529(12)
H12 H 0.4996 0.6484 0.9649
C24 C 0.54158(12) 0.75633(18) 0.95193(13)
H13 H 0.5605 0.7769 0.9927
C25 C 0.59136(11) 0.88530(17) 0.92792(13)
C26 C 0.50985(10) 0.27050(17) 0.90143(14)
H14 H 0.4964 0.2079 0.8939
C27 C 0.48577(11) 0.69616(18) 0.83363(12)
H15 H 0.4670 0.6757 0.7928
C28 C 0.52138(12) 0.77445(19) 0.84986(13)
H16 H 0.5256 0.8079 0.8199
Cd1D Cd 0.835169(6) 0.467058(10) 1.032802(7)
Si1D Si 0.56388(2) 0.46498(4) 1.14165(3)
C1D C 0.51080(9) 0.56305(15) 1.10919(10)
C2D C 0.61456(9) 0.46064(15) 1.11017(10)
O1D O 0.77573(7) 0.37780(11) 1.06660(7)
O2D O 0.70822(7) 0.64623(11) 1.42618(7)
O3D O 0.33759(6) 0.77341(12) 1.00834(7)
O4D O 0.76786(9) 0.53055(12) 1.05473(11)
C3D C 0.52284(9) 0.35245(15) 1.12425(10)
C4D C 0.68297(9) 0.54195(14) 1.34527(10)
C5D C 0.70360(10) 0.45518(16) 1.08066(11)
C6D C 0.62891(11) 0.53987(16) 1.08796(13)
H1D H 0.6081 0.5962 1.0826
C7D C 0.68828(10) 0.37503(16) 1.10012(11)
H2D H 0.7079 0.3181 1.1033
C8D C 0.72406(9) 0.57660(15) 1.40798(10)
C9D C 0.45196(9) 0.54729(15) 1.07711(10)
H3D H 0.4381 0.4849 1.0691
C10D C 0.64478(10) 0.37758(15) 1.11494(11)
H4D H 0.6350 0.3223 1.1286
C11D C 0.58939(10) 0.5402(2) 1.25705(12)
H5D H 0.5499 0.5574 1.2382
C12D C 0.60922(9) 0.48779(14) 1.22467(10)
C13D C 0.66677(11) 0.45968(18) 1.25600(12)
H6D H 0.6816 0.4220 1.2359
C14D C 0.67273(12) 0.53750(17) 1.07370(14)
H7D H 0.6820 0.5922 1.0590
C15D C 0.75179(11) 0.45471(17) 1.06635(12)
C16D C 0.70296(11) 0.48507(19) 1.31564(12)
H8D H 0.7416 0.4632 1.3361
C17D C 0.62571(10) 0.5679(2) 1.31607(12)
H9D H 0.6111 0.6050 1.3366
C18D C 0.52904(10) 0.65621(17) 1.11919(14)
H10D H 0.5692 0.6695 1.1407
O5D O 0.77066(7) 0.53241(13) 1.43650(8)
O6D O 0.40766(7) 0.86954(12) 1.06724(10)
C19D C 0.41299(9) 0.61985(16) 1.05644(10)
H11D H 0.3729 0.6068 1.0347
O7D O 0.38096(9) 0.09243(13) 1.01770(9)
O8D O 0.40304(10) 0.07219(16) 1.11165(11)
C20D C 0.43148(8) 0.71096(15) 1.06688(10)
C21D C 0.44961(10) 0.19650(16) 1.09093(12)
C22D C 0.38911(9) 0.78924(16) 1.04601(11)
C23D C 0.49460(11) 0.32027(18) 1.06471(12)
H12D H 0.5004 0.3516 1.0351
C24D C 0.45842(12) 0.24367(18) 1.04807(13)
H13D H 0.4395 0.2231 1.0073
C25D C 0.40864(11) 0.11470(17) 1.07208(13)
C26D C 0.49015(10) 0.72950(17) 1.09857(14)
H14D H 0.5036 0.7921 1.1061
C27D C 0.51423(11) 0.30384(18) 1.16637(12)
H15D H 0.5330 0.3243 1.2072
C28D C 0.47862(12) 0.22555(19) 1.15014(13)
H16D H 0.4744 0.1921 1.1801
Cd1A Cd 0.835169(6) 0.532942(10) 1.532802(7)
Cd1B Cd 0.664831(6) 0.032942(10) 0.967198(7)
Cd1B_2 Cd 0.664831(6) 1.032942(10) 0.967198(7)
Cd1E Cd 0.164831(6) 0.467058(10) 0.467198(7)
Cd1F Cd 0.335169(6) -0.032942(10) 1.032802(7)
Cd1F_2 Cd 0.335169(6) 0.967058(10) 1.032802(7)
Cd2A Cd 0.7500 0.7500 1.5000
Cd2B Cd 0.7500 0.2500 1.0000
Cd2C Cd 0.2500 0.2500 0.5000
O1F O 0.27573(7) 0.87780(11) 1.06660(7)
O2C O 0.20822(7) 0.85377(11) 0.92618(7)
O2E O 0.29178(7) 0.64623(11) 1.07382(7)
O3B O 0.16241(6) 0.72659(12) 0.99166(7)
O5A O 0.77066(7) 0.46759(13) 0.93650(8)
O5E O 0.22934(7) 0.53241(13) 1.06350(8)
O6B O 0.09234(7) 0.63046(12) 0.93276(10)
O6F O 0.90766(7) 0.36954(12) 1.06724(10)
O7B O 0.11904(9) 0.40757(13) 0.98230(9)
O7F O 0.88096(9) 0.59243(13) 1.01770(9)
O8B O 0.09696(10) 0.42781(16) 0.88835(11)
O8F O 0.90304(10) 0.57219(16) 1.11165(11)
loop_
_geom_bond_atom_site_label_1
_geom_bond_atom_site_label_2
_geom_bond_site_symmetry_1
_geom_bond_site_symmetry_2
Cd1 O1 1_555 1_555
Cd2 O1 1_555 1_555
Si1 C1 1_555 1_555
C1 C9 1_555 1_555
C2 Si1 1_555 1_555
O1 C15 1_555 1_555
O2 C8 1_555 1_555
O3 C22 1_555 1_555
O4 Cd1 1_555 1_555
C3 Si1 1_555 1_555
C4 C8 1_555 1_555
C5 C7 1_555 1_555
C6 C2 1_555 1_555
H1 C6 1_555 1_555
C7 H2 1_555 1_555
C8 O5 1_555 1_555
C9 H3 1_555 1_555
C10 C2 1_555 1_555
H4 C10 1_555 1_555
C11 H5 1_555 1_555
C12 Si1 1_555 1_555
C13 C12 1_555 1_555
H6 C13 1_555 1_555
C14 C5 1_555 1_555
H7 C14 1_555 1_555
C15 O4 1_555 1_555
C16 C4 1_555 1_555
H8 C16 1_555 1_555
C17 C4 1_555 1_555
H9 C17 1_555 1_555
C18 C1 1_555 1_555
H10 C18 1_555 1_555
O5 Cd1E 1_555 1_555
O6 C22 1_555 1_555
C19 C9 1_555 1_555
H11 C19 1_555 1_555
O7 C25 1_555 1_555
O8 C25 1_555 1_555
C20 C19 1_555 1_555
C21 C24 1_555 1_555
C22 C20 1_555 1_555
C23 C3 1_555 1_555
H12 C23 1_555 1_555
C24 C23 1_555 1_555
H13 C24 1_555 1_555
C25 C21 1_555 1_555
C26 C18 1_555 1_555
H14 C26 1_555 1_555
C27 C3 1_555 1_555
H15 C27 1_555 1_555
C28 C21 1_555 1_555
H16 C28 1_555 1_555
Cd1D O1D 1_555 1_555
Si1D C1D 1_555 1_555
C1D C9D 1_555 1_555
C2D Si1D 1_555 1_555
O1D C15D 1_555 1_555
O2D C8D 1_555 1_555
O3D Cd2 1_555 1_555
O4D Cd1D 1_555 1_555
C3D Si1D 1_555 1_555
C4D C8D 1_555 1_555
C5D C7D 1_555 1_555
C6D C2D 1_555 1_555
H1D C6D 1_555 1_555
C7D H2D 1_555 1_555
C8D O5D 1_555 1_555
C9D H3D 1_555 1_555
C10D C2D 1_555 1_555
H4D C10D 1_555 1_555
C11D H5D 1_555 1_555
C12D Si1D 1_555 1_555
C13D C12D 1_555 1_555
H6D C13D 1_555 1_555
C14D C5D 1_555 1_555
H7D C14D 1_555 1_555
C15D O4D 1_555 1_555
C16D C4D 1_555 1_555
H8D C16D 1_555 1_555
C17D C4D 1_555 1_555
H9D C17D 1_555 1_555
C18D C1D 1_555 1_555
H10D C18D 1_555 1_555
O5D Cd1A 1_555 1_555
O6D C22D 1_555 1_555
C19D C9D 1_555 1_555
H11D C19D 1_555 1_555
O7D C25D 1_555 1_555
O8D C25D 1_555 1_555
C20D C19D 1_555 1_555
C21D C24D 1_555 1_555
C22D O3D 1_555 1_555
C23D C3D 1_555 1_555
H12D C23D 1_555 1_555
C24D C23D 1_555 1_555
H13D C24D 1_555 1_555
C25D C21D 1_555 1_555
C26D C18D 1_555 1_555
H14D C26D 1_555 1_555
C27D C3D 1_555 1_555
H15D C27D 1_555 1_555
C28D C21D 1_555 1_555
H16D C28D 1_555 1_555
Cd1B O6 1_555 1_555
Cd1B_2 O7 1_555 1_555
Cd1F O7D 1_555 1_555
Cd1F_2 O6D 1_555 1_555
Cd2A O2D 1_555 1_555
Cd2B O3 1_555 1_555
Cd2C O2 1_555 1_555
O1F Cd2 1_555 1_555
O2C Cd2 1_555 1_555
O2E Cd2 1_555 1_555
O3B Cd2 1_555 1_555
O5A Cd1D 1_555 1_555
O5E Cd1 1_555 1_555
O6B Cd1 1_555 1_555
O6F Cd1D 1_555 1_555
O7B Cd1 1_555 1_555
O7F Cd1D 1_555 1_555
O8B Cd1 1_555 1_555
O8F Cd1D 1_555 1_555
C5 C15 1_555 1_555
C6 C14 1_555 1_555
C7 C10 1_555 1_555
C11 C12 1_555 1_555
C11 C17 1_555 1_555
C13 C16 1_555 1_555
O8 Cd1B_2 1_555 1_555
C20 C26 1_555 1_555
C27 C28 1_555 1_555
O1D Cd2B 1_555 1_555
C5D C15D 1_555 1_555
C6D C14D 1_555 1_555
C7D C10D 1_555 1_555
C11D C12D 1_555 1_555
C11D C17D 1_555 1_555
C13D C16D 1_555 1_555
O8D Cd1F 1_555 1_555
C20D C22D 1_555 1_555
C20D C26D 1_555 1_555
C27D C28D 1_555 1_555
Cd1F_2 O1F 1_555 1_555

#END
