
#######################################################################
#
#                 Cambridge Crystallographic Data Centre
#                                CCDC 
#
#######################################################################
#
# If this CIF has been generated from an entry in the Cambridge 
# Structural Database, then it will include bibliographic, chemical, 
# crystal, experimental, refinement or atomic coordinate data resulting 
# from the CCDC's data processing and validation procedures.
#
#######################################################################

data_NUBPIL
_symmetry_cell_setting           monoclinic
_symmetry_space_group_name_H-M   'C 2/m'
_symmetry_Int_Tables_number      12
_space_group_name_Hall           '-C 2y'
loop_
_symmetry_equiv_pos_site_id
_symmetry_equiv_pos_as_xyz
1 x,y,z
2 -x,y,-z
3 1/2+x,1/2+y,z
4 1/2-x,1/2+y,-z
5 -x,-y,-z
6 x,-y,z
7 1/2-x,1/2-y,-z
8 1/2+x,1/2-y,z
_cell_length_a                   17.2044(9)
_cell_length_b                   25.9374(14)
_cell_length_c                   14.6116(8)
_cell_angle_alpha                90
_cell_angle_beta                 100.672(6)
_cell_angle_gamma                90
_cell_volume                     6407.46
loop_
_atom_site_label
_atom_site_type_symbol
_atom_site_fract_x
_atom_site_fract_y
_atom_site_fract_z
Cu1 Cu 0.07797(5) 0.0000 0.51289(6)
Cu2 Cu -0.2500 0.2500 1.0000
O1 O -0.0609(2) 0.05292(13) 0.5846(2)
O2 O 0.0706(2) 0.05298(14) 0.6065(3)
O3 O 0.2219(3) 0.1614(2) 0.8595(4)
O4 O 0.1588(2) 0.22310(16) 0.9154(3)
O5 O 0.2034(5) 0.0000 0.5228(5)
H1 H 0.2246 0.0000 0.4706
H2 H 0.2356 0.0000 0.5790
N1 N -0.2101(3) 0.21743(18) 0.8951(3)
N2 N -0.1296(3) 0.18402(19) 0.8128(3)
C1 C -0.2518(5) 0.2049(4) 0.8078(5)
H3 H -0.3060 0.2094 0.7886
C2 C -0.2046(4) 0.1859(3) 0.7560(6)
H4 H -0.2181 0.1757 0.6940
C3 C -0.1385(3) 0.2031(2) 0.8934(4)
H5 H -0.0973 0.2060 0.9442
C4 C -0.0584(3) 0.1642(2) 0.7881(4)
C5 C -0.0617(3) 0.1274(2) 0.7200(4)
H6 H -0.1104 0.1152 0.6891
C6 C 0.0074(3) 0.1086(2) 0.6975(3)
C7 C 0.0800(3) 0.1272(2) 0.7447(4)
H7 H 0.1267 0.1140 0.7307
C8 C 0.0834(3) 0.1653(2) 0.8128(4)
C9 C 0.0132(3) 0.1838(2) 0.8323(4)
H8 H 0.0141 0.2100 0.8760
C10 C 0.0058(3) 0.0688(2) 0.6236(3)
C11 C 0.1621(4) 0.1834(2) 0.8663(4)
O1A O 0.0609(2) 0.05292(13) 0.4154(2)
O2A O -0.0706(2) 0.05298(14) 0.3935(3)
O3A O -0.2219(3) 0.1614(2) 0.1405(4)
O4A O -0.1588(2) 0.22310(16) 0.0846(3)
N1A N 0.2101(3) 0.21743(18) 0.1049(3)
N2A N 0.1296(3) 0.18402(19) 0.1872(3)
C1A C 0.2518(5) 0.2049(4) 0.1922(5)
H3A H 0.3060 0.2094 0.2114
C2A C 0.2046(4) 0.1859(3) 0.2440(6)
H4A H 0.2181 0.1757 0.3060
C3A C 0.1385(3) 0.2031(2) 0.1066(4)
H5A H 0.0973 0.2060 0.0558
C4A C 0.0584(3) 0.1642(2) 0.2119(4)
C5A C 0.0617(3) 0.1274(2) 0.2800(4)
H6A H 0.1104 0.1152 0.3109
C6A C -0.0074(3) 0.1086(2) 0.3025(3)
C7A C -0.0800(3) 0.1272(2) 0.2553(4)
H7A H -0.1267 0.1140 0.2693
C8A C -0.0834(3) 0.1653(2) 0.1872(4)
C9A C -0.0132(3) 0.1838(2) 0.1677(4)
H8A H -0.0141 0.2100 0.1240
C10A C -0.0058(3) 0.0688(2) 0.3764(3)
C11A C -0.1621(4) 0.1834(2) 0.1337(4)
Cu1A Cu -0.07797(5) 0.0000 0.48711(6)
Cu2_2 Cu -0.2500 0.2500 0.0000
Cu2A Cu 0.2500 0.2500 0.0000
Cu2A_2 Cu 0.2500 0.2500 1.0000
O1D O 0.0609(2) -0.05292(13) 0.4154(2)
O2E O 0.0706(2) -0.05298(14) 0.6065(3)
O4A_2 O -0.1588(2) 0.22310(16) 1.0846(3)
O4G O -0.3412(2) 0.27690(16) 0.9154(3)
N1F N -0.2899(3) 0.28257(18) 1.1049(3)
loop_
_geom_bond_atom_site_label_1
_geom_bond_atom_site_label_2
_geom_bond_site_symmetry_1
_geom_bond_site_symmetry_2
Cu1 O2 1_555 1_555
Cu2 N1 1_555 1_555
O1 C10 1_555 1_555
O2 C10 1_555 1_555
O3 C11 1_555 1_555
O4 C11 1_555 1_555
O5 Cu1 1_555 1_555
H1 O5 1_555 1_555
H2 O5 1_555 1_555
N1 C1 1_555 1_555
N2 C2 1_555 1_555
C1 H3 1_555 1_555
C2 C1 1_555 1_555
H4 C2 1_555 1_555
C3 N1 1_555 1_555
H5 C3 1_555 1_555
C4 N2 1_555 1_555
C5 C4 1_555 1_555
H6 C5 1_555 1_555
C6 C5 1_555 1_555
C7 C6 1_555 1_555
H7 C7 1_555 1_555
C8 C7 1_555 1_555
C9 C4 1_555 1_555
H8 C9 1_555 1_555
C10 C6 1_555 1_555
C11 C8 1_555 1_555
O1A Cu1 1_555 1_555
O2A C10A 1_555 1_555
O3A C11A 1_555 1_555
O4A C11A 1_555 1_555
N1A C1A 1_555 1_555
N2A C2A 1_555 1_555
C1A H3A 1_555 1_555
C2A C1A 1_555 1_555
H4A C2A 1_555 1_555
C3A N1A 1_555 1_555
H5A C3A 1_555 1_555
C4A N2A 1_555 1_555
C5A C4A 1_555 1_555
H6A C5A 1_555 1_555
C6A C5A 1_555 1_555
C7A C6A 1_555 1_555
H7A C7A 1_555 1_555
C8A C7A 1_555 1_555
C9A C4A 1_555 1_555
H8A C9A 1_555 1_555
C10A O1A 1_555 1_555
C11A C8A 1_555 1_555
Cu1A Cu1 1_555 1_555
Cu2_2 O4A 1_555 1_555
Cu2A N1A 1_555 1_555
Cu2A_2 O4 1_555 1_555
O1D Cu1 1_555 1_555
O2E Cu1 1_555 1_555
O4A_2 Cu2 1_555 1_555
O4G Cu2 1_555 1_555
N1F Cu2 1_555 1_555
O1 Cu1A 1_555 1_555
N2 C3 1_555 1_555
C8 C9 1_555 1_555
O2A Cu1A 1_555 1_555
N2A C3A 1_555 1_555
C6A C10A 1_555 1_555
C8A C9A 1_555 1_555

#END
