
#######################################################################
#
#                 Cambridge Crystallographic Data Centre
#                                CCDC 
#
#######################################################################
#
# If this CIF has been generated from an entry in the Cambridge 
# Structural Database, then it will include bibliographic, chemical, 
# crystal, experimental, refinement or atomic coordinate data resulting 
# from the CCDC's data processing and validation procedures.
#
#######################################################################

data_NUVYIN
_symmetry_cell_setting           monoclinic
_symmetry_space_group_name_H-M   'C 2/c'
_symmetry_Int_Tables_number      15
_space_group_name_Hall           '-C 2yn'
loop_
_symmetry_equiv_pos_site_id
_symmetry_equiv_pos_as_xyz
1 x,y,z
2 -x,y,1/2-z
3 1/2+x,1/2+y,z
4 1/2-x,1/2+y,1/2-z
5 -x,-y,-z
6 x,-y,1/2+z
7 1/2-x,1/2-y,-z
8 1/2+x,1/2-y,1/2+z
_cell_length_a                   17.0025(14)
_cell_length_b                   36.907(3)
_cell_length_c                   11.2149(10)
_cell_angle_alpha                90
_cell_angle_beta                 94.907(2)
_cell_angle_gamma                90
_cell_volume                     7011.68
loop_
_atom_site_label
_atom_site_type_symbol
_atom_site_fract_x
_atom_site_fract_y
_atom_site_fract_z
C1 C 0.7156(2) 0.46054(10) 1.3691(3)
C2 C 0.66947(19) 0.43096(8) 1.1216(3)
C3 C 0.7218(2) 0.42091(10) 1.3418(3)
C4 C 0.7479(2) 0.39703(11) 1.4335(3)
H1 H 0.7616 0.4059 1.5101
C5 C 0.7537(3) 0.36061(11) 1.4116(4)
H2 H 0.7702 0.3449 1.4737
C6 C 0.7353(3) 0.34727(11) 1.2989(4)
H3 H 0.7393 0.3226 1.2842
C7 C 0.7106(2) 0.37083(9) 1.2064(3)
C8 C 0.70173(18) 0.40772(9) 1.2255(3)
C9 C 0.7435(2) 0.33710(10) 1.0374(3)
C10 C 0.7172(2) 0.30771(10) 0.9737(3)
H4 H 0.6642 0.3012 0.9704
C11 C 0.7704(2) 0.28710(10) 0.9127(3)
H5 H 0.7525 0.2670 0.8684
C12 C 0.8488(2) 0.29651(10) 0.9181(3)
C13 C 0.8733(3) 0.32718(13) 0.9815(4)
H6 H 0.9261 0.3340 0.9853
C14 C 0.8203(3) 0.34806(13) 1.0396(4)
H7 H 0.8369 0.3692 1.0794
C15 C 0.9065(2) 0.27433(10) 0.8564(3)
C16 C 0.9808(2) 0.17049(11) 0.8862(3)
H8 H 0.9374 0.1672 0.8311
C17 C 1.0003(2) 0.14302(10) 0.9665(3)
H9 H 0.9715 0.1216 0.9636
C18 C 1.0634(2) 0.14778(9) 1.0513(3)
C19 C 1.1033(2) 0.18073(10) 1.0512(3)
H10 H 1.1450 0.1853 1.1083
C20 C 1.0808(2) 0.20646(10) 0.9666(3)
H11 H 1.1086 0.2282 0.9675
C21 C 1.1104(2) 0.05647(10) 1.1878(3)
H12 H 1.1053 0.0322 1.1657
C22 C 1.0815(2) 0.08217(10) 1.1078(3)
H13 H 1.0569 0.0753 1.0339
C23 C 1.0892(2) 0.11875(10) 1.1379(3)
C24 C 1.1242(3) 0.12664(10) 1.2502(3)
H14 H 1.1296 0.1506 1.2751
C25 C 1.1510(3) 0.09912(10) 1.3254(3)
H15 H 1.1742 0.1053 1.4008
C26 C 0.8205(2) 0.46773(12) 0.7359(3)
H16 H 0.7771 0.4718 0.6813
C27 C 0.8933(2) 0.46562(13) 0.6938(3)
H17 H 0.8984 0.4686 0.6125
C28 C 0.9595(2) 0.45905(15) 0.7710(3)
C29 C 0.9465(2) 0.45349(18) 0.8910(4)
H18 H 0.9885 0.4481 0.9467
C30 C 0.8712(2) 0.45610(16) 0.9260(4)
H19 H 0.8638 0.4520 1.0061
N3 N 1.02073(17) 0.20162(8) 0.8831(3)
N4 N 1.14578(15) 0.06421(8) 1.2966(2)
N5 N 0.80801(16) 0.46422(9) 0.8518(3)
O1 O 0.68392(14) 0.48133(6) 1.28948(19)
O2 O 0.74199(15) 0.47261(7) 1.4696(2)
O3 O 0.59612(12) 0.43420(6) 1.1052(2)
O4 O 0.71983(12) 0.44344(6) 1.05522(18)
O5 O 0.68818(15) 0.35769(7) 1.0917(2)
O6 O 0.97979(16) 0.28007(7) 0.8765(2)
O7 O 0.88273(15) 0.24984(7) 0.7829(2)
O8 O 0.58770(13) 0.49171(7) 0.9614(2)
H24 H 0.5556 0.4962 0.9014
H25 H 0.5746 0.4724 0.9956
Ni1 Ni 1.0000 0.239267(16) 0.7500
Ni2 Ni 0.69710(2) 0.475260(11) 0.90851(3)
C1A C 1.2844(2) 0.46054(10) 0.1309(3)
C2A C 1.33053(19) 0.43096(8) 0.3784(3)
C3A C 1.2782(2) 0.42091(10) 0.1582(3)
C4A C 1.2521(2) 0.39703(11) 0.0665(3)
H1A H 1.2384 0.4059 -0.0101
C5A C 1.2463(3) 0.36061(11) 0.0884(4)
H2A H 1.2298 0.3449 0.0263
C6A C 1.2647(3) 0.34727(11) 0.2011(4)
H3A H 1.2607 0.3226 0.2158
C7A C 1.2894(2) 0.37083(9) 0.2936(3)
C8A C 1.29827(18) 0.40772(9) 0.2745(3)
C9A C 1.2565(2) 0.33710(10) 0.4626(3)
C10A C 1.2828(2) 0.30771(10) 0.5263(3)
H4A H 1.3358 0.3012 0.5296
C11A C 1.2296(2) 0.28710(10) 0.5873(3)
H5A H 1.2475 0.2670 0.6316
C12A C 1.1512(2) 0.29651(10) 0.5819(3)
C13A C 1.1267(3) 0.32718(13) 0.5185(4)
H6A H 1.0739 0.3340 0.5147
C14A C 1.1797(3) 0.34806(13) 0.4604(4)
H7A H 1.1631 0.3692 0.4206
C15A C 1.0935(2) 0.27433(10) 0.6436(3)
C16A C 1.0192(2) 0.17049(11) 0.6138(3)
H8A H 1.0626 0.1672 0.6689
C17A C 0.9997(2) 0.14302(10) 0.5335(3)
H9A H 1.0285 0.1216 0.5364
C18A C 0.9366(2) 0.14778(9) 0.4487(3)
C19A C 0.8967(2) 0.18073(10) 0.4488(3)
H10A H 0.8550 0.1853 0.3917
C20A C 0.9192(2) 0.20646(10) 0.5334(3)
H11A H 0.8914 0.2282 0.5325
C21A C 0.8896(2) 0.05647(10) 0.3122(3)
H12A H 0.8947 0.0322 0.3343
C22A C 0.9185(2) 0.08217(10) 0.3922(3)
H13A H 0.9431 0.0753 0.4661
C23A C 0.9108(2) 0.11875(10) 0.3621(3)
C24A C 0.8758(3) 0.12664(10) 0.2498(3)
H14A H 0.8704 0.1506 0.2249
C25A C 0.8490(3) 0.09912(10) 0.1746(3)
H15A H 0.8258 0.1053 0.0992
C26A C 1.1795(2) 0.46773(12) 0.7641(3)
H16A H 1.2229 0.4718 0.8187
C27A C 1.1067(2) 0.46562(13) 0.8062(3)
H17A H 1.1016 0.4686 0.8875
C28A C 1.0405(2) 0.45905(15) 0.7290(3)
C29A C 1.0535(2) 0.45349(18) 0.6090(4)
H18A H 1.0115 0.4481 0.5533
C30A C 1.1288(2) 0.45610(16) 0.5740(4)
H19A H 1.1362 0.4520 0.4939
N3A N 0.97927(17) 0.20162(8) 0.6169(3)
N4A N 0.85422(15) 0.06421(8) 0.2034(2)
N4G N 0.64578(15) 0.43579(8) 0.7966(2)
N4F N 1.35422(15) 0.43579(8) 0.7034(2)
N5A N 1.19199(16) 0.46422(9) 0.6482(3)
O1A O 1.31608(14) 0.48133(6) 0.21052(19)
O1E O 0.68392(14) 0.51867(6) 0.78948(19)
O1D O 1.31608(14) 0.51867(6) 0.71052(19)
O2A O 1.25801(15) 0.47261(7) 0.0304(2)
O2E O 0.74199(15) 0.52739(7) 0.9696(2)
O2D O 1.25801(15) 0.52739(7) 0.5304(2)
O3A O 1.40388(12) 0.43420(6) 0.3948(2)
O4A O 1.28017(12) 0.44344(6) 0.44478(18)
O5A O 1.31182(15) 0.35769(7) 0.4083(2)
O6A O 1.02021(16) 0.28007(7) 0.6235(2)
O7A O 1.11727(15) 0.24984(7) 0.7171(2)
O8A O 1.41230(13) 0.49171(7) 0.5386(2)
H24A H 1.4444 0.4962 0.5986
H25A H 1.4254 0.4724 0.5044
Ni2A Ni 1.30290(2) 0.475260(11) 0.59149(3)
Ni2G Ni 1.19710(2) 0.024740(11) 1.40851(3)
Ni2E Ni 0.69710(2) 0.524740(11) 1.40851(3)
Ni2F Ni 0.80290(2) 0.024740(11) 0.09149(3)
Ni2D Ni 1.30290(2) 0.524740(11) 0.09149(3)
C31 C 0.9377(4) 0.4374(4) 0.2827(11)
H20 H 0.8945 0.4503 0.3054
C32 C 0.9349(4) 0.3995(4) 0.2841(11)
H21 H 0.8907 0.3875 0.3074
C33 C 1.0000 0.3800(4) 0.2500
C34 C 1.0000 0.3393(4) 0.2500
C35 C 0.9494(6) 0.3192(4) 0.3183(10)
H22 H 0.9148 0.3311 0.3650
C36 C 0.9513(6) 0.2815(4) 0.3157(9)
H23 H 0.9174 0.2688 0.3615
N1 N 1.0000 0.4557(4) 0.2500
N2 N 1.0000 0.2621(5) 0.2500
C31A C 1.0623(4) 0.4374(4) 0.2173(11)
H20A H 1.1055 0.4503 0.1946
C32A C 1.0651(4) 0.3995(4) 0.2159(11)
H21A H 1.1093 0.3875 0.1926
C35A C 1.0506(6) 0.3192(4) 0.1817(10)
H22A H 1.0852 0.3311 0.1350
C36A C 1.0487(6) 0.2815(4) 0.1843(9)
H23A H 1.0826 0.2688 0.1385
O9 O 1.0000 -0.02129(10) 0.2500
H27 H 0.9720 -0.0381 0.2755
H27A H 1.0280 -0.0381 0.2245
O10 O 0.7382(4) 0.2329(2) 0.3939(5)
O11 O 1.0837(11) 0.3378(6) -0.1203(18)
H26? H 1.0106 -0.0013 0.2171
C37? C 1.0489(7) 0.4163(5) 0.1852(13)
C38? C 1.0509(8) 0.3787(5) 0.1826(13)
C39? C 1.0000 0.3591(5) 0.2500
C40? C 1.0000 0.3187(5) 0.2500
C41? C 1.0681(4) 0.2986(6) 0.2293(18)
C42? C 1.0652(4) 0.2612(6) 0.2302(17)
H28? H 1.0831 0.4290 0.1400
H29? H 1.0857 0.3667 0.1365
H30? H 1.1146 0.3105 0.2151
H31? H 1.1108 0.2485 0.2163
N6? N 1.0000 0.4354(6) 0.2500
N7? N 1.0000 0.2420(6) 0.2500
loop_
_geom_bond_atom_site_label_1
_geom_bond_atom_site_label_2
_geom_bond_site_symmetry_1
_geom_bond_site_symmetry_2
C1 C3 1_555 1_555
C2 C8 1_555 1_555
C3 C4 1_555 1_555
C4 H1 1_555 1_555
C5 C4 1_555 1_555
H2 C5 1_555 1_555
C6 C5 1_555 1_555
H3 C6 1_555 1_555
C7 C6 1_555 1_555
C8 C3 1_555 1_555
C9 C10 1_555 1_555
C10 H4 1_555 1_555
C11 C10 1_555 1_555
H5 C11 1_555 1_555
C12 C11 1_555 1_555
C13 C12 1_555 1_555
H6 C13 1_555 1_555
C14 C9 1_555 1_555
H7 C14 1_555 1_555
C15 C12 1_555 1_555
C16 H8 1_555 1_555
C17 C16 1_555 1_555
H9 C17 1_555 1_555
C18 C17 1_555 1_555
C19 C18 1_555 1_555
H10 C19 1_555 1_555
C20 C19 1_555 1_555
H11 C20 1_555 1_555
C21 H12 1_555 1_555
C22 C21 1_555 1_555
H13 C22 1_555 1_555
C23 C18 1_555 1_555
C24 C23 1_555 1_555
H14 C24 1_555 1_555
C25 C24 1_555 1_555
H15 C25 1_555 1_555
C26 H16 1_555 1_555
C27 C26 1_555 1_555
H17 C27 1_555 1_555
C28 C27 1_555 1_555
C29 C28 1_555 1_555
H18 C29 1_555 1_555
C30 C29 1_555 1_555
H19 C30 1_555 1_555
C31 H20 1_555 1_555
C32 C31 1_555 1_555
H21 C32 1_555 1_555
C33 C32 1_555 1_555
C34 C33 1_555 1_555
C35 C34 1_555 1_555
H22 C35 1_555 1_555
C36 C35 1_555 1_555
H23 C36 1_555 1_555
N1 C31 1_555 1_555
N2 C36 1_555 1_555
N3 C16 1_555 1_555
N4 C21 1_555 1_555
N5 C26 1_555 1_555
O1 C1 1_555 1_555
O2 C1 1_555 1_555
O3 C2 1_555 1_555
O4 C2 1_555 1_555
O5 C7 1_555 1_555
O6 C15 1_555 1_555
O7 C15 1_555 1_555
O8 H24 1_555 1_555
H25 O8 1_555 1_555
Ni1 N3 1_555 1_555
Ni2 N5 1_555 1_555
O9 H27 1_555 1_555
C1A C3A 1_555 1_555
C2A C8A 1_555 1_555
C3A C4A 1_555 1_555
C4A H1A 1_555 1_555
C5A C4A 1_555 1_555
H2A C5A 1_555 1_555
C6A C5A 1_555 1_555
H3A C6A 1_555 1_555
C7A C6A 1_555 1_555
C8A C3A 1_555 1_555
C9A C10A 1_555 1_555
C10A H4A 1_555 1_555
C11A C10A 1_555 1_555
H5A C11A 1_555 1_555
C12A C11A 1_555 1_555
C13A C12A 1_555 1_555
H6A C13A 1_555 1_555
C14A C9A 1_555 1_555
H7A C14A 1_555 1_555
C15A C12A 1_555 1_555
C16A H8A 1_555 1_555
C17A C16A 1_555 1_555
H9A C17A 1_555 1_555
C18A C17A 1_555 1_555
C19A C18A 1_555 1_555
H10A C19A 1_555 1_555
C20A C19A 1_555 1_555
H11A C20A 1_555 1_555
C21A H12A 1_555 1_555
C22A C21A 1_555 1_555
H13A C22A 1_555 1_555
C23A C18A 1_555 1_555
C24A C23A 1_555 1_555
H14A C24A 1_555 1_555
C25A C24A 1_555 1_555
H15A C25A 1_555 1_555
C26A H16A 1_555 1_555
C27A C26A 1_555 1_555
H17A C27A 1_555 1_555
C28A C28 1_555 1_555
C29A C28A 1_555 1_555
H18A C29A 1_555 1_555
C30A C29A 1_555 1_555
H19A C30A 1_555 1_555
C31A N1 1_555 1_555
H20A C31A 1_555 1_555
C32A C33 1_555 1_555
H21A C32A 1_555 1_555
C35A C34 1_555 1_555
H22A C35A 1_555 1_555
C36A N2 1_555 1_555
H23A C36A 1_555 1_555
N3A Ni1 1_555 1_555
N4A C21A 1_555 1_555
N4G Ni2 1_555 1_555
N4F Ni2A 1_555 1_555
N5A C26A 1_555 1_555
O1A C1A 1_555 1_555
O1E Ni2 1_555 1_555
O1D Ni2A 1_555 1_555
O2A C1A 1_555 1_555
O2E Ni2 1_555 1_555
O2D Ni2A 1_555 1_555
O3A C2A 1_555 1_555
O4A C2A 1_555 1_555
O5A C7A 1_555 1_555
O6A Ni1 1_555 1_555
O7A Ni1 1_555 1_555
O8A H24A 1_555 1_555
H25A O8A 1_555 1_555
Ni2A N5A 1_555 1_555
Ni2G N4 1_555 1_555
Ni2E O1 1_555 1_555
Ni2F N4A 1_555 1_555
Ni2D O1A 1_555 1_555
H27A O9 1_555 1_555
C7 C8 1_555 1_555
C9 O5 1_555 1_555
C13 C14 1_555 1_555
C20 N3 1_555 1_555
C22 C23 1_555 1_555
C25 N4 1_555 1_555
C30 N5 1_555 1_555
O2 Ni2E 1_555 1_555
O4 Ni2 1_555 1_555
O6 Ni1 1_555 1_555
O7 Ni1 1_555 1_555
O8 Ni2 1_555 1_555
C7A C8A 1_555 1_555
C9A O5A 1_555 1_555
C13A C14A 1_555 1_555
C15A O6A 1_555 1_555
C15A O7A 1_555 1_555
C16A N3A 1_555 1_555
C20A N3A 1_555 1_555
C22A C23A 1_555 1_555
C25A N4A 1_555 1_555
C27A C28A 1_555 1_555
C30A N5A 1_555 1_555
C31A C32A 1_555 1_555
C35A C36A 1_555 1_555
O2A Ni2D 1_555 1_555
O4A Ni2A 1_555 1_555
O8A Ni2A 1_555 1_555

#END
