
#######################################################################
#
#                 Cambridge Crystallographic Data Centre
#                                CCDC 
#
#######################################################################
#
# If this CIF has been generated from an entry in the Cambridge 
# Structural Database, then it will include bibliographic, chemical, 
# crystal, experimental, refinement or atomic coordinate data resulting 
# from the CCDC's data processing and validation procedures.
#
#######################################################################

data_NUYWEK
_symmetry_cell_setting           triclinic
_symmetry_space_group_name_H-M   'P 1'
_symmetry_Int_Tables_number      1
_space_group_name_Hall           'P 1'
loop_
_symmetry_equiv_pos_site_id
_symmetry_equiv_pos_as_xyz
1 x,y,z
_cell_length_a                   9.147(5)
_cell_length_b                   9.219(2)
_cell_length_c                   14.604(3)
_cell_angle_alpha                97.973(5)
_cell_angle_beta                 104.956(4)
_cell_angle_gamma                104.565(5)
_cell_volume                     1123.92
loop_
_atom_site_label
_atom_site_type_symbol
_atom_site_fract_x
_atom_site_fract_y
_atom_site_fract_z
Cd1 Cd 1.40284(6) 0.92096(6) 0.81123(4)
Cd2 Cd 0.66166(6) 1.75242(6) 0.40398(4)
O1 O 1.1941(12) 0.8310(12) 0.8729(7)
O2 O 1.4323(9) 0.8689(10) 0.9676(6)
O3 O 1.2401(10) 1.0026(9) 0.6880(6)
O4 O 1.3471(10) 1.1617(9) 0.8336(5)
O5 O 0.4018(13) 1.5923(13) 0.3304(6)
O6 O 0.5530(11) 1.6152(11) 0.2362(6)
O7 O 0.6074(12) 1.9848(10) 0.3876(6)
O8 O 0.6416(13) 1.9285(11) 0.5320(7)
N1 N 0.8890(14) 0.8104(14) 1.3641(7)
N2 N 1.0522(11) 0.8112(11) 1.2796(6)
N3 N 0.7706(10) 1.6463(10) 0.5259(7)
N4 N 0.9195(10) 1.5372(9) 0.6165(5)
N5 N -0.3317(12) 1.0212(12) -0.1501(7)
N6 N -0.0875(11) 1.1400(10) -0.0582(6)
N7 N 0.3852(12) 2.7195(12) 0.6962(7)
N8 N 0.4131(11) 2.5255(9) 0.6050(6)
C1 C 1.0449(15) 0.8282(16) 1.4263(8)
H1 H 1.0747 0.8404 1.4934
C2 C 1.1368(16) 0.8243(16) 1.3723(8)
H2 H 1.2434 0.8297 1.3940
C3 C 0.9061(17) 0.8040(17) 1.2805(9)
H3 H 0.8239 0.7950 1.2250
C4 C 1.1118(15) 0.8119(15) 1.1967(7)
C5 C 1.0021(18) 0.7558(18) 1.1023(9)
H4 H 0.8941 0.7116 1.0911
C6 C 1.0720(15) 0.7731(16) 1.0247(8)
H5 H 1.0044 0.7487 0.9615
C7 C 1.2222(14) 0.8200(14) 1.0381(7)
C8 C 1.3254(16) 0.8700(15) 1.1345(8)
H6 H 1.4337 0.9090 1.1443
C9 C 1.2745(14) 0.8636(14) 1.2118(7)
H7 H 1.3457 0.8929 1.2742
C10 C 1.2924(13) 0.8431(13) 0.9558(7)
C11 C 0.8360(14) 1.7382(12) 0.6170(8)
H8 H 0.8198 1.8317 0.6368
C12 C 0.9268(15) 1.6712(12) 0.6727(8)
H9 H 0.9846 1.7092 0.7380
C13 C 0.8271(13) 1.5276(12) 0.5286(8)
H10 H 0.8046 1.4479 0.4756
C14 C 0.9976(12) 1.4295(11) 0.6470(8)
C15 C 1.0105(14) 1.3145(13) 0.5803(7)
H11 H 0.9660 1.3045 0.5140
C16 C 1.0933(14) 1.2118(12) 0.6157(9)
H12 H 1.0973 1.1299 0.5723
C17 C 1.1661(12) 1.2324(11) 0.7117(7)
C18 C 1.1566(14) 1.3474(14) 0.7765(8)
H13 H 1.2078 1.3591 0.8422
C19 C 1.0731(15) 1.4478(12) 0.7478(7)
H14 H 1.0665 1.5252 0.7933
C20 C 1.2577(13) 1.1247(12) 0.7452(9)
C21 C -0.2307(15) 0.9479(15) -0.1764(9)
H15 H -0.2616 0.8619 -0.2265
C22 C -0.0853(14) 1.0158(14) -0.1212(10)
H16 H 0.0035 0.9858 -0.1239
C23 C -0.2382(16) 1.1392(16) -0.0840(10)
H17 H -0.2729 1.2165 -0.0570
C24 C 0.0427(14) 1.2441(15) 0.0175(8)
C25 C 0.1973(16) 1.2617(14) 0.0164(9)
H18 H 0.2199 1.2077 -0.0342
C26 C 0.3160(16) 1.3638(15) 0.0943(9)
H19 H 0.4201 1.3781 0.0937
C27 C 0.2930(14) 1.4451(15) 0.1718(8)
C28 C 0.140(2) 1.4359(19) 0.1688(11)
H20 H 0.1203 1.5002 0.2161
C29 C 0.014(3) 1.330(3) 0.0952(19)
H21 H -0.0892 1.3164 0.0973
C30 C 0.4229(14) 1.5550(13) 0.2516(7)
C31 C 0.3389(14) 2.7337(12) 0.6010(8)
H22 H 0.2983 2.8102 0.5797
C32 C 0.3612(17) 2.6226(14) 0.5457(9)
H23 H 0.3457 2.6098 0.4792
C33 C 0.4312(13) 2.5957(12) 0.6972(7)
H24 H 0.4703 2.5611 0.7527
C34 C 0.4640(13) 2.3945(13) 0.5772(8)
C35 C 0.4179(16) 2.3291(14) 0.4769(8)
H25 H 0.3516 2.3659 0.4325
C36 C 0.470(2) 2.2133(15) 0.4457(9)
H26 H 0.4507 2.1794 0.3794
C37 C 0.5551(14) 2.1418(12) 0.5119(8)
C38 C 0.5902(17) 2.2002(16) 0.6111(9)
H27 H 0.6428 2.1551 0.6570
C39 C 0.5421(15) 2.3333(14) 0.6404(7)
H28 H 0.5679 2.3759 0.7062
C40 C 0.5988(13) 2.0105(13) 0.4774(9)
Cd1_2 Cd -0.59716(6) 0.92096(6) -0.18877(4)
Cd1_3 Cd 0.40284(6) 2.92096(6) 0.81123(4)
Cd2_2 Cd 0.66166(6) 0.75242(6) 1.40398(4)
N1_2 N 0.8890(14) 1.8104(14) 0.3641(7)
N5_2 N 1.6683(12) 1.0212(12) 0.8499(7)
N7_2 N 1.3852(12) 0.7195(12) 0.6962(7)
O9 O 0.6025(10) 1.6791(10) 0.0584(6)
H29 H 0.596(11) 1.767(5) 0.079(6)
H30 H 0.60(2) 1.634(11) 0.106(6)
O10 O 1.5903(16) 1.4525(13) 0.8942(9)
H31 H 1.587(15) 1.384(11) 0.929(8)
H32 H 1.53(2) 1.50(2) 0.911(15)
O11 O 0.7845(18) 2.2403(15) 0.3406(10)
H33 H 0.795(12) 2.189(10) 0.288(5)
loop_
_geom_bond_atom_site_label_1
_geom_bond_atom_site_label_2
_geom_bond_site_symmetry_1
_geom_bond_site_symmetry_2
Cd1 O1 1_555 1_555
Cd2 O5 1_555 1_555
O1 C10 1_555 1_555
O2 Cd1 1_555 1_555
O3 Cd1 1_555 1_555
O4 Cd1 1_555 1_555
O5 C30 1_555 1_555
O6 Cd2 1_555 1_555
O7 Cd2 1_555 1_555
O8 Cd2 1_555 1_555
N1 C1 1_555 1_555
N2 C2 1_555 1_555
N3 Cd2 1_555 1_555
N4 C12 1_555 1_555
N5 C21 1_555 1_555
N6 C22 1_555 1_555
N7 C31 1_555 1_555
N8 C32 1_555 1_555
C1 H1 1_555 1_555
C2 C1 1_555 1_555
H2 C2 1_555 1_555
C3 N1 1_555 1_555
H3 C3 1_555 1_555
C4 N2 1_555 1_555
C5 C4 1_555 1_555
H4 C5 1_555 1_555
C6 C5 1_555 1_555
H5 C6 1_555 1_555
C7 C6 1_555 1_555
C8 C7 1_555 1_555
H6 C8 1_555 1_555
C9 C4 1_555 1_555
H7 C9 1_555 1_555
C10 O2 1_555 1_555
C11 N3 1_555 1_555
H8 C11 1_555 1_555
C12 C11 1_555 1_555
H9 C12 1_555 1_555
C13 N3 1_555 1_555
H10 C13 1_555 1_555
C14 N4 1_555 1_555
C15 C14 1_555 1_555
H11 C15 1_555 1_555
C16 C15 1_555 1_555
H12 C16 1_555 1_555
C17 C16 1_555 1_555
C18 C17 1_555 1_555
H13 C18 1_555 1_555
C19 C14 1_555 1_555
H14 C19 1_555 1_555
C20 O3 1_555 1_555
C21 H15 1_555 1_555
C22 C21 1_555 1_555
H16 C22 1_555 1_555
C23 N5 1_555 1_555
H17 C23 1_555 1_555
C24 N6 1_555 1_555
C25 C24 1_555 1_555
H18 C25 1_555 1_555
C26 C25 1_555 1_555
H19 C26 1_555 1_555
C27 C26 1_555 1_555
C28 C27 1_555 1_555
H20 C28 1_555 1_555
C29 C24 1_555 1_555
H21 C29 1_555 1_555
C30 O6 1_555 1_555
C31 H22 1_555 1_555
C32 C31 1_555 1_555
H23 C32 1_555 1_555
C33 N7 1_555 1_555
H24 C33 1_555 1_555
C34 N8 1_555 1_555
C35 C34 1_555 1_555
H25 C35 1_555 1_555
C36 C35 1_555 1_555
H26 C36 1_555 1_555
C37 C36 1_555 1_555
C38 C37 1_555 1_555
H27 C38 1_555 1_555
C39 C34 1_555 1_555
H28 C39 1_555 1_555
C40 O7 1_555 1_555
O9 H29 1_555 1_555
O10 H31 1_555 1_555
O11 H33 1_555 1_555
H30 O9 1_555 1_555
H32 O10 1_555 1_555
Cd1_2 N5 1_555 1_555
Cd1_3 N7 1_555 1_555
Cd2_2 N1 1_555 1_555
N1_2 Cd2 1_555 1_555
N5_2 Cd1 1_555 1_555
N7_2 Cd1 1_555 1_555
O4 C20 1_555 1_555
O8 C40 1_555 1_555
N2 C3 1_555 1_555
N4 C13 1_555 1_555
N6 C23 1_555 1_555
N8 C33 1_555 1_555
C7 C10 1_555 1_555
C8 C9 1_555 1_555
C17 C20 1_555 1_555
C18 C19 1_555 1_555
C27 C30 1_555 1_555
C28 C29 1_555 1_555
C37 C40 1_555 1_555
C38 C39 1_555 1_555

#END
