
#######################################################################
#
#                 Cambridge Crystallographic Data Centre
#                                CCDC 
#
#######################################################################
#
# If this CIF has been generated from an entry in the Cambridge 
# Structural Database, then it will include bibliographic, chemical, 
# crystal, experimental, refinement or atomic coordinate data resulting 
# from the CCDC's data processing and validation procedures.
#
#######################################################################

data_NUZCIV
_symmetry_cell_setting           rhombohedral
_symmetry_space_group_name_H-M   'R -3 c'
_symmetry_Int_Tables_number      167
_space_group_name_Hall           '-R 3 2"c'
loop_
_symmetry_equiv_pos_site_id
_symmetry_equiv_pos_as_xyz
1 x,y,z
2 -y,x-y,z
3 -x+y,-x,z
4 y,x,1/2-z
5 x-y,-y,1/2-z
6 -x,-x+y,1/2-z
7 2/3+x,1/3+y,1/3+z
8 2/3-y,1/3+x-y,1/3+z
9 2/3-x+y,1/3-x,1/3+z
10 2/3+y,1/3+x,5/6-z
11 2/3+x-y,1/3-y,5/6-z
12 2/3-x,1/3-x+y,5/6-z
13 1/3+x,2/3+y,2/3+z
14 1/3-y,2/3+x-y,2/3+z
15 1/3-x+y,2/3-x,2/3+z
16 1/3+y,2/3+x,1/6-z
17 1/3+x-y,2/3-y,1/6-z
18 1/3-x,2/3-x+y,1/6-z
19 -x,-y,-z
20 y,-x+y,-z
21 x-y,x,-z
22 -y,-x,1/2+z
23 -x+y,y,1/2+z
24 x,x-y,1/2+z
25 1/3-x,2/3-y,2/3-z
26 1/3+y,2/3-x+y,2/3-z
27 1/3+x-y,2/3+x,2/3-z
28 1/3-y,2/3-x,1/6+z
29 1/3-x+y,2/3+y,1/6+z
30 1/3+x,2/3+x-y,1/6+z
31 2/3-x,1/3-y,1/3-z
32 2/3+y,1/3-x+y,1/3-z
33 2/3+x-y,1/3+x,1/3-z
34 2/3-y,1/3-x,5/6+z
35 2/3-x+y,1/3+y,5/6+z
36 2/3+x,1/3+x-y,5/6+z
_cell_length_a                   24.502(4)
_cell_length_b                   24.502(4)
_cell_length_c                   18.450(4)
_cell_angle_alpha                90
_cell_angle_beta                 90
_cell_angle_gamma                120
_cell_volume                     9592.46
loop_
_atom_site_label
_atom_site_type_symbol
_atom_site_fract_x
_atom_site_fract_y
_atom_site_fract_z
O2 O 0.3483(3) 0.7568(3) 0.0572(4)
O3 O 0.3333 0.6667 0.1667
Co1 Co 0.62950(2) 0.70736(3) -0.50233(3)
S1 S 0.58194(5) 0.76658(5) -0.17613(6)
S2 S 0.57659(6) 0.84894(5) -0.30033(6)
O4 O 0.58251(14) 0.74101(21) -0.43928(16)
O5 O 0.62565(14) 0.75634(15) -0.32776(16)
N1 N 0.6667(2) 0.6799 -0.4167
N2 N 0.59028(16) 0.87425(17) -0.16034(18)
C1 C 0.58754(19) 0.75559(19) -0.3728(2)
N3 N 0.59709(17) 0.85570(17) -0.09214(19)
N4 N 0.6590(2) 0.6667(2) -0.5833
N5 N 0.6667 0.6317(3) -0.4167
C2 C 0.58238(19) 0.8327(2) -0.2102(2)
C3 C 0.5925(2) 0.8002(2) -0.0920(2)
H1 H 0.5948 0.7806 -0.0498
C4 C 0.5400(2) 0.7733(2) -0.3450(2)
H2 H 0.5116 0.7412 -0.3113
H3 H 0.5151 0.7740 -0.3855
N6 N 0.6792(4) 0.5912(4) -0.4369(4)
N7 N 0.6883(3) 0.6388(3) -0.5658(4)
N8 N 0.7185(5) 0.6160(4) -0.5515(5)
Co1Q Co 0.70383(2) 0.74453(4) -0.33100(3)
Co1EA Co 0.37403(3) 0.41119(4) -0.16434(3)
Co1W Co 0.62950(2) 0.92214(4) -1.00233(3)
Co1J Co 0.58881(4) 0.62597(3) -0.66434(3)
Co1BA Co 0.41119(4) 0.37403(3) -0.33566(3)
Co1FA Co 0.58881(4) 0.96283(2) -0.16434(3)
Co1W_2 Co 0.62950(2) 0.92214(4) -0.00233(3)
Co1HA Co 0.74453(4) 1.04069(3) -0.66900(3)
Co1X Co 0.70383(2) 0.95931(3) -0.83100(3)
Co1H Co 0.74453(4) 0.70383(2) -0.16900(3)
Co1GA Co 0.95931(3) 0.70383(2) -0.66900(3)
Co1T Co 0.92214(4) 0.62950(2) -0.49767(3)
Co1X_2 Co 0.70383(2) 0.95931(3) 0.16900(3)
Co1U Co 0.29264(3) 0.37050(2) -0.00233(3)
S1Q S 0.75139(5) 0.85131(7) -0.65720(6)
S1EA S 0.43325(5) 0.51797(7) -0.49054(6)
S1W S 0.58194(5) 0.81536(7) -0.67613(6)
S1GA S 0.90009(5) 0.75139(5) -0.34280(6)
S1X S 0.75139(5) 0.90009(5) -0.15720(6)
S2Q S 0.75674(6) 0.93902(8) -0.53300(6)
S2EA S 0.51561(5) 0.60568(8) -0.36634(6)
S2W S 0.57659(6) 0.72765(8) -0.80033(6)
S2GA S 0.81773(5) 0.75674(6) -0.46700(6)
S2X S 0.75674(6) 0.81773(5) -0.03300(6)
O4Q O 0.75082(14) 0.82517(25) -0.39405(16)
O4EA O 0.40768(21) 0.49183(25) -0.22739(16)
O4W O 0.58251(14) 0.84150(25) -0.93928(16)
O4GA O 0.92566(21) 0.75082(14) -0.60595(16)
O4X O 0.75082(14) 0.92566(21) 0.10595(16)
O4J O 0.50817(25) 0.59232(21) -0.72739(16)
O4BA O 0.49183(25) 0.40768(21) -0.27261(16)
O5Q O 0.70768(14) 0.79736(21) -0.50557(16)
O5EA O 0.42301(15) 0.46402(21) -0.33891(16)
O5W O 0.62565(14) 0.86931(21) -0.82776(16)
O5GA O 0.91033(15) 0.70768(14) -0.49443(16)
O5X O 0.70768(14) 0.91033(15) -0.00557(16)
O5BA O 0.46402(21) 0.42301(15) -0.16109(16)
O5X_2 O 0.70768(14) 0.91033(15) -1.00557(16)
O5M O 0.57699(15) 0.53598(21) -0.66109(16)
N1BA N 0.3465(2) 0.3466 -0.2500
N1W N 0.6667(2) 0.9868(2) -0.9167
N1J N 0.6535(2) 0.6534 -0.7500
N2Q N 0.74305(16) 0.95064(23) -0.67299(18)
N2EA N 0.54092(17) 0.61730(23) -0.50633(18)
N2W N 0.59028(16) 0.71603(23) -0.66034(18)
N2GA N 0.79242(17) 0.74305(16) -0.32701(18)
N2X N 0.74305(16) 0.79242(17) -0.17299(18)
N2B N 0.28397(23) 0.40972(16) -0.16034(18)
N2I N 0.54092(17) 0.92361(16) -1.00633(18)
N2E N 0.40972(16) 0.28397(23) -0.33966(18)
C1Q C 0.74579(19) 0.83472(27) -0.4605(2)
C1EA C 0.42226(19) 0.50138(27) -0.2939(2)
C1W C 0.58754(19) 0.83195(27) -0.8728(2)
C1GA C 0.91108(19) 0.74579(19) -0.5395(2)
C1X C 0.74579(19) 0.91108(19) 0.0395(2)
N3Q N 0.73624(17) 0.92528(24) -0.74119(19)
N3EA N 0.52237(17) 0.59194(24) -0.57453(19)
N3W N 0.59709(17) 0.74139(24) -0.59214(19)
N3GA N 0.81097(17) 0.73624(17) -0.25881(19)
N3X N 0.73624(17) 0.81097(17) -0.24119(19)
N3J N 0.40806(24) 0.47763(17) -0.07453(19)
N3_2 N 0.59709(17) 0.85570(17) -1.09214(19)
N3M N 0.47763(17) 0.40806(24) -0.42547(19)
N4H N 0.6744(3) 0.6743(2) -0.2500
N4U N 0.3333(2) 0.3410(2) -0.0833
N4W N 0.6590(2) 0.9923(3) -1.0833
N4R N 0.3410(2) 0.3333(2) -0.4167
N5BA N 0.2983(3) 0.2984(3) -0.2500
N5W N 0.6667 1.0350(3) -0.9167
C2Q C 0.75095(19) 0.91699(28) -0.6231(2)
C2EA C 0.4994(2) 0.58365(28) -0.4565(2)
C2W C 0.58238(19) 0.74968(28) -0.7102(2)
C2GA C 0.8340(2) 0.75095(19) -0.3769(2)
C2X C 0.75095(19) 0.8340(2) -0.1231(2)
C3Q C 0.7408(2) 0.8744(3) -0.7413(2)
C3EA C 0.4669(2) 0.5410(3) -0.5747(2)
C3W C 0.5925(2) 0.7923(3) -0.5920(2)
C3GA C 0.8665(2) 0.7408(2) -0.2587(2)
C3X C 0.7408(2) 0.8665(2) -0.2413(2)
H1Q H 0.7385 0.8525 -0.7835
H1EA H 0.4473 0.5191 -0.6169
H1W H 0.5948 0.8142 -0.5498
H1GA H 0.8861 0.7385 -0.2165
H1X H 0.7385 0.8861 -0.2835
C4Q C 0.7933(2) 0.9000(3) -0.4883(2)
C4EA C 0.4400(2) 0.5666(3) -0.3217(2)
C4W C 0.5400(2) 0.7667(3) -0.8450(2)
C4GA C 0.8934(2) 0.7933(2) -0.5117(2)
C4X C 0.7933(2) 0.8934(2) 0.0117(2)
H2Q H 0.8217 0.8963 -0.5220
H2EA H 0.4079 0.5629 -0.3554
H2W H 0.5116 0.7704 -0.8113
H2GA H 0.9255 0.8217 -0.4780
H2X H 0.8217 0.9255 -0.0220
H3Q H 0.8182 0.9256 -0.4478
H3EA H 0.4407 0.5922 -0.2812
H3W H 0.5151 0.7411 -0.8855
H3GA H 0.8927 0.8182 -0.5522
H3X H 0.8182 0.8927 0.0522
N6Q N 0.6541(4) 0.5787(6) -0.3964(4)
N6EA N 0.2579(4) 0.2453(6) -0.2298(4)
N6BA N 0.2453(6) 0.2579(4) -0.2702(4)
N6W N 0.6792(4) 1.0880(6) -0.9369(4)
N6X N 0.6541(4) 1.0755(4) -0.8964(4)
N7J N 0.7162(4) 0.6945(3) -0.6009(4)
N7Q N 0.6450(3) 0.6172(4) -0.2675(4)
N7H N 0.6172(4) 0.6450(3) -0.2325(4)
N7EA N 0.3055(3) 0.2838(4) -0.1009(4)
N7U N 0.3612(3) 0.3117(3) -0.0658(4)
N8J N 0.7692(6) 0.7173(4) -0.6152(5)
N8Q N 0.6148(5) 0.5642(6) -0.2818(5)
N8H N 0.5642(6) 0.6148(5) -0.2182(5)
N8EA N 0.2827(4) 0.2308(6) -0.1152(5)
N8U N 0.3840(4) 0.2815(5) -0.0515(5)
O1 O 0.3532(2) 0.7898(2) 0.3436(2)
loop_
_geom_bond_atom_site_label_1
_geom_bond_atom_site_label_2
_geom_bond_site_symmetry_1
_geom_bond_site_symmetry_2
Co1 O4 1_555 1_555
S1 C2 1_555 1_555
S2 C2 1_555 1_555
O4 C1 1_555 1_555
O5 C1 1_555 1_555
N1 Co1 1_555 1_555
N2 N3 1_555 1_555
C1 C4 1_555 1_555
N3 C3 1_555 1_555
N4 Co1 1_555 1_555
N5 N1 1_555 1_555
C2 N2 1_555 1_555
C3 S1 1_555 1_555
H1 C3 1_555 1_555
C4 S2 1_555 1_555
H2 C4 1_555 1_555
H3 C4 1_555 1_555
N6 N5 1_555 1_555
N7 N4 1_555 1_555
N8 N7 1_555 1_555
Co1Q O5 1_555 1_555
Co1EA O4EA 1_555 1_555
Co1W O4W 1_555 1_555
Co1J N4 1_555 1_555
Co1BA O4BA 1_555 1_555
Co1FA N2 1_555 1_555
Co1W_2 N3 1_555 1_555
Co1HA N2Q 1_555 1_555
Co1X O5W 1_555 1_555
Co1H N2X 1_555 1_555
Co1GA O4GA 1_555 1_555
Co1T O5GA 1_555 1_555
Co1X_2 O4X 1_555 1_555
Co1U N4U 1_555 1_555
S1Q C2Q 1_555 1_555
S1EA C2EA 1_555 1_555
S1W C2W 1_555 1_555
S1GA C2GA 1_555 1_555
S1X C2X 1_555 1_555
S2Q C2Q 1_555 1_555
S2EA C2EA 1_555 1_555
S2W C2W 1_555 1_555
S2GA C2GA 1_555 1_555
S2X C2X 1_555 1_555
O4Q Co1Q 1_555 1_555
O4EA C1EA 1_555 1_555
O4W C1W 1_555 1_555
O4GA C1GA 1_555 1_555
O4X C1X 1_555 1_555
O4J Co1J 1_555 1_555
O5Q Co1 1_555 1_555
O5EA Co1BA 1_555 1_555
O5W C1W 1_555 1_555
O5GA C1GA 1_555 1_555
O5X Co1W_2 1_555 1_555
O5BA Co1EA 1_555 1_555
O5X_2 Co1W 1_555 1_555
O5M Co1J 1_555 1_555
N1BA Co1EA 1_555 1_555
N1W Co1W 1_555 1_555
N1J Co1J 1_555 1_555
N2Q N3Q 1_555 1_555
N2EA Co1 1_555 1_555
N2W Co1J 1_555 1_555
N2GA Co1Q 1_555 1_555
N2X N3X 1_555 1_555
N2B Co1EA 1_555 1_555
N2I Co1W 1_555 1_555
N2E Co1BA 1_555 1_555
C1Q O4Q 1_555 1_555
C1EA O5EA 1_555 1_555
C1W C4W 1_555 1_555
C1GA C4GA 1_555 1_555
C1X O5X 1_555 1_555
N3Q Co1X 1_555 1_555
N3EA Co1J 1_555 1_555
N3W Co1 1_555 1_555
N3GA Co1H 1_555 1_555
N3X Co1Q 1_555 1_555
N3J Co1EA 1_555 1_555
N3_2 Co1W 1_555 1_555
N3M Co1BA 1_555 1_555
N4H Co1Q 1_555 1_555
N4U Co1EA 1_555 1_555
N4W Co1W 1_555 1_555
N4R Co1BA 1_555 1_555
N5BA N1BA 1_555 1_555
N5W N1W 1_555 1_555
C2Q N2Q 1_555 1_555
C2EA N2EA 1_555 1_555
C2W N2W 1_555 1_555
C2GA N2GA 1_555 1_555
C2X N2X 1_555 1_555
C3Q S1Q 1_555 1_555
C3EA S1EA 1_555 1_555
C3W S1W 1_555 1_555
C3GA S1GA 1_555 1_555
C3X S1X 1_555 1_555
H1Q C3Q 1_555 1_555
H1EA C3EA 1_555 1_555
H1W C3W 1_555 1_555
H1GA C3GA 1_555 1_555
H1X C3X 1_555 1_555
C4Q S2Q 1_555 1_555
C4EA S2EA 1_555 1_555
C4W S2W 1_555 1_555
C4GA S2GA 1_555 1_555
C4X S2X 1_555 1_555
H2Q C4Q 1_555 1_555
H2EA C4EA 1_555 1_555
H2W C4W 1_555 1_555
H2GA C4GA 1_555 1_555
H2X C4X 1_555 1_555
H3Q C4Q 1_555 1_555
H3EA C4EA 1_555 1_555
H3W C4W 1_555 1_555
H3GA C4GA 1_555 1_555
H3X C4X 1_555 1_555
N6Q N5 1_555 1_555
N6EA N5BA 1_555 1_555
N6BA N5BA 1_555 1_555
N6W N5W 1_555 1_555
N6X N5W 1_555 1_555
N7J N4 1_555 1_555
N7Q N4H 1_555 1_555
N7H N4H 1_555 1_555
N7EA N4U 1_555 1_555
N7U N4U 1_555 1_555
N8J N7J 1_555 1_555
N8Q N7Q 1_555 1_555
N8H N7H 1_555 1_555
N8EA N7EA 1_555 1_555
N8U N7U 1_555 1_555
N1 Co1Q 1_555 1_555
N6 N6Q 1_555 1_555
N7 N7J 1_555 1_555
Co1BA N1BA 1_555 1_555
Co1X N1W 1_555 1_555
Co1H N4H 1_555 1_555
O5Q C1Q 1_555 1_555
N2EA N3EA 1_555 1_555
N2W N3W 1_555 1_555
N2GA N3GA 1_555 1_555
C1Q C4Q 1_555 1_555
C1EA C4EA 1_555 1_555
C1X C4X 1_555 1_555
N3Q C3Q 1_555 1_555
N3EA C3EA 1_555 1_555
N3W C3W 1_555 1_555
N3GA C3GA 1_555 1_555
N3X C3X 1_555 1_555
N6EA N6BA 1_555 1_555
N6W N6X 1_555 1_555
N7Q N7H 1_555 1_555
N7EA N7U 1_555 1_555

#END
