
#######################################################################
#
#                 Cambridge Crystallographic Data Centre
#                                CCDC 
#
#######################################################################
#
# If this CIF has been generated from an entry in the Cambridge 
# Structural Database, then it will include bibliographic, chemical, 
# crystal, experimental, refinement or atomic coordinate data resulting 
# from the CCDC's data processing and validation procedures.
#
#######################################################################

data_OCEYOL
_symmetry_cell_setting           orthorhombic
_symmetry_space_group_name_H-M   'P n a 21'
_symmetry_Int_Tables_number      33
_space_group_name_Hall           'P 2c -2n'
loop_
_symmetry_equiv_pos_site_id
_symmetry_equiv_pos_as_xyz
1 x,y,z
2 -x,-y,1/2+z
3 1/2+x,1/2-y,z
4 1/2-x,1/2+y,1/2+z
_cell_length_a                   16.205(4)
_cell_length_b                   7.6783(16)
_cell_length_c                   25.247(5)
_cell_angle_alpha                90
_cell_angle_beta                 90
_cell_angle_gamma                90
_cell_volume                     3141.4
loop_
_atom_site_label
_atom_site_type_symbol
_atom_site_fract_x
_atom_site_fract_y
_atom_site_fract_z
Zn1 Zn -0.02926(9) -0.48422(19) 0.10631(8)
Zn2 Zn -0.00400(10) 1.0022(2) -0.21717(11)
O1 O 0.0902(5) -0.4616(12) 0.1096(5)
O2 O 0.1015(6) -0.1942(13) 0.1390(5)
O3 O 0.3264(6) -0.8594(13) 0.0967(5)
O4 O 0.4513(6) -0.7638(10) 0.1183(5)
O5 O 0.1252(6) 0.6744(15) -0.2571(5)
O6 O 0.1107(6) 0.9577(15) -0.2333(5)
O7 O 0.3481(7) 1.3393(13) -0.2135(6)
O8 O 0.4704(7) 1.2558(10) -0.2391(4)
N1 N 0.4142(8) -0.1338(14) 0.1740(5)
H1 H 0.3846 -0.0541 0.1920
H2 H 0.4531 -0.1770 0.1958
N2 N 0.4366(7) 0.6185(14) -0.2862(5)
H3 H 0.4107 0.5347 -0.3047
H4 H 0.4761 0.6636 -0.3071
N3 N -0.0634(8) -0.3301(15) 0.0444(5)
N4 N -0.0462(8) 0.8383(17) -0.1618(6)
C1 C 0.2219(9) -0.3666(18) 0.1322(6)
C2 C 0.2584(8) -0.5247(18) 0.1204(6)
H5 H 0.2240 -0.6141 0.1090
C3 C 0.3409(9) -0.561(2) 0.1241(6)
C4 C 0.3932(9) -0.4269(18) 0.1430(6)
H6 H 0.4496 -0.4462 0.1467
C5 C 0.3607(8) -0.2727(19) 0.1556(7)
C6 C 0.2769(10) -0.240(2) 0.1522(6)
H7 H 0.2565 -0.1326 0.1633
C7 C 0.1322(9) -0.338(2) 0.1256(7)
C8 C 0.3739(11) -0.743(2) 0.1093(8)
C9 C 0.2440(8) 0.8571(17) -0.2527(6)
C10 C 0.2788(9) 1.0217(19) -0.2415(6)
H8 H 0.2438 1.1119 -0.2314
C11 C 0.3576(9) 1.0527(19) -0.2445(6)
C12 C 0.4130(8) 0.9201(19) -0.2619(6)
H9 H 0.4692 0.9422 -0.2650
C13 C 0.3796(9) 0.7497(16) -0.2745(7)
C14 C 0.2971(9) 0.7241(18) -0.2694(6)
H10 H 0.2752 0.6150 -0.2771
C15 C 0.1545(9) 0.827(3) -0.2476(6)
C16 C 0.3914(12) 1.235(2) -0.2312(7)
C17 C -0.0108(9) -0.207(2) 0.0279(7)
H11 H 0.0449 -0.2165 0.0364
C18 C -0.0386(10) -0.063(2) -0.0025(8)
H12 H -0.0009 0.0157 -0.0168
C19 C -0.1212(10) -0.040(2) -0.0102(7)
C20 C -0.1750(10) -0.179(2) 0.0033(7)
H13 H -0.2301 -0.1776 -0.0072
C21 C -0.1436(9) -0.3137(18) 0.0321(7)
H14 H -0.1798 -0.3992 0.0439
C22 C -0.1620(12) 0.115(2) -0.0396(7)
H15 H -0.1906 0.0707 -0.0705
H16 H -0.2030 0.1667 -0.0164
C23 C -0.1070(9) 0.247(3) -0.0561(10)
H17 H -0.0656 0.1986 -0.0795
H18 H -0.0792 0.2966 -0.0256
C24 C -0.1580(10) 0.398(2) -0.0867(7)
H19 H -0.1867 0.3440 -0.1161
H20 H -0.1998 0.4416 -0.0626
C25 C -0.1128(10) 0.552(2) -0.1080(7)
C26 C -0.0323(12) 0.555(2) -0.1186(7)
H21 H 0.0017 0.4634 -0.1084
C27 C -0.0013(11) 0.694(3) -0.1444(9)
H22 H 0.0551 0.6938 -0.1512
C28 C -0.1304(11) 0.834(2) -0.1485(7)
H23 H -0.1636 0.9297 -0.1558
C29 C -0.1637(11) 0.691(2) -0.1251(7)
H24 H -0.2206 0.6838 -0.1203
Zn1B Zn 0.47074(9) -0.01578(19) 0.10631(8)
Zn1B_2 Zn 0.47074(9) -1.01578(19) 0.10631(8)
Zn2B Zn 0.49600(10) 0.4978(2) -0.21717(11)
Zn2B_2 Zn 0.49600(10) 1.4978(2) -0.21717(11)
O4B O -0.0487(6) -0.7362(10) 0.1183(5)
O8B O -0.0296(7) 1.2442(10) -0.2391(4)
N1B N -0.0858(8) -0.3662(14) 0.1740(5)
H1B H -0.1154 -0.4459 0.1920
H2B H -0.0469 -0.3230 0.1958
N2B N -0.0634(7) 0.8815(14) -0.2862(5)
H3B H -0.0893 0.9653 -0.3047
H4B H -0.0239 0.8364 -0.3071
O9 O 0.0690(10) -0.8423(18) -0.1418(5)
O10 O -0.3558(10) -0.436(2) -0.0629(7)
O11 O 0.1589(11) -0.431(2) -0.0772(7)
O12 O 0.1109(10) -0.638(2) 0.0016(7)
O13 O 0.1828(8) -0.5866(15) -0.1797(6)
O14 O -0.3317(7) -0.5586(14) 0.0571(6)
loop_
_geom_bond_atom_site_label_1
_geom_bond_atom_site_label_2
_geom_bond_site_symmetry_1
_geom_bond_site_symmetry_2
Zn1 O1 1_555 1_555
Zn2 O6 1_555 1_555
O1 C7 1_555 1_555
O2 C7 1_555 1_555
O3 C8 1_555 1_555
O4 C8 1_555 1_555
O5 C15 1_555 1_555
O6 C15 1_555 1_555
O7 C16 1_555 1_555
O8 C16 1_555 1_555
N1 H1 1_555 1_555
H2 N1 1_555 1_555
N2 H3 1_555 1_555
H4 N2 1_555 1_555
N3 Zn1 1_555 1_555
N4 Zn2 1_555 1_555
C1 C2 1_555 1_555
C2 H5 1_555 1_555
C3 C2 1_555 1_555
C4 C3 1_555 1_555
H6 C4 1_555 1_555
C5 N1 1_555 1_555
C6 C1 1_555 1_555
H7 C6 1_555 1_555
C7 C1 1_555 1_555
C8 C3 1_555 1_555
C9 C10 1_555 1_555
C10 H8 1_555 1_555
C11 C10 1_555 1_555
C12 C11 1_555 1_555
H9 C12 1_555 1_555
C13 N2 1_555 1_555
C14 C9 1_555 1_555
H10 C14 1_555 1_555
C15 C9 1_555 1_555
C16 C11 1_555 1_555
C17 N3 1_555 1_555
H11 C17 1_555 1_555
C18 C17 1_555 1_555
H12 C18 1_555 1_555
C19 C18 1_555 1_555
C20 C19 1_555 1_555
H13 C20 1_555 1_555
C21 N3 1_555 1_555
H14 C21 1_555 1_555
C22 C19 1_555 1_555
H15 C22 1_555 1_555
H16 C22 1_555 1_555
C23 C22 1_555 1_555
H17 C23 1_555 1_555
H18 C23 1_555 1_555
C24 C23 1_555 1_555
H19 C24 1_555 1_555
H20 C24 1_555 1_555
C25 C24 1_555 1_555
C26 C25 1_555 1_555
H21 C26 1_555 1_555
C27 N4 1_555 1_555
H22 C27 1_555 1_555
C28 N4 1_555 1_555
H23 C28 1_555 1_555
C29 C25 1_555 1_555
H24 C29 1_555 1_555
Zn1B N1 1_555 1_555
Zn1B_2 O4 1_555 1_555
Zn2B N2 1_555 1_555
Zn2B_2 O8 1_555 1_555
O4B Zn1 1_555 1_555
O8B Zn2 1_555 1_555
N1B Zn1 1_555 1_555
H1B N1B 1_555 1_555
H2B N1B 1_555 1_555
N2B Zn2 1_555 1_555
H3B N2B 1_555 1_555
H4B N2B 1_555 1_555
C4 C5 1_555 1_555
C5 C6 1_555 1_555
C12 C13 1_555 1_555
C13 C14 1_555 1_555
C20 C21 1_555 1_555
C26 C27 1_555 1_555
C28 C29 1_555 1_555

#END
