
#######################################################################
#
#                 Cambridge Crystallographic Data Centre
#                                CCDC 
#
#######################################################################
#
# If this CIF has been generated from an entry in the Cambridge 
# Structural Database, then it will include bibliographic, chemical, 
# crystal, experimental, refinement or atomic coordinate data resulting 
# from the CCDC's data processing and validation procedures.
#
#######################################################################

data_OCEYIF
_symmetry_cell_setting           monoclinic
_symmetry_space_group_name_H-M   'C 2/c'
_symmetry_Int_Tables_number      15
_space_group_name_Hall           '-C 2yn'
loop_
_symmetry_equiv_pos_site_id
_symmetry_equiv_pos_as_xyz
1 x,y,z
2 1/2+x,1/2+y,z
3 -x,y,1/2-z
4 1/2-x,1/2+y,1/2-z
5 -x,-y,-z
6 1/2-x,1/2-y,-z
7 x,-y,1/2+z
8 1/2+x,1/2-y,1/2+z
_cell_length_a                   26.5106(19)
_cell_length_b                   7.4518(5)
_cell_length_c                   16.3890(12)
_cell_angle_alpha                90.00
_cell_angle_beta                 114.0290(10)
_cell_angle_gamma                90.00
_cell_volume                     2957.1
loop_
_atom_site_label
_atom_site_type_symbol
_atom_site_fract_x
_atom_site_fract_y
_atom_site_fract_z
Zn1 Zn 0.160943(12) 0.21226(4) 0.172615(18)
O1 O 0.16217(8) 0.2130(2) 0.29318(12)
O2 O 0.20388(8) -0.0521(3) 0.33410(12)
O3 O 0.17113(8) 0.5290(2) 0.65889(12)
O4 O 0.14786(9) 0.6294(3) 0.52165(13)
N1 N 0.23208(8) -0.1095(3) 0.66340(13)
H1 H 0.2500 -0.1976 0.6487
H2 H 0.2549 -0.0633 0.7163
N2 N 0.09912(8) 0.0358(3) 0.10467(14)
C1 C 0.18922(10) 0.1262(3) 0.44383(16)
C2 C 0.17404(10) 0.2921(3) 0.46555(16)
H3 H 0.1600 0.3801 0.4218
C3 C 0.17967(10) 0.3275(3) 0.55235(16)
C4 C 0.20033(10) 0.1941(3) 0.61720(16)
H4 H 0.2039 0.2163 0.6752
C5 C 0.21555(10) 0.0283(3) 0.59586(16)
C6 C 0.20982(10) -0.0063(3) 0.50925(16)
H5 H 0.2197 -0.1178 0.4949
C7 C 0.18542(10) 0.0891(3) 0.35092(16)
C8 C 0.16468(10) 0.5068(3) 0.57761(17)
C9 C 0.07830(11) 0.0131(4) 0.01565(18)
H6 H 0.0849 0.1009 -0.0191
C10 C 0.04739(11) -0.1358(4) -0.02626(18)
H7 H 0.0338 -0.1465 -0.0881
C11 C 0.03653(11) -0.2699(4) 0.02391(18)
C12 C 0.05704(12) -0.2426(4) 0.1156(2)
H8 H 0.0501 -0.3266 0.1517
C13 C 0.08765(12) -0.0913(4) 0.15328(19)
H9 H 0.1010 -0.0762 0.2148
C14 C 0.00533(12) -0.4305(4) -0.02036(19)
H10 H -0.0081 -0.4349 -0.0823
Zn1F Zn 0.160943(12) 0.78774(4) -0.327385(18)
Zn1F_2 Zn 0.160943(12) 0.78774(4) 0.672615(18)
Zn1F_3 Zn 0.160943(12) -0.21226(4) 0.672615(18)
Zn1D Zn -0.160943(12) -1.21226(4) -0.172615(18)
Zn1_2 Zn 0.160943(12) 1.21226(4) 0.172615(18)
O1F O 0.16217(8) 0.7870(2) -0.20682(12)
O2F O 0.20388(8) 1.0521(3) -0.16590(12)
O3F O 0.17113(8) 0.4710(2) 0.15889(12)
O3_2 O 0.17113(8) 0.5290(2) -0.34111(12)
O4F O 0.14786(9) 0.3706(3) 0.02165(13)
N1F N 0.23208(8) 1.1095(3) 0.16340(13)
N1F_2 N 0.23208(8) 0.1095(3) 0.16340(13)
N1_2 N 0.23208(8) 0.8905(3) -0.33660(13)
H1F H 0.2500 1.1976 0.1487
H1F_2 H 0.2500 0.1976 0.1487
H1_2 H 0.2500 0.8024 -0.3513
H2F H 0.2549 1.0633 0.2163
H2F_2 H 0.2549 0.0633 0.2163
H2_2 H 0.2549 0.9367 -0.2837
N2D N -0.09912(8) -1.0358(3) -0.10467(14)
N2F N 0.09912(8) 0.9642(3) -0.39533(14)
C1F C 0.18922(10) 0.8738(3) -0.05617(16)
C2F C 0.17404(10) 0.7079(3) -0.03445(16)
H3F H 0.1600 0.6199 -0.0782
C3F C 0.17967(10) 0.6725(3) 0.05235(16)
C4F C 0.20033(10) 0.8059(3) 0.11720(16)
H4F H 0.2039 0.7837 0.1752
C5F C 0.21555(10) 0.9717(3) 0.09586(16)
C6F C 0.20982(10) 1.0063(3) 0.00925(16)
H5F H 0.2197 1.1178 -0.0051
C7F C 0.18542(10) 0.9109(3) -0.14908(16)
C8F C 0.16468(10) 0.4932(3) 0.07761(17)
C9D C -0.07830(11) -1.0131(4) -0.01565(18)
H6D H -0.0849 -1.1009 0.0191
C10D C -0.04739(11) -0.8642(4) 0.02626(18)
H7D H -0.0338 -0.8535 0.0881
C11D C -0.03653(11) -0.7301(4) -0.02391(18)
C12D C -0.05704(12) -0.7574(4) -0.1156(2)
H8D H -0.0501 -0.6734 -0.1517
C13D C -0.08765(12) -0.9087(4) -0.15328(19)
H9D H -0.1010 -0.9238 -0.2148
C14D C -0.00533(12) -0.5695(4) 0.02036(19)
H10D H 0.0081 -0.5651 0.0823
O5 O 0.0000 0.9459(9) 0.2500
O6 O 0.05310(17) 0.3528(8) 0.2530(3)
O7 O 0.0873(3) 0.3060(7) 0.8406(2)
loop_
_geom_bond_atom_site_label_1
_geom_bond_atom_site_label_2
_geom_bond_site_symmetry_1
_geom_bond_site_symmetry_2
Zn1 O1 1_555 1_555
O1 C7 1_555 1_555
O2 C7 1_555 1_555
O3 C8 1_555 1_555
O4 C8 1_555 1_555
N1 H1 1_555 1_555
H2 N1 1_555 1_555
N2 Zn1 1_555 1_555
C1 C2 1_555 1_555
C2 H3 1_555 1_555
C3 C2 1_555 1_555
C4 C3 1_555 1_555
H4 C4 1_555 1_555
C5 N1 1_555 1_555
C6 C1 1_555 1_555
H5 C6 1_555 1_555
C7 C1 1_555 1_555
C8 C3 1_555 1_555
C9 N2 1_555 1_555
H6 C9 1_555 1_555
C10 C9 1_555 1_555
H7 C10 1_555 1_555
C11 C10 1_555 1_555
C12 C11 1_555 1_555
H8 C12 1_555 1_555
C13 N2 1_555 1_555
H9 C13 1_555 1_555
C14 C11 1_555 1_555
H10 C14 1_555 1_555
Zn1F O1F 1_555 1_555
Zn1F_2 O3 1_555 1_555
Zn1F_3 N1 1_555 1_555
Zn1D N2D 1_555 1_555
Zn1_2 N1F 1_555 1_555
O1F C7F 1_555 1_555
O2F C7F 1_555 1_555
O3F Zn1 1_555 1_555
O3_2 Zn1F 1_555 1_555
O4F C8F 1_555 1_555
N1F H1F 1_555 1_555
N1F_2 Zn1 1_555 1_555
N1_2 Zn1F 1_555 1_555
H1F_2 N1F_2 1_555 1_555
H1_2 N1_2 1_555 1_555
H2F N1F 1_555 1_555
H2F_2 N1F_2 1_555 1_555
H2_2 N1_2 1_555 1_555
N2D C9D 1_555 1_555
N2F Zn1F 1_555 1_555
C1F C2F 1_555 1_555
C2F H3F 1_555 1_555
C3F C2F 1_555 1_555
C4F C3F 1_555 1_555
H4F C4F 1_555 1_555
C5F N1F 1_555 1_555
C6F C1F 1_555 1_555
H5F C6F 1_555 1_555
C7F C1F 1_555 1_555
C8F O3F 1_555 1_555
C9D H6D 1_555 1_555
C10D C9D 1_555 1_555
H7D C10D 1_555 1_555
C11D C10D 1_555 1_555
C12D C11D 1_555 1_555
H8D C12D 1_555 1_555
C13D N2D 1_555 1_555
H9D C13D 1_555 1_555
C14D C14 1_555 1_555
H10D C14D 1_555 1_555
C4 C5 1_555 1_555
C5 C6 1_555 1_555
C12 C13 1_555 1_555
C3F C8F 1_555 1_555
C4F C5F 1_555 1_555
C5F C6F 1_555 1_555
C11D C14D 1_555 1_555
C12D C13D 1_555 1_555

#END
