
#######################################################################
#
#                 Cambridge Crystallographic Data Centre
#                                CCDC 
#
#######################################################################
#
# If this CIF has been generated from an entry in the Cambridge 
# Structural Database, then it will include bibliographic, chemical, 
# crystal, experimental, refinement or atomic coordinate data resulting 
# from the CCDC's data processing and validation procedures.
#
#######################################################################

data_OCEZAY
_symmetry_cell_setting           monoclinic
_symmetry_space_group_name_H-M   'C 2/c'
_symmetry_Int_Tables_number      15
_space_group_name_Hall           '-C 2yn'
loop_
_symmetry_equiv_pos_site_id
_symmetry_equiv_pos_as_xyz
1 x,y,z
2 1/2+x,1/2+y,z
3 -x,y,1/2-z
4 1/2-x,1/2+y,1/2-z
5 -x,-y,-z
6 1/2-x,1/2-y,-z
7 x,-y,1/2+z
8 1/2+x,1/2-y,1/2+z
_cell_length_a                   26.0449(9)
_cell_length_b                   7.44816(29)
_cell_length_c                   16.2399(6)
_cell_angle_alpha                90
_cell_angle_beta                 113.3313(24)
_cell_angle_gamma                90
_cell_volume                     2892.72
loop_
_atom_site_label
_atom_site_type_symbol
_atom_site_fract_x
_atom_site_fract_y
_atom_site_fract_z
Zn1 Zn 0.16065(15) -0.2123(5) 0.17102(30)
O1 O 0.1704(8) -0.4676(21) 0.1559(11)
O2 O 0.1343(6) -0.3856(21) 0.0181(11)
O3 O 0.1572(6) -0.7994(21) -0.2074(11)
O4 O 0.2042(7) -1.0406(21) -0.1754(14)
N1 N 0.2328(7) -1.1268(22) 0.1691(13)
N2 N 0.0891(8) -0.0330(20) 0.1035(13)
C1 C 0.1766(12) -0.6847(22) 0.0588(20)
C2 C 0.1724(10) -0.7144(30) -0.0287(15)
C3 C 0.1906(11) -0.877(4) -0.0506(10)
C4 C 0.2124(12) -1.0065(23) 0.0163(20)
C5 C 0.2157(11) -0.9822(30) 0.1034(15)
C6 C 0.2017(10) -0.812(4) 0.1254(10)
C7 C 0.1676(10) -0.4877(23) 0.0772(10)
C8 C 0.1810(11) -0.9171(29) -0.1487(10)
C9 C 0.0771(10) 0.1006(30) 0.1503(8)
C10 C 0.0463(10) 0.2500(23) 0.1059(14)
C11 C 0.0301(9) 0.2647(22) 0.0133(13)
C12 C 0.0522(9) 0.1438(28) -0.0297(8)
C13 C 0.0720(10) -0.0209(24) 0.0112(13)
C14 C -0.0016(12) 0.4318(19) -0.0302(8)
Zn1F Zn 0.16065(15) -0.7877(5) 0.67102(30)
Zn1F_2 Zn 0.16065(15) -0.7877(5) -0.32898(30)
Zn1_2 Zn 0.16065(15) -1.2123(5) 0.17102(30)
Zn1D Zn -0.16065(15) 1.2123(5) -0.17102(30)
Zn1F_3 Zn 0.16065(15) 0.2123(5) 0.67102(30)
O1F O 0.1704(8) -0.5324(21) 0.6559(11)
O2F O 0.1343(6) -0.6144(21) 0.5181(11)
O3F O 0.1572(6) -0.2006(21) 0.2926(11)
O3_2 O 0.1572(6) -0.7994(21) 0.7926(11)
O4F O 0.2042(7) 0.0406(21) 0.3246(14)
N1F N 0.2328(7) 0.1268(22) 0.6691(13)
N1_2 N 0.2328(7) -0.1268(22) 0.1691(13)
N1F_2 N 0.2328(7) -0.8732(22) 0.6691(13)
N2D N -0.0891(8) 1.0330(20) -0.1035(13)
N2F N 0.0891(8) -0.9670(20) 0.6035(13)
C1F C 0.1766(12) -0.3153(22) 0.5588(20)
C2F C 0.1724(10) -0.2856(30) 0.4713(15)
C3F C 0.1906(11) -0.123(4) 0.4494(10)
C4F C 0.2124(12) 0.0065(23) 0.5163(20)
C5F C 0.2157(11) -0.0178(30) 0.6034(15)
C6F C 0.2017(10) -0.188(4) 0.6254(10)
C7F C 0.1676(10) -0.5123(23) 0.5772(10)
C8F C 0.1810(11) -0.0829(29) 0.3513(10)
C9D C -0.0771(10) 0.8994(30) -0.1503(8)
C10D C -0.0463(10) 0.7500(23) -0.1059(14)
C11D C -0.0301(9) 0.7353(22) -0.0133(13)
C12D C -0.0522(9) 0.8562(28) 0.0297(8)
C13D C -0.0720(10) 1.0209(24) -0.0112(13)
C14D C 0.0016(12) 0.5682(19) 0.0302(8)
loop_
_geom_bond_atom_site_label_1
_geom_bond_atom_site_label_2
_geom_bond_site_symmetry_1
_geom_bond_site_symmetry_2
Zn1 O1 1_555 1_555
O1 C7 1_555 1_555
O2 C7 1_555 1_555
O3 C8 1_555 1_555
O4 C8 1_555 1_555
N1 C5 1_555 1_555
N2 Zn1 1_555 1_555
C1 C2 1_555 1_555
C2 C3 1_555 1_555
C3 C4 1_555 1_555
C4 C5 1_555 1_555
C5 C6 1_555 1_555
C6 C1 1_555 1_555
C7 C1 1_555 1_555
C8 C3 1_555 1_555
C9 N2 1_555 1_555
C10 C9 1_555 1_555
C11 C10 1_555 1_555
C12 C11 1_555 1_555
C13 N2 1_555 1_555
C14 C11 1_555 1_555
Zn1F O1F 1_555 1_555
Zn1F_2 O3 1_555 1_555
Zn1_2 N1 1_555 1_555
Zn1D N2D 1_555 1_555
Zn1F_3 N1F 1_555 1_555
O1F C7F 1_555 1_555
O2F C7F 1_555 1_555
O3F Zn1 1_555 1_555
O3_2 Zn1F 1_555 1_555
O4F C8F 1_555 1_555
N1F C5F 1_555 1_555
N1_2 Zn1 1_555 1_555
N1F_2 Zn1F 1_555 1_555
N2D C9D 1_555 1_555
N2F Zn1F 1_555 1_555
C1F C2F 1_555 1_555
C2F C3F 1_555 1_555
C3F C4F 1_555 1_555
C4F C5F 1_555 1_555
C5F C6F 1_555 1_555
C6F C1F 1_555 1_555
C7F C1F 1_555 1_555
C8F O3F 1_555 1_555
C9D C10D 1_555 1_555
C10D C11D 1_555 1_555
C11D C12D 1_555 1_555
C12D C13D 1_555 1_555
C13D N2D 1_555 1_555
C14D C14 1_555 1_555
C12 C13 1_555 1_555
C3F C8F 1_555 1_555
C11D C14D 1_555 1_555

#END
