
#######################################################################
#
#                 Cambridge Crystallographic Data Centre
#                                CCDC 
#
#######################################################################
#
# If this CIF has been generated from an entry in the Cambridge 
# Structural Database, then it will include bibliographic, chemical, 
# crystal, experimental, refinement or atomic coordinate data resulting 
# from the CCDC's data processing and validation procedures.
#
#######################################################################

data_OCUGEZ01
_symmetry_cell_setting           triclinic
_symmetry_space_group_name_H-M   'P -1'
_symmetry_Int_Tables_number      2
_space_group_name_Hall           '-P 1'
loop_
_symmetry_equiv_pos_site_id
_symmetry_equiv_pos_as_xyz
1 x,y,z
2 -x,-y,-z
_cell_length_a                   8.6742(14)
_cell_length_b                   9.9686(16)
_cell_length_c                   11.756(2)
_cell_angle_alpha                74.810(19)
_cell_angle_beta                 69.699(18)
_cell_angle_gamma                85.930(19)
_cell_volume                     919.86
loop_
_atom_site_label
_atom_site_type_symbol
_atom_site_fract_x
_atom_site_fract_y
_atom_site_fract_z
Nd1 Nd 0.74555(3) 0.47758(2) 0.51191(2)
C1 C 0.4351(5) 0.4126(4) 0.7368(3)
O1 O 0.5754(4) 0.3927(3) 0.7464(2)
O2 O 0.4228(4) 0.4557(3) 0.6280(2)
C2 C 0.2825(6) 0.3886(5) 0.8514(4)
H1 H 0.2327 0.2998 0.8625
H2 H 0.2046 0.4603 0.8373
C3 C 0.3120(6) 0.3890(5) 0.9716(4)
H3 H 0.3755 0.4720 0.9569
H4 H 0.3769 0.3092 0.9925
C4 C 0.1542(6) 0.3849(5) 1.0830(4)
H5 H 0.0851 0.4608 1.0607
H6 H 0.0946 0.2984 1.1028
C5 C 0.1897(6) 0.3967(5) 1.1967(4)
H7 H 0.2655 0.4747 1.1713
H8 H 0.2456 0.3135 1.2244
C6 C 0.0443(5) 0.4157(4) 1.3075(3)
O3 O -0.0990(4) 0.3836(3) 1.3188(3)
O4 O 0.0679(4) 0.4648(3) 1.3895(3)
C7 C 0.7613(6) 0.1708(4) 0.5929(4)
O5 O 0.8627(4) 0.2529(3) 0.5984(3)
O6 O 0.6424(4) 0.2184(3) 0.5590(3)
C8 C 0.7898(7) 0.0169(4) 0.6273(5)
H9 H 0.7216 -0.0304 0.5991
H10 H 0.7552 -0.0158 0.7179
C9 C 0.9670(8) -0.0221(5) 0.5719(5)
H11 H 0.9760 -0.1220 0.5995
H12 H 1.0348 0.0212 0.6034
O9 O 0.8718(5) 0.7021(3) 0.3470(3)
O10 O 0.6253(5) 0.6970(3) 0.5882(3)
H17 H 0.810(9) 0.767(6) 0.352(9)
H18 H 0.643(10) 0.771(4) 0.535(5)
H20 H 0.539(4) 0.693(5) 0.646(4)
H22 H 0.959(5) 0.717(6) 0.353(6)
Nd1A Nd 0.25445(3) 0.52242(2) 0.48809(2)
Nd1_2 Nd -0.25445(3) 0.47758(2) 1.51191(2)
Nd1A_2 Nd 0.25445(3) 0.52242(2) 1.48809(2)
Nd1A_3 Nd 1.25445(3) -0.47758(2) 0.48809(2)
Nd1A_4 Nd 1.25445(3) 0.52242(2) -0.51191(2)
Nd1_3 Nd 0.74555(3) 0.47758(2) -0.48809(2)
C1A C 0.5649(5) 0.5874(4) 0.2632(3)
O1A O 0.4246(4) 0.6073(3) 0.2536(2)
O2A O 0.5772(4) 0.5443(3) 0.3720(2)
C2A C 0.7175(6) 0.6114(5) 0.1486(4)
H1A H 0.7673 0.7002 0.1375
H2A H 0.7954 0.5397 0.1627
C3A C 0.6880(6) 0.6110(5) 0.0284(4)
H3A H 0.6245 0.5280 0.0431
H4A H 0.6231 0.6908 0.0075
C4A C 0.8458(6) 0.6151(5) -0.0830(4)
H5A H 0.9149 0.5392 -0.0607
H6A H 0.9054 0.7016 -0.1028
C5A C 0.8103(6) 0.6033(5) -0.1967(4)
H7A H 0.7345 0.5253 -0.1713
H8A H 0.7544 0.6865 -0.2244
C6A C 0.9557(5) 0.5843(4) -0.3075(3)
O3A O 1.0990(4) 0.6164(3) -0.3188(3)
O3_2 O 0.9010(4) 0.3836(3) 0.3188(3)
O3A_2 O 0.0990(4) 0.6164(3) 0.6812(3)
O4A O 0.9321(4) 0.5352(3) -0.3895(3)
O4_2 O 1.0679(4) 0.4648(3) 0.3895(3)
O4A_2 O 0.9321(4) 0.5352(3) 0.6105(3)
O4_3 O 0.0679(4) 0.4648(3) 0.3895(3)
O4A_3 O -0.0679(4) 0.5352(3) 0.6105(3)
C7A C 1.2387(6) -0.1708(4) 0.4071(4)
O5A O 1.1373(4) -0.2529(3) 0.4016(3)
O5A_2 O 0.1373(4) 0.7471(3) 0.4016(3)
O6A O 1.3576(4) -0.2184(3) 0.4410(3)
O6A_2 O 0.3576(4) 0.7816(3) 0.4410(3)
C8A C 1.2102(7) -0.0169(4) 0.3727(5)
H9A H 1.2784 0.0304 0.4009
H10A H 1.2448 0.0158 0.2821
C9A C 1.0330(8) 0.0221(5) 0.4281(5)
H11A H 1.0240 0.1220 0.4005
H12A H 0.9652 -0.0212 0.3966
O9A O 0.1282(5) 0.2979(3) 0.6530(3)
O10A O 0.3747(5) 0.3030(3) 0.4118(3)
H17A H 0.190(9) 0.233(6) 0.648(9)
H18A H 0.357(10) 0.229(4) 0.465(5)
H20A H 0.461(4) 0.307(5) 0.354(4)
H22A H 0.041(5) 0.283(6) 0.647(6)
C10 C 0.7204(8) 0.1489(6) 0.9759(5)
O7 O 0.6598(6) 0.1556(4) 0.8863(4)
O8 O 0.7384(8) 0.2496(5) 1.0095(5)
C11 C 0.7630(8) 0.0042(6) 1.0326(6)
H13 H 0.7664 -0.0534 0.9769
H14 H 0.6749 -0.0323 1.1110
C12 C 0.9265(9) -0.0114(7) 1.0586(6)
H15 H 0.9311 0.0551 1.1047
H16 H 0.9301 -0.1039 1.1109
H23 H 0.636(10) 0.233(4) 0.853(7)
C10A C 1.2796(8) -0.1489(6) 1.0241(5)
O7A O 1.3402(6) -0.1556(4) 1.1137(4)
O8A O 1.2616(8) -0.2496(5) 0.9905(5)
C11A C 1.2370(8) -0.0042(6) 0.9674(6)
H13A H 1.2336 0.0534 1.0231
H14A H 1.3251 0.0323 0.8890
C12A C 1.0735(9) 0.0114(7) 0.9414(6)
H15A H 1.0689 -0.0551 0.8953
H16A H 1.0699 0.1039 0.8891
H23A H 1.364(10) -0.233(4) 1.147(7)
O11 O -0.3129(5) 0.2227(4) 1.2682(4)
H21 H -0.286(11) 0.231(9) 1.193(2)
H24 H -0.239(7) 0.270(7) 1.266(8)
O12 O 0.3501(5) 0.0791(4) 0.6276(4)
H19 H 0.445(3) 0.102(5) 0.608(4)
H25 H 0.359(10) -0.004(3) 0.636(8)
loop_
_geom_bond_atom_site_label_1
_geom_bond_atom_site_label_2
_geom_bond_site_symmetry_1
_geom_bond_site_symmetry_2
Nd1 O1 1_555 1_555
C1 O1 1_555 1_555
O2 Nd1 1_555 1_555
C2 C1 1_555 1_555
H1 C2 1_555 1_555
H2 C2 1_555 1_555
C3 C2 1_555 1_555
H3 C3 1_555 1_555
H4 C3 1_555 1_555
C4 C3 1_555 1_555
H5 C4 1_555 1_555
H6 C4 1_555 1_555
C5 C4 1_555 1_555
H7 C5 1_555 1_555
H8 C5 1_555 1_555
C6 C5 1_555 1_555
O3 C6 1_555 1_555
O4 C6 1_555 1_555
C7 O5 1_555 1_555
O5 Nd1 1_555 1_555
O6 Nd1 1_555 1_555
C8 C7 1_555 1_555
H9 C8 1_555 1_555
H10 C8 1_555 1_555
C9 C8 1_555 1_555
H11 C9 1_555 1_555
H12 C9 1_555 1_555
C10 O7 1_555 1_555
O7 H23 1_555 1_555
O8 C10 1_555 1_555
C11 C10 1_555 1_555
H13 C11 1_555 1_555
H14 C11 1_555 1_555
C12 C11 1_555 1_555
H15 C12 1_555 1_555
H16 C12 1_555 1_555
O9 Nd1 1_555 1_555
O10 Nd1 1_555 1_555
O11 H21 1_555 1_555
O12 H19 1_555 1_555
H17 O9 1_555 1_555
H18 O10 1_555 1_555
H20 O10 1_555 1_555
H22 O9 1_555 1_555
H24 O11 1_555 1_555
H25 O12 1_555 1_555
Nd1A O2 1_555 1_555
Nd1_2 O3 1_555 1_555
Nd1A_2 O4 1_555 1_555
Nd1A_3 O5A 1_555 1_555
Nd1A_4 O3A 1_555 1_555
Nd1_3 O4A 1_555 1_555
C1A O1A 1_555 1_555
O1A Nd1A 1_555 1_555
O2A Nd1 1_555 1_555
C2A C1A 1_555 1_555
H1A C2A 1_555 1_555
H2A C2A 1_555 1_555
C3A C2A 1_555 1_555
H3A C3A 1_555 1_555
H4A C3A 1_555 1_555
C4A C3A 1_555 1_555
H5A C4A 1_555 1_555
H6A C4A 1_555 1_555
C5A C4A 1_555 1_555
H7A C5A 1_555 1_555
H8A C5A 1_555 1_555
C6A C5A 1_555 1_555
O3A C6A 1_555 1_555
O3_2 Nd1 1_555 1_555
O3A_2 Nd1A 1_555 1_555
O4A Nd1A_4 1_555 1_555
O4_2 Nd1 1_555 1_555
O4A_2 Nd1 1_555 1_555
O4_3 Nd1A 1_555 1_555
O4A_3 Nd1A 1_555 1_555
C7A O5A 1_555 1_555
O5A_2 Nd1A 1_555 1_555
O6A Nd1A_3 1_555 1_555
O6A_2 Nd1A 1_555 1_555
C8A C7A 1_555 1_555
H9A C8A 1_555 1_555
H10A C8A 1_555 1_555
C9A C9 1_555 1_555
H11A C9A 1_555 1_555
H12A C9A 1_555 1_555
C10A O7A 1_555 1_555
O7A H23A 1_555 1_555
O8A C10A 1_555 1_555
C11A C10A 1_555 1_555
H13A C11A 1_555 1_555
H14A C11A 1_555 1_555
C12A C12 1_555 1_555
H15A C12A 1_555 1_555
H16A C12A 1_555 1_555
O9A Nd1A 1_555 1_555
O10A Nd1A 1_555 1_555
H17A O9A 1_555 1_555
H18A O10A 1_555 1_555
H20A O10A 1_555 1_555
H22A O9A 1_555 1_555
C1 O2 1_555 1_555
O4 Nd1_2 1_555 1_555
C7 O6 1_555 1_555
Nd1A O2A 1_555 1_555
C1A O2A 1_555 1_555
C6A O4A 1_555 1_555
C7A O6A 1_555 1_555
C8A C9A 1_555 1_555
C11A C12A 1_555 1_555

#END
