
#######################################################################
#
#                 Cambridge Crystallographic Data Centre
#                                CCDC 
#
#######################################################################
#
# If this CIF has been generated from an entry in the Cambridge 
# Structural Database, then it will include bibliographic, chemical, 
# crystal, experimental, refinement or atomic coordinate data resulting 
# from the CCDC's data processing and validation procedures.
#
#######################################################################

data_OCUTEM
_symmetry_cell_setting           monoclinic
_symmetry_space_group_name_H-M   'C 2/c'
_symmetry_Int_Tables_number      15
_space_group_name_Hall           '-C 2yn'
loop_
_symmetry_equiv_pos_site_id
_symmetry_equiv_pos_as_xyz
1 x,y,z
2 1/2+x,1/2+y,z
3 -x,y,1/2-z
4 1/2-x,1/2+y,1/2-z
5 -x,-y,-z
6 1/2-x,1/2-y,-z
7 x,-y,1/2+z
8 1/2+x,1/2-y,1/2+z
_cell_length_a                   15.2768(8)
_cell_length_b                   10.2216(6)
_cell_length_c                   18.6279(10)
_cell_angle_alpha                90
_cell_angle_beta                 103.2520(10)
_cell_angle_gamma                90
_cell_volume                     2831.35
loop_
_atom_site_label
_atom_site_type_symbol
_atom_site_fract_x
_atom_site_fract_y
_atom_site_fract_z
V1 V 0.74870(4) 0.04535(6) 0.21455(3)
V2 V 0.83739(4) 0.11735(6) 0.41440(3)
P1 P 0.66366(6) 0.33190(9) 0.16526(5)
P2 P 0.28813(6) 0.37985(9) 0.07714(5)
O1 O 0.73201(18) 0.2215(3) 0.16855(15)
O2 O 0.29047(19) 0.5028(3) 0.12522(14)
O3 O 0.6739(2) 0.3995(3) 0.23989(15)
O4 O 0.6499(2) -0.0089(3) 0.20979(17)
O5 O 0.7907(2) 0.1422(3) 0.30808(17)
O6 O 0.67346(19) 0.4270(3) 0.10409(14)
O7 O 0.20484(18) 0.2982(3) 0.07682(15)
O8 O 0.29221(19) 0.4287(3) 0.00033(15)
O9 O 0.94393(19) 0.1390(3) 0.43602(17)
C1 C 0.5538(3) 0.2603(4) 0.1432(2)
H9 H 0.5493 0.2038 0.0993
H10 H 0.5477 0.2031 0.1847
C2 C 0.3856(3) 0.2809(4) 0.1117(2)
H11 H 0.3788 0.2378 0.1577
H12 H 0.3881 0.2113 0.0753
C3 C 0.4747(3) 0.3556(4) 0.1277(2)
H13 H 0.4778 0.4110 0.0847
H14 H 0.4781 0.4134 0.1708
H25 H 0.788(4) 0.200(7) 0.303(4)
V1A V 1.24870(4) -0.45465(6) 0.21455(3)
V1A_2 V 0.24870(4) 0.54535(6) 0.21455(3)
V1C V 0.75130(4) 0.54535(6) 0.28545(3)
V1B V 1.25130(4) 0.04535(6) 0.28545(3)
V2C V 0.66261(4) 0.61735(6) 0.08560(3)
V2B V 0.16261(4) 0.11735(6) 0.08560(3)
V2G V 0.33739(4) 0.38265(6) -0.08560(3)
V2B_2 V 1.16261(4) 0.11735(6) 0.08560(3)
V2C_2 V 0.66261(4) -0.38265(6) 0.08560(3)
V2F V 0.83739(4) -0.11735(6) -0.08560(3)
V2A V 1.33739(4) -0.38265(6) 0.41440(3)
P1A P 1.16366(6) -0.16810(9) 0.16526(5)
P2A P 0.78813(6) -0.12015(9) 0.07714(5)
O1A O 1.23201(18) -0.2785(3) 0.16855(15)
O2A O 0.79047(19) 0.0028(3) 0.12522(14)
O2_2 O 1.29047(19) -0.4972(3) 0.12522(14)
O3A O 1.1739(2) -0.1005(3) 0.23989(15)
O3C O 0.8261(2) -0.1005(3) 0.26011(15)
O3B O 1.3261(2) -0.6005(3) 0.26011(15)
O4A O 1.1499(2) -0.5089(3) 0.20979(17)
O5A O 1.2907(2) -0.3578(3) 0.30808(17)
O5C O 0.7093(2) 0.6422(3) 0.19192(17)
O6A O 1.17346(19) -0.0730(3) 0.10409(14)
O6C O 0.82654(19) -0.0730(3) 0.39591(14)
O7A O 0.70484(18) -0.2018(3) 0.07682(15)
O7B O 0.79516(18) 0.2982(3) 0.42318(15)
O7A_2 O 0.70484(18) 0.7982(3) 0.07682(15)
O8A O 0.79221(19) -0.0713(3) 0.00033(15)
O8G O 0.79221(19) 0.0713(3) 0.50033(15)
O8D O 0.70779(19) 0.5713(3) -0.00033(15)
O9C O 0.55607(19) 0.6390(3) 0.06398(17)
C1A C 1.0538(3) -0.2397(4) 0.1432(2)
H9A H 1.0493 -0.2962 0.0993
H10A H 1.0477 -0.2969 0.1847
C2A C 0.8856(3) -0.2191(4) 0.1117(2)
H11A H 0.8788 -0.2622 0.1577
H12A H 0.8881 -0.2887 0.0753
C3A C 0.9747(3) -0.1444(4) 0.1277(2)
H13A H 0.9778 -0.0890 0.0847
H14A H 0.9781 -0.0866 0.1708
H25A H 1.288(4) -0.300(7) 0.303(4)
H25C H 0.712(4) 0.700(7) 0.197(4)
N1 N 0.0000 0.1793(11) 0.2500
H1 H 0.0402 0.1275 0.2330
H2 H -0.0402 0.1275 0.2670
C4 C 0.0520(9) 0.2859(14) 0.3140(7)
H15 H 0.1008 0.3289 0.2957
H16 H 0.0084 0.3545 0.3197
C5 C 0.0927(7) 0.2273(11) 0.3905(5)
H17 H 0.1204 0.2971 0.4242
H18 H 0.1384 0.1623 0.3863
H19 H 0.0451 0.1852 0.4097
C4B C -0.0520(9) 0.2859(14) 0.1860(7)
H15B H -0.1008 0.3289 0.2043
H16B H -0.0084 0.3545 0.1803
C5B C -0.0927(7) 0.2273(11) 0.1095(5)
H17B H -0.1204 0.2971 0.0758
H18B H -0.1384 0.1623 0.1137
H19B H -0.0451 0.1852 0.0903
N2? N 0.0672(10) 0.4250(13) 0.4637(8)
H3? H 0.0178 0.3802 0.4696
H4? H 0.0524 0.4750 0.4222
H5? H 0.0873 0.4775 0.5035
N3? N 0.0867(11) 0.4069(15) 0.3918(9)
H6? H 0.1200 0.4139 0.3572
H7? H 0.0742 0.4882 0.4067
H8? H 0.0344 0.3644 0.3721
C6? C 0.1387(5) 0.3314(7) 0.4568(4)
H20? H 0.1528 0.3541 0.4090
H21? H 0.1916 0.3600 0.4949
C7? C 0.1434(8) 0.1945(9) 0.4593(5)
H22? H 0.1692 0.1662 0.5100
H23? H 0.1814 0.1637 0.4269
H24? H 0.0828 0.1579 0.4427
loop_
_geom_bond_atom_site_label_1
_geom_bond_atom_site_label_2
_geom_bond_site_symmetry_1
_geom_bond_site_symmetry_2
V1 O1 1_555 1_555
V2 O5 1_555 1_555
P1 O1 1_555 1_555
P2 O2 1_555 1_555
O2 V1A_2 1_555 1_555
O3 P1 1_555 1_555
O4 V1 1_555 1_555
O5 V1 1_555 1_555
O6 P1 1_555 1_555
O7 P2 1_555 1_555
O8 P2 1_555 1_555
O9 V2 1_555 1_555
N1 H1 1_555 1_555
H2 N1 1_555 1_555
C1 P1 1_555 1_555
H9 C1 1_555 1_555
H10 C1 1_555 1_555
C2 P2 1_555 1_555
H11 C2 1_555 1_555
H12 C2 1_555 1_555
C3 C1 1_555 1_555
H13 C3 1_555 1_555
H14 C3 1_555 1_555
C4 N1 1_555 1_555
H15 C4 1_555 1_555
H16 C4 1_555 1_555
C5 C4 1_555 1_555
H17 C5 1_555 1_555
H18 C5 1_555 1_555
H19 C5 1_555 1_555
H25 O5 1_555 1_555
V1A O1A 1_555 1_555
V1C O3 1_555 1_555
V1B O3A 1_555 1_555
V2C O6 1_555 1_555
V2B O7 1_555 1_555
V2G O8 1_555 1_555
V2B_2 O6A 1_555 1_555
V2C_2 O7A 1_555 1_555
V2F O8A 1_555 1_555
V2A O5A 1_555 1_555
P1A O1A 1_555 1_555
P2A O2A 1_555 1_555
O2A V1 1_555 1_555
O2_2 V1A 1_555 1_555
O3A P1A 1_555 1_555
O3C V1 1_555 1_555
O3B V1A 1_555 1_555
O4A V1A 1_555 1_555
O5A V1A 1_555 1_555
O5C V1C 1_555 1_555
O6A P1A 1_555 1_555
O6C V2 1_555 1_555
O7A P2A 1_555 1_555
O7B V2 1_555 1_555
O7A_2 V2C 1_555 1_555
O8A P2A 1_555 1_555
O8G V2 1_555 1_555
O8D V2C 1_555 1_555
O9C V2C 1_555 1_555
C1A P1A 1_555 1_555
H9A C1A 1_555 1_555
H10A C1A 1_555 1_555
C2A P2A 1_555 1_555
H11A C2A 1_555 1_555
H12A C2A 1_555 1_555
C3A C1A 1_555 1_555
H13A C3A 1_555 1_555
H14A C3A 1_555 1_555
C4B N1 1_555 1_555
H15B C4B 1_555 1_555
H16B C4B 1_555 1_555
C5B C4B 1_555 1_555
H17B C5B 1_555 1_555
H18B C5B 1_555 1_555
H19B C5B 1_555 1_555
H25A O5A 1_555 1_555
H25C O5C 1_555 1_555
C2 C3 1_555 1_555
V2C O5C 1_555 1_555
C2A C3A 1_555 1_555

#END
