
#######################################################################
#
#                 Cambridge Crystallographic Data Centre
#                                CCDC 
#
#######################################################################
#
# If this CIF has been generated from an entry in the Cambridge 
# Structural Database, then it will include bibliographic, chemical, 
# crystal, experimental, refinement or atomic coordinate data resulting 
# from the CCDC's data processing and validation procedures.
#
#######################################################################

data_ODODUI
_symmetry_cell_setting           monoclinic
_symmetry_space_group_name_H-M   'P 21/c'
_symmetry_Int_Tables_number      14
_space_group_name_Hall           '-P 2ybc'
loop_
_symmetry_equiv_pos_site_id
_symmetry_equiv_pos_as_xyz
1 x,y,z
2 -x,1/2+y,1/2-z
3 -x,-y,-z
4 x,1/2-y,1/2+z
_cell_length_a                   38.22(2)
_cell_length_b                   29.788(19)
_cell_length_c                   25.377(16)
_cell_angle_alpha                90
_cell_angle_beta                 99.005(8)
_cell_angle_gamma                90
_cell_volume                     28535.5
loop_
_atom_site_label
_atom_site_type_symbol
_atom_site_fract_x
_atom_site_fract_y
_atom_site_fract_z
Zn1 Zn 0.450049(15) 0.445127(17) 0.75668(2)
Zn2 Zn 0.521194(15) 0.392759(18) 0.74051(2)
Zn3 Zn 0.841248(19) 0.60239(2) 0.91065(3)
Zn4 Zn 0.840079(18) 0.54059(2) 1.01952(3)
Zn5 Zn 0.446954(15) 0.393535(18) 0.64905(2)
Zn6 Zn 0.451211(16) 0.344799(18) 0.75959(2)
Zn7 Zn 0.140418(19) 0.14935(2) 0.46960(3)
Zn8 Zn 0.16750(2) 0.63330(3) 0.52557(4)
Zn9 Zn 0.91676(2) 0.40719(3) 0.47150(4)
Si1 Si 0.61742(4) 0.61419(4) 0.93473(5)
Si2 Si 0.21946(4) 0.37708(6) 0.67181(7)
Si3 Si 0.92190(5) 0.34521(7) 0.80892(8)
Si4 Si 0.39302(4) 0.67376(5) 0.54746(6)
O1 O 0.46989(7) 0.39325(8) 0.72514(12)
O2 O 0.54358(8) 0.44880(10) 0.76794(13)
O3 O 0.49495(9) 0.47607(10) 0.79489(12)
O4 O 0.86313(9) 0.59453(11) 0.99111(13)
O5 O 0.56094(8) 0.56734(10) 1.17310(12)
O6 O 0.82097(15) 0.61573(17) 0.8232(2)
O7 O 0.57339(10) 0.64205(11) 1.18124(14)
O8 O 0.88651(15) 0.64146(17) 0.9044(2)
O9 O 0.55406(9) 0.82256(10) 0.85736(12)
O10 O 0.84475(15) 0.48264(17) 1.0650(2)
O11 O 0.57592(9) 0.79977(10) 0.78536(13)
O12 O 0.45953(15) 0.39288(17) 0.5753(2)
O13 O 0.78904(8) 0.54920(12) 0.99709(13)
O14 O 0.79263(9) 0.58215(15) 0.91735(15)
O15 O 0.16061(10) 0.42927(13) 0.90357(14)
O16 O 0.17581(10) 0.35841(14) 0.92046(17)
O17 O 0.39511(8) 0.39165(10) 0.65034(15)
O18 O 0.39544(9) 0.42167(14) 0.72820(15)
O19 O 0.18285(14) 0.16585(14) 0.57392(19)
O20 O 0.15133(11) 0.20561(12) 0.50609(15)
O21 O 0.11641(15) 0.54404(18) 0.5543(2)
O22 O 0.16660(16) 0.56915(18) 0.5433(2)
O23 O 0.85854(10) 0.54238(14) 0.89007(15)
O24 O 0.85253(11) 0.49905(13) 0.95957(17)
O25 O 0.85985(15) 0.35434(17) 0.54508(19)
O26 O 0.90823(14) 0.3900(2) 0.5436(2)
O27 O 0.90642(14) 0.14744(17) 0.9396(2)
O28 O 0.84950(14) 0.16720(17) 0.9177(2)
O29 O 1.09500(13) 0.34275(17) 0.9220(2)
O30 O 1.07512(12) 0.34423(16) 0.99331(18)
H1 H 1.0930 0.3595 1.0058
O31 O 0.44584(9) 0.46426(11) 0.63936(13)
O32 O 0.43766(10) 0.49825(10) 0.71438(15)
O33 O 0.21668(11) 0.64116(15) 0.5324(2)
O34 O 0.21446(11) 0.71087(15) 0.5056(2)
O35 O 0.50865(13) 0.80774(15) 0.70133(19)
O36 O 0.46303(9) 0.85132(13) 0.70109(15)
O37 O 0.40429(11) 0.63204(14) 0.28288(17)
H2 H 0.4127 0.6346 0.2544
O38 O 0.46130(12) 0.62733(14) 0.32286(18)
O39 O 0.96952(15) 0.41695(17) 0.4840(2)
C1 C 0.52728(15) 0.47527(17) 0.7957(2)
C2 C 0.55016(8) 0.51030(9) 0.82494(11)
C3 C 0.58685(8) 0.50644(9) 0.83397(12)
H3 H 0.5980 0.4825 0.8182
C4 C 0.60724(6) 0.53758(10) 0.86606(12)
H4 H 0.6323 0.5349 0.8722
C5 C 0.59093(8) 0.57258(9) 0.88912(11)
C6 C 0.55424(8) 0.57644(9) 0.88009(12)
H5 H 0.5431 0.6004 0.8959
C7 C 0.53385(6) 0.54530(10) 0.84800(12)
H6 H 0.5088 0.5479 0.8418
C8 C 0.57178(13) 0.60376(19) 1.1563(2)
C9 C 0.58613(8) 0.60494(11) 1.10455(10)
C10 C 0.57511(7) 0.57182(9) 1.06702(13)
H7 H 0.5609 0.5477 1.0758
C11 C 0.58492(8) 0.57407(9) 1.01661(11)
H8 H 0.5774 0.5514 0.9910
C12 C 0.60575(8) 0.60943(10) 1.00372(10)
C13 C 0.61678(8) 0.64255(9) 1.04125(13)
H9 H 0.6310 0.6667 1.0324
C14 C 0.60696(8) 0.64030(9) 1.09167(11)
H10 H 0.6145 0.6629 1.1173
C15 C 0.56913(15) 0.79651(17) 0.8323(2)
C16 C 0.58267(9) 0.75260(8) 0.85785(12)
C17 C 0.57808(9) 0.74411(9) 0.91019(12)
H11 H 0.5674 0.7661 0.9297
C18 C 0.58908(9) 0.70343(10) 0.93405(10)
H12 H 0.5859 0.6976 0.9698
C19 C 0.60468(9) 0.67124(8) 0.90556(12)
C20 C 0.60927(9) 0.67973(9) 0.85322(12)
H13 H 0.6199 0.6577 0.8337
C21 C 0.59826(9) 0.72041(10) 0.82936(10)
H14 H 0.6014 0.7262 0.7936
C22 C 0.77547(7) 0.56791(14) 0.95327(15)
C23 C 0.73697(6) 0.58120(10) 0.94623(13)
C24 C 0.72194(9) 0.61203(11) 0.90817(12)
H15 H 0.7361 0.6258 0.8851
C25 C 0.68620(9) 0.62272(10) 0.90389(12)
H16 H 0.6759 0.6438 0.8779
C26 C 0.66551(6) 0.60260(11) 0.93767(14)
C27 C 0.68054(9) 0.57178(11) 0.97572(13)
H17 H 0.6664 0.5580 0.9988
C28 C 0.71627(9) 0.56108(10) 0.98000(12)
H18 H 0.7266 0.5400 1.0060
C29 C 0.17326(16) 0.3921(3) 0.8911(3)
C30 C 0.18448(10) 0.38847(14) 0.84089(12)
C31 C 0.18057(9) 0.42501(10) 0.80641(16)
H19 H 0.1707 0.4522 0.8169
C32 C 0.19113(10) 0.42174(11) 0.75656(14)
H20 H 0.1885 0.4467 0.7330
C33 C 0.20561(10) 0.38192(14) 0.74121(12)
C34 C 0.20953(9) 0.34538(10) 0.77569(16)
H21 H 0.2194 0.3182 0.7652
C35 C 0.19896(9) 0.34865(11) 0.82554(14)
H22 H 0.2016 0.3237 0.8491
C36 C 0.37896(16) 0.4019(2) 0.6896(3)
C37 C 0.34187(7) 0.39522(13) 0.68545(16)
C38 C 0.32292(9) 0.37361(13) 0.64146(13)
H23 H 0.3348 0.3632 0.6136
C39 C 0.28663(9) 0.36715(13) 0.63831(13)
H24 H 0.2737 0.3524 0.6082
C40 C 0.26929(7) 0.38231(13) 0.67915(16)
C41 C 0.28824(9) 0.40393(13) 0.72314(13)
H25 H 0.2764 0.4143 0.7511
C42 C 0.32453(9) 0.41038(12) 0.72629(13)
H26 H 0.3375 0.4252 0.7564
C43 C 0.17079(17) 0.20216(11) 0.5514(2)
C44 C 0.18280(11) 0.24461(11) 0.58118(17)
C45 C 0.20190(11) 0.24293(10) 0.63248(17)
H27 H 0.2075 0.2148 0.6492
C46 C 0.21278(10) 0.28246(14) 0.65923(13)
H28 H 0.2258 0.2813 0.6943
C47 C 0.20456(10) 0.32367(11) 0.63469(16)
C48 C 0.18547(11) 0.32535(11) 0.58340(16)
H29 H 0.1799 0.3535 0.5666
C49 C 0.17459(10) 0.28582(15) 0.55664(12)
H30 H 0.1615 0.2870 0.5216
C50 C 0.1473(3) 0.5378(4) 0.5600(5)
C51 C 0.1647(2) 0.49839(19) 0.57991(17)
C52 C 0.20141(19) 0.49440(18) 0.58838(19)
H31 H 0.2156 0.5173 0.5764
C53 C 0.21740(10) 0.4569(2) 0.6144(2)
H32 H 0.2425 0.4542 0.6202
C54 C 0.1967(2) 0.42339(16) 0.63202(17)
C55 C 0.16001(19) 0.4274(2) 0.6236(2)
H33 H 0.1459 0.4045 0.6356
C56 C 0.14403(10) 0.4649(3) 0.5975(2)
H34 H 0.1190 0.4676 0.5917
C57 C 0.85669(18) 0.5052(3) 0.9141(3)
C58 C 0.87081(10) 0.46454(13) 0.88675(17)
C59 C 0.88093(10) 0.46894(11) 0.83673(17)
H35 H 0.8793 0.4973 0.8194
C60 C 0.89347(10) 0.43188(16) 0.81213(12)
H36 H 0.9004 0.4349 0.7779
C61 C 0.89589(10) 0.39041(12) 0.83754(17)
C62 C 0.88576(10) 0.38600(11) 0.88757(17)
H37 H 0.8874 0.3577 0.9049
C63 C 0.87322(10) 0.42306(16) 0.91217(12)
H38 H 0.8663 0.4201 0.9464
C64 C 0.8894(3) 0.3688(4) 0.5694(4)
C65 C 0.89765(16) 0.36058(18) 0.62451(16)
C66 C 0.92772(13) 0.37992(15) 0.6536(2)
H39 H 0.9433 0.3971 0.6359
C67 C 0.93497(11) 0.37419(16) 0.7086(2)
H40 H 0.9555 0.3874 0.7284
C68 C 0.91213(16) 0.34912(18) 0.73449(16)
C69 C 0.88206(13) 0.32977(15) 0.7054(2)
H41 H 0.8665 0.3126 0.7231
C70 C 0.87481(11) 0.33550(16) 0.6504(2)
H42 H 0.8543 0.3223 0.6306
C71 C 0.8822(3) 0.1722(2) 0.9151(3)
C72 C 0.88942(17) 0.21230(15) 0.88207(19)
C73 C 0.86318(10) 0.2429(2) 0.8621(2)
H43 H 0.8391 0.2368 0.8649
C74 C 0.87212(14) 0.28226(17) 0.83805(19)
H44 H 0.8542 0.3031 0.8244
C75 C 0.90730(17) 0.29109(15) 0.83394(19)
C76 C 0.93354(10) 0.2605(2) 0.8539(2)
H45 H 0.9576 0.2666 0.8511
C77 C 0.92460(14) 0.22114(17) 0.87796(19)
H46 H 0.9425 0.2003 0.8916
C78 C 1.06740(12) 0.3514(3) 0.94282(18)
C79 C 1.03576(11) 0.34960(17) 0.8990(2)
C80 C 1.00701(17) 0.36608(16) 0.92049(16)
H47 H 1.0102 0.3768 0.9562
C81 C 0.97356(13) 0.36689(16) 0.8897(2)
H48 H 0.9539 0.3782 0.9044
C82 C 0.96887(10) 0.35123(17) 0.8375(2)
C83 C 0.99762(16) 0.33475(16) 0.81604(16)
H49 H 0.9944 0.3240 0.7803
C84 C 1.03107(12) 0.33394(15) 0.8468(2)
H50 H 1.0507 0.3227 0.8322
C85 C 0.43887(15) 0.49637(18) 0.6622(2)
C86 C 0.42742(9) 0.53988(8) 0.63584(13)
C87 C 0.42419(9) 0.54179(9) 0.58056(13)
H51 H 0.4286 0.5158 0.5610
C88 C 0.41457(9) 0.58179(11) 0.55397(10)
H52 H 0.4124 0.5831 0.5162
C89 C 0.40819(9) 0.61987(8) 0.58266(13)
C90 C 0.41142(9) 0.61796(9) 0.63794(13)
H53 H 0.4071 0.6440 0.6575
C91 C 0.42103(9) 0.57796(11) 0.66453(10)
H54 H 0.4232 0.5767 0.7023
C92 C 0.2300(2) 0.6751(3) 0.5205(3)
C93 C 0.27020(8) 0.67830(17) 0.52834(19)
C94 C 0.28870(12) 0.64056(13) 0.54947(19)
H55 H 0.2762 0.6152 0.5595
C95 C 0.32548(12) 0.63997(13) 0.55595(18)
H56 H 0.3381 0.6142 0.5704
C96 C 0.34378(8) 0.67710(17) 0.54129(19)
C97 C 0.32528(12) 0.71483(13) 0.52015(19)
H57 H 0.3378 0.7402 0.5101
C98 C 0.28849(12) 0.71543(13) 0.51367(18)
H58 H 0.2758 0.7412 0.4992
C99 C 0.4762(2) 0.8171(3) 0.6873(3)
C100 C 0.45716(13) 0.78373(14) 0.64991(16)
C101 C 0.42123(13) 0.79064(12) 0.63265(18)
H59 H 0.4102 0.8175 0.6419
C102 C 0.40137(9) 0.75823(17) 0.60188(18)
H60 H 0.3768 0.7630 0.5901
C103 C 0.41745(13) 0.71892(14) 0.58837(16)
C104 C 0.45338(13) 0.71201(12) 0.60564(18)
H61 H 0.4644 0.6851 0.5964
C105 C 0.47324(9) 0.74442(17) 0.63641(18)
H62 H 0.4978 0.7397 0.6482
C106 C 0.42910(13) 0.6383(2) 0.32294(14)
C107 C 0.42412(15) 0.64664(14) 0.37996(15)
C108 C 0.45122(10) 0.65188(14) 0.4229(2)
H63 H 0.4752 0.6476 0.4182
C109 C 0.44328(12) 0.66334(14) 0.47281(17)
H64 H 0.4618 0.6669 0.5022
C110 C 0.40824(15) 0.66955(14) 0.47975(15)
C111 C 0.38115(10) 0.66431(13) 0.4368(2)
H65 H 0.3572 0.6686 0.4415
C112 C 0.38908(12) 0.65286(14) 0.38689(17)
H66 H 0.3706 0.6493 0.3575
Zn1B Zn 0.549951(15) 0.554873(17) 1.24332(2)
Zn2A Zn 0.478806(15) 0.892759(18) 0.75949(2)
Zn2B Zn 0.478806(15) 0.607241(18) 0.25949(2)
Zn3A Zn 0.158752(19) 0.10239(2) 0.58935(3)
Zn4B Zn 0.159921(18) 0.45941(2) 0.98048(3)
Zn5A Zn 0.553046(15) 0.893535(18) 0.85095(2)
Zn6A Zn 0.548789(16) 0.844799(18) 0.74041(2)
Zn6B Zn 0.548789(16) 0.655201(18) 1.24041(2)
Zn7A Zn 0.859582(19) 0.64935(2) 1.03040(3)
Zn7C Zn 0.140418(19) 0.35065(2) 0.96960(3)
Zn7C_2 Zn 1.140418(19) 0.35065(2) 0.96960(3)
Zn8A Zn 0.83250(2) 0.13330(3) 0.97443(4)
Zn8B Zn 0.83250(2) 0.36670(3) 0.47443(4)
Zn9B Zn 0.08324(2) 0.59281(3) 0.52850(4)
Zn9C Zn 0.91676(2) 0.09281(3) 0.97150(4)
O4A O 0.13687(9) 0.09453(11) 0.50889(13)
O5B O 0.43906(8) 0.43266(10) 0.82690(12)
O7B O 0.42661(10) 0.35795(11) 0.81876(14)
O9A O 0.44594(9) 0.32256(10) 0.64264(12)
O11A O 0.42408(9) 0.29977(10) 0.71464(13)
O15B O 0.83939(10) 0.57073(13) 1.09643(14)
O16C O 0.17581(10) 0.14159(14) 0.42046(17)
O19A O 0.81715(14) 0.66585(14) 0.92608(19)
O21B O 0.88359(15) 0.45596(18) 0.4457(2)
O25B O 0.14015(15) 0.64566(17) 0.45492(19)
O27C O 0.90642(14) 0.35256(17) 0.4396(2)
O28A O 0.15050(14) 0.66720(17) 0.5823(2)
O29C O 0.09500(13) 0.15725(17) 0.4220(2)
O35A O 0.49135(13) 0.30774(15) 0.79867(19)
O36A O 0.53697(9) 0.35132(13) 0.79891(15)
O38B O 0.53870(12) 0.37267(14) 0.67714(18)
loop_
_geom_bond_atom_site_label_1
_geom_bond_atom_site_label_2
_geom_bond_site_symmetry_1
_geom_bond_site_symmetry_2
Zn1 O1 1_555 1_555
Zn2 O1 1_555 1_555
Zn3 O4 1_555 1_555
Zn4 O4 1_555 1_555
Zn5 O1 1_555 1_555
Zn6 O1 1_555 1_555
Zn7 O20 1_555 1_555
Zn8 O22 1_555 1_555
Zn9 O26 1_555 1_555
Si1 C5 1_555 1_555
Si2 C33 1_555 1_555
Si3 C61 1_555 1_555
Si4 C89 1_555 1_555
O2 Zn2 1_555 1_555
O3 Zn1 1_555 1_555
O4 Zn7A 1_555 1_555
O5 C8 1_555 1_555
O6 Zn3 1_555 1_555
O7 C8 1_555 1_555
O8 Zn3 1_555 1_555
O9 C15 1_555 1_555
O10 Zn4 1_555 1_555
O11 C15 1_555 1_555
O12 Zn5 1_555 1_555
O13 Zn4 1_555 1_555
O14 Zn3 1_555 1_555
O15 C29 1_555 1_555
O16 C29 1_555 1_555
O17 Zn5 1_555 1_555
O18 Zn1 1_555 1_555
O19 C43 1_555 1_555
O20 C43 1_555 1_555
O21 C50 1_555 1_555
O22 C50 1_555 1_555
O23 Zn3 1_555 1_555
O24 Zn4 1_555 1_555
O25 C64 1_555 1_555
O26 C64 1_555 1_555
O27 C71 1_555 1_555
O28 C71 1_555 1_555
O29 C78 1_555 1_555
O30 H1 1_555 1_555
O31 Zn5 1_555 1_555
O32 Zn1 1_555 1_555
O33 Zn8 1_555 1_555
O34 C92 1_555 1_555
O35 C99 1_555 1_555
O36 C99 1_555 1_555
O37 H2 1_555 1_555
O38 C106 1_555 1_555
O39 Zn9 1_555 1_555
C1 O2 1_555 1_555
C2 C1 1_555 1_555
C3 C2 1_555 1_555
H3 C3 1_555 1_555
C4 C3 1_555 1_555
H4 C4 1_555 1_555
C5 C4 1_555 1_555
C6 C5 1_555 1_555
H5 C6 1_555 1_555
C7 C2 1_555 1_555
H6 C7 1_555 1_555
C8 C9 1_555 1_555
C9 C10 1_555 1_555
C10 H7 1_555 1_555
C11 C10 1_555 1_555
H8 C11 1_555 1_555
C12 Si1 1_555 1_555
C13 C12 1_555 1_555
H9 C13 1_555 1_555
C14 C9 1_555 1_555
H10 C14 1_555 1_555
C15 C16 1_555 1_555
C16 C17 1_555 1_555
C17 H11 1_555 1_555
C18 C17 1_555 1_555
H12 C18 1_555 1_555
C19 Si1 1_555 1_555
C20 C19 1_555 1_555
H13 C20 1_555 1_555
C21 C16 1_555 1_555
H14 C21 1_555 1_555
C22 O13 1_555 1_555
C23 C22 1_555 1_555
C24 C23 1_555 1_555
H15 C24 1_555 1_555
C25 C24 1_555 1_555
H16 C25 1_555 1_555
C26 Si1 1_555 1_555
C27 C26 1_555 1_555
H17 C27 1_555 1_555
C28 C23 1_555 1_555
H18 C28 1_555 1_555
C29 C30 1_555 1_555
C30 C31 1_555 1_555
C31 H19 1_555 1_555
C32 C31 1_555 1_555
H20 C32 1_555 1_555
C33 C32 1_555 1_555
C34 C33 1_555 1_555
H21 C34 1_555 1_555
C35 C30 1_555 1_555
H22 C35 1_555 1_555
C36 O17 1_555 1_555
C37 C36 1_555 1_555
C38 C37 1_555 1_555
H23 C38 1_555 1_555
C39 C38 1_555 1_555
H24 C39 1_555 1_555
C40 Si2 1_555 1_555
C41 C40 1_555 1_555
H25 C41 1_555 1_555
C42 C37 1_555 1_555
H26 C42 1_555 1_555
C43 C44 1_555 1_555
C44 C45 1_555 1_555
C45 H27 1_555 1_555
C46 C45 1_555 1_555
H28 C46 1_555 1_555
C47 Si2 1_555 1_555
C48 C47 1_555 1_555
H29 C48 1_555 1_555
C49 C44 1_555 1_555
H30 C49 1_555 1_555
C50 C51 1_555 1_555
C51 C52 1_555 1_555
C52 H31 1_555 1_555
C53 C52 1_555 1_555
H32 C53 1_555 1_555
C54 Si2 1_555 1_555
C55 C54 1_555 1_555
H33 C55 1_555 1_555
C56 C51 1_555 1_555
H34 C56 1_555 1_555
C57 O23 1_555 1_555
C58 C57 1_555 1_555
C59 C58 1_555 1_555
H35 C59 1_555 1_555
C60 C59 1_555 1_555
H36 C60 1_555 1_555
C61 C60 1_555 1_555
C62 C61 1_555 1_555
H37 C62 1_555 1_555
C63 C58 1_555 1_555
H38 C63 1_555 1_555
C64 C65 1_555 1_555
C65 C66 1_555 1_555
C66 H39 1_555 1_555
C67 C66 1_555 1_555
H40 C67 1_555 1_555
C68 Si3 1_555 1_555
C69 C68 1_555 1_555
H41 C69 1_555 1_555
C70 C65 1_555 1_555
H42 C70 1_555 1_555
C71 C72 1_555 1_555
C72 C73 1_555 1_555
C73 H43 1_555 1_555
C74 C73 1_555 1_555
H44 C74 1_555 1_555
C75 Si3 1_555 1_555
C76 C75 1_555 1_555
H45 C76 1_555 1_555
C77 C72 1_555 1_555
H46 C77 1_555 1_555
C78 O30 1_555 1_555
C79 C78 1_555 1_555
C80 C79 1_555 1_555
H47 C80 1_555 1_555
C81 C80 1_555 1_555
H48 C81 1_555 1_555
C82 Si3 1_555 1_555
C83 C82 1_555 1_555
H49 C83 1_555 1_555
C84 C79 1_555 1_555
H50 C84 1_555 1_555
C85 O31 1_555 1_555
C86 C85 1_555 1_555
C87 C86 1_555 1_555
H51 C87 1_555 1_555
C88 C87 1_555 1_555
H52 C88 1_555 1_555
C89 C88 1_555 1_555
C90 C89 1_555 1_555
H53 C90 1_555 1_555
C91 C86 1_555 1_555
H54 C91 1_555 1_555
C92 O33 1_555 1_555
C93 C92 1_555 1_555
C94 C93 1_555 1_555
H55 C94 1_555 1_555
C95 C94 1_555 1_555
H56 C95 1_555 1_555
C96 Si4 1_555 1_555
C97 C96 1_555 1_555
H57 C97 1_555 1_555
C98 C93 1_555 1_555
H58 C98 1_555 1_555
C99 C100 1_555 1_555
C100 C101 1_555 1_555
C101 H59 1_555 1_555
C102 C101 1_555 1_555
H60 C102 1_555 1_555
C103 Si4 1_555 1_555
C104 C103 1_555 1_555
H61 C104 1_555 1_555
C105 C100 1_555 1_555
H62 C105 1_555 1_555
C106 O37 1_555 1_555
C107 C106 1_555 1_555
C108 C107 1_555 1_555
H63 C108 1_555 1_555
C109 C108 1_555 1_555
H64 C109 1_555 1_555
C110 Si4 1_555 1_555
C111 C110 1_555 1_555
H65 C111 1_555 1_555
C112 C107 1_555 1_555
H66 C112 1_555 1_555
Zn1B O5 1_555 1_555
Zn2A O36 1_555 1_555
Zn2B O38 1_555 1_555
Zn3A O19 1_555 1_555
Zn4B O15 1_555 1_555
Zn5A O9 1_555 1_555
Zn6A O11 1_555 1_555
Zn6B O7 1_555 1_555
Zn7C O16 1_555 1_555
Zn7C_2 O29 1_555 1_555
Zn8A O28 1_555 1_555
Zn8B O25 1_555 1_555
Zn9B O21 1_555 1_555
Zn9C O27 1_555 1_555
O4A Zn7 1_555 1_555
O5B Zn1 1_555 1_555
O7B Zn6 1_555 1_555
O9A Zn5 1_555 1_555
O11A Zn6 1_555 1_555
O15B Zn4 1_555 1_555
O16C Zn7 1_555 1_555
O19A Zn3 1_555 1_555
O21B Zn9 1_555 1_555
O25B Zn8 1_555 1_555
O27C Zn9 1_555 1_555
O28A Zn8 1_555 1_555
O29C Zn7 1_555 1_555
O35A Zn6 1_555 1_555
O36A Zn2 1_555 1_555
O38B Zn2 1_555 1_555
O3 C1 1_555 1_555
O14 C22 1_555 1_555
O18 C36 1_555 1_555
O24 C57 1_555 1_555
O32 C85 1_555 1_555
O35 Zn6A 1_555 1_555
C6 C7 1_555 1_555
C11 C12 1_555 1_555
C13 C14 1_555 1_555
C18 C19 1_555 1_555
C20 C21 1_555 1_555
C25 C26 1_555 1_555
C27 C28 1_555 1_555
C34 C35 1_555 1_555
C39 C40 1_555 1_555
C41 C42 1_555 1_555
C46 C47 1_555 1_555
C48 C49 1_555 1_555
C53 C54 1_555 1_555
C55 C56 1_555 1_555
C62 C63 1_555 1_555
C67 C68 1_555 1_555
C69 C70 1_555 1_555
C74 C75 1_555 1_555
C76 C77 1_555 1_555
C81 C82 1_555 1_555
C83 C84 1_555 1_555
C90 C91 1_555 1_555
C95 C96 1_555 1_555
C97 C98 1_555 1_555
C102 C103 1_555 1_555
C104 C105 1_555 1_555
C109 C110 1_555 1_555
C111 C112 1_555 1_555
Zn3A O4A 1_555 1_555

#END
