
#######################################################################
#
#                 Cambridge Crystallographic Data Centre
#                                CCDC 
#
#######################################################################
#
# If this CIF has been generated from an entry in the Cambridge 
# Structural Database, then it will include bibliographic, chemical, 
# crystal, experimental, refinement or atomic coordinate data resulting 
# from the CCDC's data processing and validation procedures.
#
#######################################################################

data_ODOXEK
_symmetry_cell_setting           trigonal
_symmetry_space_group_name_H-M   'P 3 1 c'
_symmetry_Int_Tables_number      159
_space_group_name_Hall           "P 3 -2'c"
loop_
_symmetry_equiv_pos_site_id
_symmetry_equiv_pos_as_xyz
1 x,y,z
2 -y,x-y,z
3 -x+y,-x,z
4 y,x,1/2+z
5 x-y,-y,1/2+z
6 -x,-x+y,1/2+z
_cell_length_a                   15.7547(3)
_cell_length_b                   15.7547(3)
_cell_length_c                   7.93160(10)
_cell_angle_alpha                90
_cell_angle_beta                 90
_cell_angle_gamma                120
_cell_volume                     1704.95
loop_
_atom_site_label
_atom_site_type_symbol
_atom_site_fract_x
_atom_site_fract_y
_atom_site_fract_z
Cd1 Cd 0.37406(3) 0.31546(3) 0.01218(7)
C1 C 0.3201(5) 0.0432(4) 0.1862(9)
C2 C 0.3892(5) 0.0290(5) 0.2745(9)
H1 H 0.4484 0.0832 0.3060
C3 C 0.3709(5) -0.0635(4) 0.3154(9)
C4 C 0.3385(6) 0.1421(5) 0.1378(9)
C5 C 0.1179(5) -0.2187(4) 0.1275(9)
C6 C 0.4468(5) -0.0789(5) 0.3992(9)
O1 O 0.2692(4) 0.1493(4) 0.0741(8)
O2 O 0.4229(4) 0.2159(3) 0.1556(7)
O3 O 0.0707(3) -0.2920(3) 0.2251(6)
O4 O 0.0867(3) -0.2187(4) -0.0168(7)
O5 O 0.5252(3) -0.0035(3) 0.4514(6)
O6 O 0.4349(4) -0.1631(4) 0.4163(8)
C7 C 0.2812(4) -0.1440(5) 0.2722(9)
H2 H 0.2673 -0.2065 0.3040
C8 C 0.2115(5) -0.1323(5) 0.1814(9)
C9 C 0.2321(5) -0.0396(5) 0.1393(9)
H3 H 0.1863 -0.0315 0.0780
C1A C -0.0432(4) 0.2769(6) 0.1862(9)
C2A C -0.0290(5) 0.3602(7) 0.2745(9)
H1A H -0.0832 0.3652 0.3060
C3A C 0.0635(4) 0.4344(6) 0.3154(9)
C4A C -0.1421(5) 0.1964(8) 0.1378(9)
C5A C 0.2187(4) 0.3366(6) 0.1275(9)
C6A C 0.0789(5) 0.5257(7) 0.3992(9)
O1A O -0.1493(4) 0.1199(6) 0.0741(8)
O2A O -0.2159(3) 0.2070(5) 0.1556(7)
O3A O 0.2920(3) 0.3627(4) 0.2251(6)
O4A O 0.2187(4) 0.3054(5) -0.0168(7)
O5A O 0.0035(3) 0.5287(4) 0.4514(6)
O6A O 0.1631(4) 0.5980(6) 0.4163(8)
C7A C 0.1440(5) 0.4252(6) 0.2722(9)
H2A H 0.2065 0.4738 0.3040
C8A C 0.1323(5) 0.3438(7) 0.1814(9)
C9A C 0.0396(5) 0.2717(7) 0.1393(9)
H3A H 0.0315 0.2178 0.0780
C1D C 0.2769(6) -0.0432(4) -0.3138(9)
C2D C 0.3602(7) -0.0290(5) -0.2255(9)
H1D H 0.3652 -0.0832 -0.1940
C3D C 0.4344(6) 0.0635(4) -0.1846(9)
C4D C 0.1964(8) -0.1421(5) -0.3622(9)
C5D C 0.3366(6) 0.2187(4) -0.3725(9)
C6D C 0.5257(7) 0.0789(5) -0.1008(9)
O1D O 0.1199(6) -0.1493(4) -0.4259(8)
O2D O 0.2070(5) -0.2159(3) -0.3444(7)
O3D O 0.3627(4) 0.2920(3) -0.2749(6)
O4D O 0.3054(5) 0.2187(4) -0.5168(7)
O5D O 0.5287(4) 0.0035(3) -0.0486(6)
O6D O 0.5980(6) 0.1631(4) -0.0837(8)
C7D C 0.4252(6) 0.1440(5) -0.2278(9)
H2D H 0.4738 0.2065 -0.1960
C8D C 0.3438(7) 0.1323(5) -0.3186(9)
C9D C 0.2717(7) 0.0396(5) -0.3607(9)
H3D H 0.2178 0.0315 -0.4220
Cd1A Cd -0.31546(3) 0.05860(4) 0.01218(7)
Cd1D Cd 0.05860(4) -0.31546(3) -0.48782(7)
O5E O 0.4748(3) 0.4713(4) -0.0486(6)
Cd1B Cd -0.05860(4) -0.37406(3) 0.01218(7)
Cd1D_2 Cd 0.05860(4) -0.31546(3) 0.51218(7)
Cd1E Cd 0.62594(3) -0.05860(4) 0.51218(7)
Cd1C Cd 0.31546(3) 0.37406(3) 0.51218(7)
Cd1D_3 Cd 0.05860(4) 0.68454(3) 0.51218(7)
Cd1C_2 Cd 0.31546(3) 0.37406(3) -0.48782(7)
Cd1A_2 Cd 0.68454(3) 0.05860(4) 0.01218(7)
O3B O -0.3627(4) -0.0707(3) 0.2251(6)
O3C O -0.2920(3) 0.0707(3) -0.2749(6)
O4B O -0.3054(5) -0.0867(3) -0.0168(7)
O5D_2 O -0.4713(4) 0.0035(3) -0.0486(6)
O3_2 O 0.0707(3) -0.2920(3) -0.7749(6)
O3E O -0.0707(3) -0.3627(4) -0.2749(6)
O4E O -0.0867(3) -0.3054(5) -0.5168(7)
O5A_2 O 0.0035(3) -0.4713(4) -0.5486(6)
O7 O 0.3455(5) 0.5434(4) -0.0841(9)
O8 O 0.6667 0.3333 0.1341(15)
O9 O 0.1027(6) 0.1097(6) -0.1782(15)
O10 O 0.6667 0.3333 -0.3369(18)
loop_
_geom_bond_atom_site_label_1
_geom_bond_atom_site_label_2
_geom_bond_site_symmetry_1
_geom_bond_site_symmetry_2
Cd1 O1 1_555 1_555
C1 C2 1_555 1_555
C2 H1 1_555 1_555
C3 C2 1_555 1_555
C4 C1 1_555 1_555
C5 O3 1_555 1_555
C6 C3 1_555 1_555
O1 C4 1_555 1_555
O2 Cd1 1_555 1_555
O3 Cd1B 1_555 1_555
O4 C5 1_555 1_555
O5 C6 1_555 1_555
O6 C6 1_555 1_555
C7 C3 1_555 1_555
H2 C7 1_555 1_555
C8 C5 1_555 1_555
C9 C1 1_555 1_555
H3 C9 1_555 1_555
C1A C2A 1_555 1_555
C2A H1A 1_555 1_555
C3A C2A 1_555 1_555
C4A C1A 1_555 1_555
C5A O3A 1_555 1_555
C6A C3A 1_555 1_555
O1A C4A 1_555 1_555
O2A C4A 1_555 1_555
O3A Cd1 1_555 1_555
O4A Cd1 1_555 1_555
O5A C6A 1_555 1_555
O6A C6A 1_555 1_555
C7A C3A 1_555 1_555
H2A C7A 1_555 1_555
C8A C5A 1_555 1_555
C9A C1A 1_555 1_555
H3A C9A 1_555 1_555
C1D C2D 1_555 1_555
C2D H1D 1_555 1_555
C3D C2D 1_555 1_555
C4D C1D 1_555 1_555
C5D O3D 1_555 1_555
C6D C3D 1_555 1_555
O1D C4D 1_555 1_555
O2D C4D 1_555 1_555
O3D Cd1 1_555 1_555
O4D C5D 1_555 1_555
O5D C6D 1_555 1_555
O6D C6D 1_555 1_555
C7D C3D 1_555 1_555
H2D C7D 1_555 1_555
C8D C5D 1_555 1_555
C9D C1D 1_555 1_555
H3D C9D 1_555 1_555
Cd1A O1A 1_555 1_555
Cd1D O1D 1_555 1_555
O5E Cd1 1_555 1_555
Cd1B O4 1_555 1_555
Cd1D_2 O3 1_555 1_555
Cd1E O5 1_555 1_555
Cd1C O3A 1_555 1_555
Cd1D_3 O5A 1_555 1_555
Cd1C_2 O3D 1_555 1_555
Cd1A_2 O5D 1_555 1_555
O3B Cd1A 1_555 1_555
O3C Cd1A 1_555 1_555
O4B Cd1A 1_555 1_555
O5D_2 Cd1A 1_555 1_555
O3_2 Cd1D 1_555 1_555
O3E Cd1D 1_555 1_555
O4E Cd1D 1_555 1_555
O5A_2 Cd1D 1_555 1_555
C4 O2 1_555 1_555
C7 C8 1_555 1_555
C8 C9 1_555 1_555
C5A O4A 1_555 1_555
O2A Cd1A 1_555 1_555
C7A C8A 1_555 1_555
C8A C9A 1_555 1_555
O2D Cd1D 1_555 1_555
O4D Cd1C_2 1_555 1_555
C7D C8D 1_555 1_555
C8D C9D 1_555 1_555
Cd1B O3E 1_555 1_555

#END
