
#######################################################################
#
#                 Cambridge Crystallographic Data Centre
#                                CCDC 
#
#######################################################################
#
# If this CIF has been generated from an entry in the Cambridge 
# Structural Database, then it will include bibliographic, chemical, 
# crystal, experimental, refinement or atomic coordinate data resulting 
# from the CCDC's data processing and validation procedures.
#
#######################################################################

data_ODUNEH
_symmetry_cell_setting           monoclinic
_symmetry_space_group_name_H-M   'C 2/c'
_symmetry_Int_Tables_number      15
_space_group_name_Hall           '-C 2yn'
loop_
_symmetry_equiv_pos_site_id
_symmetry_equiv_pos_as_xyz
1 x,y,z
2 1/2+x,1/2+y,z
3 -x,y,1/2-z
4 1/2-x,1/2+y,1/2-z
5 -x,-y,-z
6 1/2-x,1/2-y,-z
7 x,-y,1/2+z
8 1/2+x,1/2-y,1/2+z
_cell_length_a                   12.829(3)
_cell_length_b                   40.672(8)
_cell_length_c                   18.528(4)
_cell_angle_alpha                90
_cell_angle_beta                 109.99(3)
_cell_angle_gamma                90
_cell_volume                     9085.11
loop_
_atom_site_label
_atom_site_type_symbol
_atom_site_fract_x
_atom_site_fract_y
_atom_site_fract_z
O12 O 0.5630(10) 0.2040(3) 0.4105(7)
O13 O 0.8173(9) 0.1163(3) 0.3011(7)
Zn1 Zn 1.0000 0.097209(18) 0.7500
Zn2 Zn 2.07571(4) -0.095910(13) 1.09377(3)
Zn3 Zn 1.89601(4) -0.151470(12) 1.10360(3)
N1 N 2.1063(4) -0.03411(12) 0.9201(3)
O1 O 1.9146(2) -0.07816(7) 1.04300(17)
O2 O 1.7930(2) -0.11942(7) 1.03677(17)
O3 O 2.0562(3) -0.13526(8) 1.01550(18)
O4 O 1.9639(3) -0.17746(8) 1.04078(19)
O5 O 1.1348(2) 0.07150(8) 0.79068(17)
O6 O 1.1243(2) 0.05545(7) 0.67323(16)
O7 O 2.3007(4) -0.30901(10) 0.6203(2)
O8 O 2.3361(4) -0.34354(12) 0.7064(3)
O9 O 1.0261(2) 0.12454(7) 0.66875(15)
O10 O 2.2376(3) -0.11310(11) 1.1456(3)
O11 O 2.1290(3) -0.06855(8) 1.01857(18)
C1 C 1.8171(4) -0.09090(11) 1.0227(2)
C2 C 1.7241(3) -0.06964(11) 0.9764(2)
C3 C 1.7412(3) -0.03600(11) 0.9672(2)
H1 H 1.8123 -0.0273 0.9877
C4 C 1.6529(3) -0.01558(12) 0.9277(3)
H2 H 1.6642 0.0069 0.9245
C5 C 1.5468(4) -0.02900(13) 0.8929(2)
C6 C 1.5307(4) -0.06310(13) 0.9007(3)
H3 H 1.4605 -0.0721 0.8773
C7 C 1.6160(4) -0.08315(13) 0.9420(3)
H4 H 1.6035 -0.1054 0.9474
C8 C 1.4498(4) -0.00732(12) 0.8538(2)
C9 C 1.4282(4) 0.02178(14) 0.8908(3)
H5 H 1.4769 0.0281 0.9388
C10 C 1.3372(4) 0.03973(13) 0.8554(3)
H6 H 1.3213 0.0575 0.8814
C11 C 1.2643(3) 0.03273(12) 0.7800(2)
C12 C 1.2858(4) 0.00628(12) 0.7438(2)
H7 H 1.2398 0.0017 0.6939
C13 C 1.3755(4) -0.01443(13) 0.7794(3)
H8 H 1.3864 -0.0331 0.7538
C14 C 1.1668(3) 0.05496(10) 0.7435(3)
C15 C 2.0282(4) -0.16490(12) 1.0104(3)
C16 C 2.0634(4) -0.18666(12) 0.9613(3)
C17 C 2.1279(6) -0.17523(18) 0.9182(4)
H9 H 2.1471 -0.1531 0.9201
C18 C 2.1641(6) -0.19732(19) 0.8716(4)
H10 H 2.2033 -0.1890 0.8417
C19 C 2.1429(4) -0.23046(12) 0.8695(3)
C20 C 2.0895(5) -0.24048(16) 0.9158(4)
H11 H 2.0810 -0.2629 0.9219
C21 C 2.0461(5) -0.21828(15) 0.9556(4)
H12 H 2.0004 -0.2269 0.9805
C22 C 2.1846(5) -0.25039(12) 0.8235(3)
C23 C 2.1751(6) -0.24301(18) 0.7479(4)
H13 H 2.1434 -0.2230 0.7275
C24 C 2.2120(5) -0.26474(15) 0.6996(4)
H14 H 2.2003 -0.2594 0.6486
C25 C 2.2634(4) -0.29265(13) 0.7302(3)
C26 C 2.2686(6) -0.3029(2) 0.8033(5)
H15 H 2.2946 -0.3236 0.8220
C27 C 2.2309(6) -0.2793(2) 0.8497(4)
H16 H 2.2401 -0.2849 0.9002
C28 C 2.3026(5) -0.31573(13) 0.6826(4)
C29 C 2.0789(4) -0.04888(14) 0.9786(3)
H17 H 2.0139 -0.0420 0.9855
C30 C 2.2084(5) -0.04324(18) 0.9037(4)
H18 H 2.2478 -0.0600 0.9389
H19 H 2.1882 -0.0514 0.8521
H20 H 2.2549 -0.0242 0.9094
C31 C 2.0333(7) -0.00743(18) 0.8673(4)
H21 H 1.9697 -0.0033 0.8821
H22 H 2.0754 0.0125 0.8721
H23 H 2.0094 -0.0149 0.8150
C32 C 2.3053(6) -0.1145(3) 1.1177(6)
H24 H 2.2596 -0.1246 1.0699
H25 H 2.3048 -0.0914 1.1048
C33 C 2.4148(8) -0.1226(4) 1.1104(8)
H26 H 2.4322 -0.1066 1.0781
H27 H 2.4713 -0.1224 1.1603
H28 H 2.4114 -0.1441 1.0881
Zn2B Zn -0.07571(4) -0.095910(13) 0.40623(3)
Zn2F Zn 1.07571(4) 0.095910(13) 0.59377(3)
Zn2D Zn 0.92429(4) 0.095910(13) 0.90623(3)
Zn2G Zn 1.57571(4) -0.404090(13) 1.59377(3)
Zn3B Zn 0.10399(4) -0.151470(12) 0.39640(3)
Zn3G Zn 2.39601(4) -0.348530(12) 0.60360(3)
Zn3F Zn 0.89601(4) 0.151470(12) 0.60360(3)
Zn3D Zn 1.10399(4) 0.151470(12) 0.89640(3)
Zn3G_2 Zn 1.39601(4) -0.348530(12) 1.60360(3)
N1B N -0.1063(4) -0.03411(12) 0.5799(3)
O1B O 0.0854(2) -0.07816(7) 0.45700(17)
O2B O 0.2070(2) -0.11942(7) 0.46323(17)
O3G O 1.5562(3) -0.36474(8) 1.51550(18)
O3B O -0.0562(3) -0.13526(8) 0.48450(18)
O4G O 1.4639(3) -0.32254(8) 1.54078(19)
O4B O 0.0361(3) -0.17746(8) 0.45922(19)
O5B O 0.8652(2) 0.07150(8) 0.70932(17)
O6B O 0.8757(2) 0.05545(7) 0.82677(16)
O6F O 2.1243(2) -0.05545(7) 1.17323(16)
O6D O -0.1243(2) -0.05545(7) 0.32677(16)
O7G O 1.8007(4) -0.19099(10) 1.1203(2)
O7E O 0.1993(4) -0.19099(10) 0.3797(2)
O8G O 1.8361(4) -0.15646(12) 1.2064(3)
O8E O 0.1639(4) -0.15646(12) 0.2936(3)
O9B O 0.9739(2) 0.12454(7) 0.83125(15)
O9F O 2.0261(2) -0.12454(7) 1.16875(15)
O9D O -0.0261(2) -0.12454(7) 0.33125(15)
O10B O -0.2376(3) -0.11310(11) 0.3544(3)
O11B O -0.1290(3) -0.06855(8) 0.48143(18)
C1B C 0.1829(4) -0.09090(11) 0.4773(2)
C2B C 0.2759(3) -0.06964(11) 0.5236(2)
C3B C 0.2588(3) -0.03600(11) 0.5328(2)
H1B H 0.1877 -0.0273 0.5123
C4B C 0.3471(3) -0.01558(12) 0.5723(3)
H2B H 0.3358 0.0069 0.5755
C5B C 0.4532(4) -0.02900(13) 0.6071(2)
C6B C 0.4693(4) -0.06310(13) 0.5993(3)
H3B H 0.5395 -0.0721 0.6227
C7B C 0.3840(4) -0.08315(13) 0.5580(3)
H4B H 0.3965 -0.1054 0.5526
C8B C 0.5502(4) -0.00732(12) 0.6462(2)
C9B C 0.5718(4) 0.02178(14) 0.6092(3)
H5B H 0.5231 0.0281 0.5612
C10B C 0.6628(4) 0.03973(13) 0.6446(3)
H6B H 0.6787 0.0575 0.6186
C11B C 0.7357(3) 0.03273(12) 0.7200(2)
C12B C 0.7142(4) 0.00628(12) 0.7562(2)
H7B H 0.7602 0.0017 0.8061
C13B C 0.6245(4) -0.01443(13) 0.7206(3)
H8B H 0.6136 -0.0331 0.7462
C14B C 0.8332(3) 0.05496(10) 0.7565(3)
C15G C 1.5282(4) -0.33510(12) 1.5104(3)
C16G C 1.5634(4) -0.31334(12) 1.4613(3)
C17G C 1.6279(6) -0.32477(18) 1.4182(4)
H9G H 1.6471 -0.3469 1.4201
C18G C 1.6641(6) -0.30268(19) 1.3716(4)
H10G H 1.7033 -0.3110 1.3417
C19G C 1.6429(4) -0.26954(12) 1.3695(3)
C20G C 1.5895(5) -0.25952(16) 1.4158(4)
H11G H 1.5810 -0.2371 1.4219
C21G C 1.5461(5) -0.28172(15) 1.4556(4)
H12G H 1.5004 -0.2731 1.4805
C22G C 1.6846(5) -0.24961(12) 1.3235(3)
C23G C 1.6751(6) -0.25699(18) 1.2479(4)
H13G H 1.6434 -0.2770 1.2275
C24G C 1.7120(5) -0.23526(15) 1.1996(4)
H14G H 1.7003 -0.2406 1.1486
C25G C 1.7634(4) -0.20735(13) 1.2302(3)
C26G C 1.7686(6) -0.1971(2) 1.3033(5)
H15G H 1.7946 -0.1764 1.3220
C27G C 1.7309(6) -0.2207(2) 1.3497(4)
H16G H 1.7401 -0.2151 1.4002
C28G C 1.8026(5) -0.18427(13) 1.1826(4)
C29B C -0.0789(4) -0.04888(14) 0.5214(3)
H17B H -0.0139 -0.0420 0.5145
C30B C -0.2084(5) -0.04324(18) 0.5963(4)
H18B H -0.2478 -0.0600 0.5611
H19B H -0.1882 -0.0514 0.6479
H20B H -0.2549 -0.0242 0.5906
C31B C -0.0333(7) -0.00743(18) 0.6327(4)
H21B H 0.0303 -0.0033 0.6179
H22B H -0.0754 0.0125 0.6279
H23B H -0.0094 -0.0149 0.6850
C32B C -0.3053(6) -0.1145(3) 0.3823(6)
H24B H -0.2596 -0.1246 0.4301
H25B H -0.3048 -0.0914 0.3952
C33B C -0.4148(8) -0.1226(4) 0.3896(8)
H26B H -0.4322 -0.1066 0.4219
H27B H -0.4713 -0.1224 0.3397
H28B H -0.4114 -0.1441 0.4119
loop_
_geom_bond_atom_site_label_1
_geom_bond_atom_site_label_2
_geom_bond_site_symmetry_1
_geom_bond_site_symmetry_2
Zn1 O5 1_555 1_555
Zn2 O1 1_555 1_555
Zn3 O2 1_555 1_555
N1 C29 1_555 1_555
O1 C1 1_555 1_555
O2 C1 1_555 1_555
O3 Zn2 1_555 1_555
O4 Zn3 1_555 1_555
O5 C14 1_555 1_555
O6 C14 1_555 1_555
O7 C28 1_555 1_555
O8 C28 1_555 1_555
O9 Zn1 1_555 1_555
O10 Zn2 1_555 1_555
O11 Zn2 1_555 1_555
C1 C2 1_555 1_555
C2 C3 1_555 1_555
C3 H1 1_555 1_555
C4 C3 1_555 1_555
H2 C4 1_555 1_555
C5 C4 1_555 1_555
C6 C5 1_555 1_555
H3 C6 1_555 1_555
C7 C2 1_555 1_555
H4 C7 1_555 1_555
C8 C5 1_555 1_555
C9 C8 1_555 1_555
H5 C9 1_555 1_555
C10 C9 1_555 1_555
H6 C10 1_555 1_555
C11 C10 1_555 1_555
C12 C11 1_555 1_555
H7 C12 1_555 1_555
C13 C8 1_555 1_555
H8 C13 1_555 1_555
C14 C11 1_555 1_555
C15 O3 1_555 1_555
C16 C15 1_555 1_555
C17 C16 1_555 1_555
H9 C17 1_555 1_555
C18 C17 1_555 1_555
H10 C18 1_555 1_555
C19 C18 1_555 1_555
C20 C19 1_555 1_555
H11 C20 1_555 1_555
C21 C16 1_555 1_555
H12 C21 1_555 1_555
C22 C19 1_555 1_555
C23 C22 1_555 1_555
H13 C23 1_555 1_555
C24 C23 1_555 1_555
H14 C24 1_555 1_555
C25 C24 1_555 1_555
C26 C25 1_555 1_555
H15 C26 1_555 1_555
C27 C22 1_555 1_555
H16 C27 1_555 1_555
C28 C25 1_555 1_555
C29 O11 1_555 1_555
H17 C29 1_555 1_555
C30 N1 1_555 1_555
H18 C30 1_555 1_555
H19 C30 1_555 1_555
H20 C30 1_555 1_555
C31 N1 1_555 1_555
H21 C31 1_555 1_555
H22 C31 1_555 1_555
H23 C31 1_555 1_555
C32 O10 1_555 1_555
H24 C32 1_555 1_555
H25 C32 1_555 1_555
C33 C32 1_555 1_555
H26 C33 1_555 1_555
H27 C33 1_555 1_555
H28 C33 1_555 1_555
Zn2B O1B 1_555 1_555
Zn2F O6 1_555 1_555
Zn2D O6B 1_555 1_555
Zn2G O3G 1_555 1_555
Zn3B O2B 1_555 1_555
Zn3G O7 1_555 1_555
Zn3F O9 1_555 1_555
Zn3D O9B 1_555 1_555
Zn3G_2 O4G 1_555 1_555
N1B C29B 1_555 1_555
O1B C1B 1_555 1_555
O2B C1B 1_555 1_555
O3G C15G 1_555 1_555
O3B Zn2B 1_555 1_555
O4G C15G 1_555 1_555
O4B Zn3B 1_555 1_555
O5B Zn1 1_555 1_555
O6B C14B 1_555 1_555
O6F Zn2 1_555 1_555
O6D Zn2B 1_555 1_555
O7G Zn3 1_555 1_555
O7E Zn3B 1_555 1_555
O8G Zn3 1_555 1_555
O8E Zn3B 1_555 1_555
O9B Zn1 1_555 1_555
O9F Zn2 1_555 1_555
O9D Zn2B 1_555 1_555
O10B Zn2B 1_555 1_555
O11B Zn2B 1_555 1_555
C1B C2B 1_555 1_555
C2B C3B 1_555 1_555
C3B H1B 1_555 1_555
C4B C3B 1_555 1_555
H2B C4B 1_555 1_555
C5B C4B 1_555 1_555
C6B C5B 1_555 1_555
H3B C6B 1_555 1_555
C7B C2B 1_555 1_555
H4B C7B 1_555 1_555
C8B C5B 1_555 1_555
C9B C8B 1_555 1_555
H5B C9B 1_555 1_555
C10B C9B 1_555 1_555
H6B C10B 1_555 1_555
C11B C10B 1_555 1_555
C12B C11B 1_555 1_555
H7B C12B 1_555 1_555
C13B C8B 1_555 1_555
H8B C13B 1_555 1_555
C14B O5B 1_555 1_555
C15G C16G 1_555 1_555
C16G C17G 1_555 1_555
C17G H9G 1_555 1_555
C18G C17G 1_555 1_555
H10G C18G 1_555 1_555
C19G C18G 1_555 1_555
C20G C19G 1_555 1_555
H11G C20G 1_555 1_555
C21G C16G 1_555 1_555
H12G C21G 1_555 1_555
C22G C19G 1_555 1_555
C23G C22G 1_555 1_555
H13G C23G 1_555 1_555
C24G C23G 1_555 1_555
H14G C24G 1_555 1_555
C25G C24G 1_555 1_555
C26G C25G 1_555 1_555
H15G C26G 1_555 1_555
C27G C22G 1_555 1_555
H16G C27G 1_555 1_555
C28G O7G 1_555 1_555
C29B O11B 1_555 1_555
H17B C29B 1_555 1_555
C30B N1B 1_555 1_555
H18B C30B 1_555 1_555
H19B C30B 1_555 1_555
H20B C30B 1_555 1_555
C31B N1B 1_555 1_555
H21B C31B 1_555 1_555
H22B C31B 1_555 1_555
H23B C31B 1_555 1_555
C32B O10B 1_555 1_555
H24B C32B 1_555 1_555
H25B C32B 1_555 1_555
C33B C32B 1_555 1_555
H26B C33B 1_555 1_555
H27B C33B 1_555 1_555
H28B C33B 1_555 1_555
Zn3 O9F 1_555 1_555
O4 C15 1_555 1_555
O8 Zn3G 1_555 1_555
O9 Zn2F 1_555 1_555
C6 C7 1_555 1_555
C12 C13 1_555 1_555
C20 C21 1_555 1_555
C26 C27 1_555 1_555
Zn2D O9B 1_555 1_555
Zn3B O9D 1_555 1_555
O8G C28G 1_555 1_555
C6B C7B 1_555 1_555
C11B C14B 1_555 1_555
C12B C13B 1_555 1_555
C20G C21G 1_555 1_555
C25G C28G 1_555 1_555
C26G C27G 1_555 1_555

#END
