
#######################################################################
#
#                 Cambridge Crystallographic Data Centre
#                                CCDC 
#
#######################################################################
#
# If this CIF has been generated from an entry in the Cambridge 
# Structural Database, then it will include bibliographic, chemical, 
# crystal, experimental, refinement or atomic coordinate data resulting 
# from the CCDC's data processing and validation procedures.
#
#######################################################################

data_OFERUN
_symmetry_cell_setting           cubic
_symmetry_space_group_name_H-M   'I -4 3 m'
_symmetry_Int_Tables_number      217
_space_group_name_Hall           'I -4 2 3'
loop_
_symmetry_equiv_pos_site_id
_symmetry_equiv_pos_as_xyz
1 x,y,z
2 z,x,y
3 y,z,x
4 y,-x,-z
5 -z,y,-x
6 -x,-z,y
7 -x,-y,z
8 -z,x,-y
9 -y,-z,x
10 x,-y,-z
11 z,-x,-y
12 -y,z,-x
13 -y,x,-z
14 -z,-y,x
15 x,-z,-y
16 x,z,y
17 y,x,z
18 z,y,x
19 y,-z,-x
20 -y,-x,z
21 z,-y,-x
22 -x,z,-y
23 -x,y,-z
24 -z,-x,y
25 1/2+x,1/2+y,1/2+z
26 1/2+z,1/2+x,1/2+y
27 1/2+y,1/2+z,1/2+x
28 1/2+y,1/2-x,1/2-z
29 1/2-z,1/2+y,1/2-x
30 1/2-x,1/2-z,1/2+y
31 1/2-x,1/2-y,1/2+z
32 1/2-z,1/2+x,1/2-y
33 1/2-y,1/2-z,1/2+x
34 1/2+x,1/2-y,1/2-z
35 1/2+z,1/2-x,1/2-y
36 1/2-y,1/2+z,1/2-x
37 1/2-y,1/2+x,1/2-z
38 1/2-z,1/2-y,1/2+x
39 1/2+x,1/2-z,1/2-y
40 1/2+x,1/2+z,1/2+y
41 1/2+y,1/2+x,1/2+z
42 1/2+z,1/2+y,1/2+x
43 1/2+y,1/2-z,1/2-x
44 1/2-y,1/2-x,1/2+z
45 1/2+z,1/2-y,1/2-x
46 1/2-x,1/2+z,1/2-y
47 1/2-x,1/2+y,1/2-z
48 1/2-z,1/2-x,1/2+y
_cell_length_a                   16.99006(28)
_cell_length_b                   16.99006(28)
_cell_length_c                   16.99006(28)
_cell_angle_alpha                90
_cell_angle_beta                 90
_cell_angle_gamma                90
_cell_volume                     4904.39
loop_
_atom_site_label
_atom_site_type_symbol
_atom_site_fract_x
_atom_site_fract_y
_atom_site_fract_z
C1 C 0.3784(4) 0.0054(5) 0.6216(4)
C2 C 0.3709(4) -0.1019(4) 0.68734(32)
D1 D 0.3853(5) -0.1513(5) 0.7289(5)
C3 C 0.4029(5) 0.0834(9) 0.5971(5)
D2 D 0.3640(6) 0.1197(6) 0.5699(5)
D3 D 0.4409(8) 0.0708(12) 0.5591(8)
N1 N 0.41093(27) -0.03440(26) 0.68295(27)
Zn1 Zn 0.50000 0.00000 0.75000
C1F C 0.6216(4) -0.0054(5) 0.6216(4)
C2D C 0.31266(32) -0.1019(4) 0.6291(4)
C2F C 0.6291(4) 0.1019(4) 0.68734(32)
C2T C 0.68734(32) 0.1019(4) 0.6291(4)
D1D D 0.2711(5) -0.1513(5) 0.6147(5)
D1F D 0.6147(5) 0.1513(5) 0.7289(5)
D1T D 0.7289(5) 0.1513(5) 0.6147(5)
C3F C 0.5971(5) -0.0834(9) 0.5971(5)
D2D D 0.4301(5) 0.1197(6) 0.6360(6)
D2F D 0.6360(6) -0.1197(6) 0.5699(5)
D2T D 0.5699(5) -0.1197(6) 0.6360(6)
D3F D 0.5591(8) -0.0708(12) 0.5591(8)
N1D N 0.31705(27) -0.03440(26) 0.58907(27)
N1F N 0.58907(27) 0.03440(26) 0.68295(27)
N1T N 0.68295(27) 0.03440(26) 0.58907(27)
N1AA N 0.46560(26) 0.08907(27) 0.81705(27)
N1JA N 0.53440(26) -0.08907(27) 0.81705(27)
Zn1D Zn 0.25000 0.00000 0.50000
Zn1Q Zn 0.75000 0.00000 0.50000
loop_
_geom_bond_atom_site_label_1
_geom_bond_atom_site_label_2
_geom_bond_site_symmetry_1
_geom_bond_site_symmetry_2
C1 C3 1_555 1_555
C2 D1 1_555 1_555
C3 D2 1_555 1_555
D3 C3 1_555 1_555
N1 C1 1_555 1_555
Zn1 N1 1_555 1_555
C1F C3F 1_555 1_555
C2D C2 1_555 1_555
C2F C2T 1_555 1_555
C2T D1T 1_555 1_555
D1D C2D 1_555 1_555
D1F C2F 1_555 1_555
C3F D2F 1_555 1_555
D2D C3 1_555 1_555
D2T C3F 1_555 1_555
D3F C3F 1_555 1_555
N1D C1 1_555 1_555
N1F Zn1 1_555 1_555
N1T C1F 1_555 1_555
N1AA Zn1 1_555 1_555
N1JA Zn1 1_555 1_555
Zn1D N1D 1_555 1_555
Zn1Q N1T 1_555 1_555
C2 N1 1_555 1_555
C1F N1F 1_555 1_555
C2D N1D 1_555 1_555
C2F N1F 1_555 1_555
C2T N1T 1_555 1_555

#END
