
#######################################################################
#
#                 Cambridge Crystallographic Data Centre
#                                CCDC 
#
#######################################################################
#
# If this CIF has been generated from an entry in the Cambridge 
# Structural Database, then it will include bibliographic, chemical, 
# crystal, experimental, refinement or atomic coordinate data resulting 
# from the CCDC's data processing and validation procedures.
#
#######################################################################

data_OFUCEZ
_symmetry_cell_setting           triclinic
_symmetry_space_group_name_H-M   'P -1'
_symmetry_Int_Tables_number      2
_space_group_name_Hall           '-P 1'
loop_
_symmetry_equiv_pos_site_id
_symmetry_equiv_pos_as_xyz
1 x,y,z
2 -x,-y,-z
_cell_length_a                   9.0944(2)
_cell_length_b                   9.3809(3)
_cell_length_c                   9.9459(3)
_cell_angle_alpha                84.2720(11)
_cell_angle_beta                 65.4420(12)
_cell_angle_gamma                63.3680(11)
_cell_volume                     685.968
loop_
_atom_site_label
_atom_site_type_symbol
_atom_site_fract_x
_atom_site_fract_y
_atom_site_fract_z
Ce1 Ce 0.26787(7) 0.49045(6) 0.46023(6)
O1 O 0.0389(10) 0.5803(9) 0.7386(8)
O2 O 0.2933(10) 0.3602(9) 0.6997(8)
O3 O 0.6313(10) 0.3474(9) 0.4406(9)
O4 O 0.5202(10) 0.2054(9) 0.3882(9)
O5 O 1.1026(10) -0.2287(9) 0.4007(10)
O6 O 0.9275(11) -0.3492(9) 0.4684(9)
O7 O 0.4904(11) 0.5471(9) 0.2338(9)
O8 O 0.2864(12) 0.3974(12) 0.2232(9)
C1 C 0.1370(14) 0.4656(13) 0.7867(11)
C2 C 0.0759(15) 0.4506(14) 0.9503(12)
H1 H 0.1528 0.3642 0.9816
C3 C 0.6419(13) 0.2122(11) 0.4121(11)
C4 C 0.8015(15) 0.0655(11) 0.4091(11)
H2 H 0.9055 0.0728 0.3950
C5 C 0.8009(14) -0.0774(13) 0.4259(12)
H3 H 0.6976 -0.0835 0.4360
C6 C 0.9539(14) -0.2259(12) 0.4294(11)
O1A O -0.0389(10) 0.4197(9) 1.2614(8)
O2A O -0.2933(10) 0.6398(9) 1.3003(8)
C1A C -0.1370(14) 0.5344(13) 1.2133(11)
C2A C -0.0759(15) 0.5494(14) 1.0497(12)
H1A H -0.1528 0.6358 1.0184
Ce1A Ce -0.26787(7) 0.50955(6) 1.53977(6)
O3A O -0.6313(10) 0.6526(9) 1.5594(9)
O4A O -0.5202(10) 0.7946(9) 1.6118(9)
O5A O -1.1026(10) 1.2287(9) 1.5993(10)
O6A O -0.9275(11) 1.3492(9) 1.5316(9)
O7A O -0.4904(11) 0.4529(9) 1.7662(9)
O8A O -0.2864(12) 0.6026(12) 1.7768(9)
C3A C -0.6419(13) 0.7878(11) 1.5879(11)
C4A C -0.8015(15) 0.9345(11) 1.5909(11)
H2A H -0.9055 0.9272 1.6050
C5A C -0.8009(14) 1.0774(13) 1.5741(12)
H3A H -0.6976 1.0835 1.5640
C6A C -0.9539(14) 1.2259(12) 1.5706(11)
Ce1_2 Ce -0.73213(7) 0.49045(6) 1.46023(6)
Ce1_3 Ce -0.73213(7) 1.49045(6) 1.46023(6)
Ce1_4 Ce 1.26787(7) -0.50955(6) 0.46023(6)
Ce1A_2 Ce -1.26787(7) 1.50955(6) 1.53977(6)
Ce1A_3 Ce 0.73213(7) -0.49045(6) 0.53977(6)
Ce1A_4 Ce 0.73213(7) 0.50955(6) 0.53977(6)
O3_2 O -0.3687(10) 0.3474(9) 1.4406(9)
O3A_2 O 0.3687(10) 0.6526(9) 0.5594(9)
O5_2 O 0.1026(10) 0.7713(9) 0.4007(10)
O5A_2 O -0.1026(10) 0.2287(9) 1.5993(10)
O6_2 O -0.0725(11) 0.6508(9) 0.4684(9)
O6_3 O -0.0725(11) 0.6508(9) 1.4684(9)
O6A_2 O 0.0725(11) 0.3492(9) 0.5316(9)
O6A_3 O 0.0725(11) 0.3492(9) 1.5316(9)
O9 O 0.2755(13) 1.0294(11) 0.1624(12)
O10 O 0.4260(11) 0.7831(10) 0.0448(10)
C7 C 0.2940(17) 0.9157(15) 0.0812(13)
C8 C 0.1413(16) 0.9597(13) 0.0394(12)
C9 C 0.0024(16) 1.1170(14) 0.0733(13)
H4 H 0.0046 1.1944 0.1229
C10 C 0.1381(17) 0.8437(14) -0.0323(13)
H5 H 0.2301 0.7392 -0.0531
O9A O -0.2755(13) 0.9706(11) -0.1624(12)
O10A O -0.4260(11) 1.2169(10) -0.0448(10)
C7A C -0.2940(17) 1.0843(15) -0.0812(13)
C8A C -0.1413(16) 1.0403(13) -0.0394(12)
C9A C -0.0024(16) 0.8830(14) -0.0733(13)
H4A H -0.0046 0.8056 -0.1229
C10A C -0.1381(17) 1.1563(14) 0.0323(13)
H5A H -0.2301 1.2608 0.0531
O11 O 0.4484(13) 0.0430(11) 0.7794(10)
loop_
_geom_bond_atom_site_label_1
_geom_bond_atom_site_label_2
_geom_bond_site_symmetry_1
_geom_bond_site_symmetry_2
Ce1 O1 1_555 1_555
O1 C1 1_555 1_555
O2 Ce1 1_555 1_555
O3 Ce1 1_555 1_555
O4 Ce1 1_555 1_555
O5 C6 1_555 1_555
O6 C6 1_555 1_555
O7 Ce1 1_555 1_555
O8 Ce1 1_555 1_555
C1 O2 1_555 1_555
C2 C1 1_555 1_555
H1 C2 1_555 1_555
C3 O3 1_555 1_555
C4 C3 1_555 1_555
H2 C4 1_555 1_555
C5 C4 1_555 1_555
H3 C5 1_555 1_555
C6 C5 1_555 1_555
O9 C7 1_555 1_555
O10 C7 1_555 1_555
C7 C8 1_555 1_555
C8 C9 1_555 1_555
C9 H4 1_555 1_555
C10 C8 1_555 1_555
H5 C10 1_555 1_555
O1A C1A 1_555 1_555
O2A C1A 1_555 1_555
C1A C2A 1_555 1_555
C2A C2 1_555 1_555
H1A C2A 1_555 1_555
Ce1A O1A 1_555 1_555
O3A Ce1A 1_555 1_555
O4A Ce1A 1_555 1_555
O5A C6A 1_555 1_555
O6A C6A 1_555 1_555
O7A Ce1A 1_555 1_555
O8A Ce1A 1_555 1_555
C3A O3A 1_555 1_555
C4A C3A 1_555 1_555
H2A C4A 1_555 1_555
C5A C4A 1_555 1_555
H3A C5A 1_555 1_555
C6A C5A 1_555 1_555
Ce1_2 O3A 1_555 1_555
Ce1_3 O6A 1_555 1_555
Ce1_4 O5 1_555 1_555
Ce1A_2 O5A 1_555 1_555
Ce1A_3 O6 1_555 1_555
Ce1A_4 O3 1_555 1_555
O3_2 Ce1A 1_555 1_555
O3A_2 Ce1 1_555 1_555
O5_2 Ce1 1_555 1_555
O5A_2 Ce1A 1_555 1_555
O6_2 Ce1 1_555 1_555
O6_3 Ce1A 1_555 1_555
O6A_2 Ce1 1_555 1_555
O6A_3 Ce1A 1_555 1_555
O9A C7A 1_555 1_555
O10A C7A 1_555 1_555
C7A C8A 1_555 1_555
C8A C9A 1_555 1_555
C9A C10 1_555 1_555
H4A C9A 1_555 1_555
C10A C9 1_555 1_555
H5A C10A 1_555 1_555
O4 C3 1_555 1_555
O6 Ce1_4 1_555 1_555
O2A Ce1A 1_555 1_555
O4A C3A 1_555 1_555
O6A Ce1A_2 1_555 1_555
Ce1_2 O3_2 1_555 1_555
Ce1A_4 O3A_2 1_555 1_555
C8A C10A 1_555 1_555

#END
