
#######################################################################
#
#                 Cambridge Crystallographic Data Centre
#                                CCDC 
#
#######################################################################
#
# If this CIF has been generated from an entry in the Cambridge 
# Structural Database, then it will include bibliographic, chemical, 
# crystal, experimental, refinement or atomic coordinate data resulting 
# from the CCDC's data processing and validation procedures.
#
#######################################################################

data_OFUDUQ
_symmetry_cell_setting           triclinic
_symmetry_space_group_name_H-M   'P -1'
_symmetry_Int_Tables_number      2
_space_group_name_Hall           '-P 1'
loop_
_symmetry_equiv_pos_site_id
_symmetry_equiv_pos_as_xyz
1 x,y,z
2 -x,-y,-z
_cell_length_a                   5.1953(10)
_cell_length_b                   10.530(2)
_cell_length_c                   14.260(3)
_cell_angle_alpha                74.29(3)
_cell_angle_beta                 89.02(3)
_cell_angle_gamma                82.30(3)
_cell_volume                     744.052
loop_
_atom_site_label
_atom_site_type_symbol
_atom_site_fract_x
_atom_site_fract_y
_atom_site_fract_z
O1 O 0.7504(15) 0.9895(8) 0.9542(5)
H1 H 0.7055 1.0044 1.0083
H2 H 0.8743 0.9257 0.9639
Co1 Co 0.0000 0.5000 0.5000
Co2 Co 0.5000 1.0000 0.5000
P1 P 0.08844(12) 0.80270(7) 0.52597(6)
O2 O 0.1715(3) 0.65555(18) 0.53507(15)
O3 O 0.2460(4) 0.89371(18) 0.45247(15)
O4 O -0.2039(3) 0.83816(18) 0.51163(17)
O5 O 0.5636(5) 1.0317(3) 0.72451(19)
H3 H 0.6290 1.0536 0.6708
O6 O 0.3435(4) 0.3654(2) 0.54526(17)
H4 H 0.326(6) 0.302(3) 0.536(2)
H5 H 0.490(8) 0.380(4) 0.520(3)
N1 N 0.3484(4) 0.9151(2) 0.64147(19)
N2 N 0.1369(5) 0.5708(3) 0.35652(18)
N3 N 0.4040(6) 0.6005(4) 0.2337(2)
C1 C 0.1681(5) 0.8326(3) 0.6423(2)
C2 C 0.0419(8) 0.7771(4) 0.7255(3)
H6 H -0.0781 0.7192 0.7250
C3 C 0.0966(10) 0.8089(5) 0.8102(3)
H7 H 0.0131 0.7723 0.8675
C4 C 0.2747(9) 0.8946(5) 0.8099(3)
H8 H 0.3124 0.9173 0.8663
C5 C 0.3961(6) 0.9464(3) 0.7237(3)
C6 C 0.0617(7) 0.6942(4) 0.2921(3)
H9 H -0.0796 0.7547 0.2995
C7 C 0.2253(9) 0.7126(5) 0.2172(3)
H10 H 0.2184 0.7873 0.1640
C8 C 0.3440(6) 0.5192(4) 0.3181(2)
H11 H 0.4370 0.4360 0.3464
C9 C 0.6254(8) 0.5764(6) 0.1733(3)
H12 H 0.7499 0.5056 0.2121
H13 H 0.7096 0.6562 0.1538
C10 C 0.5542(7) 0.5387(5) 0.0828(3)
C11 C 0.3789(15) 0.4556(9) 0.0814(4)
H14 H 0.2888 0.4233 0.1379
C12 C 0.6714(13) 0.5829(8) 0.0003(3)
H15 H 0.7916 0.6419 -0.0029
N2A N 0.8631(5) 0.4292(3) -0.35652(18)
N3A N 0.5960(6) 0.3995(4) -0.2337(2)
C6A C 0.9383(7) 0.3058(4) -0.2921(3)
H9A H 1.0796 0.2453 -0.2995
C7A C 0.7747(9) 0.2874(5) -0.2172(3)
H10A H 0.7816 0.2127 -0.1640
C8A C 0.6560(6) 0.4808(4) -0.3181(2)
H11A H 0.5630 0.5640 -0.3464
C9A C 0.3746(8) 0.4236(6) -0.1733(3)
H12A H 0.2501 0.4944 -0.2121
H13A H 0.2904 0.3438 -0.1538
C10A C 0.4458(7) 0.4613(5) -0.0828(3)
C11A C 0.6211(15) 0.5444(9) -0.0814(4)
H14A H 0.7112 0.5767 -0.1379
C12A C 0.3286(13) 0.4171(8) -0.0003(3)
H15A H 0.2084 0.3581 0.0029
P1A P -0.08844(12) 0.19730(7) 0.47403(6)
O2A O -0.1715(3) 0.34445(18) 0.46493(15)
O3A O -0.2460(4) 0.10629(18) 0.54753(15)
O4A O 0.2039(3) 0.16184(18) 0.48837(17)
O5A O -0.5636(5) -0.0317(3) 0.27549(19)
H3A H -0.6290 -0.0536 0.3292
O6A O -0.3435(4) 0.6346(2) 0.45474(17)
H4A H -0.326(6) 0.698(3) 0.464(2)
H5A H -0.490(8) 0.620(4) 0.480(3)
N1A N -0.3484(4) 0.0849(2) 0.35853(19)
C1A C -0.1681(5) 0.1674(3) 0.3577(2)
C2A C -0.0419(8) 0.2229(4) 0.2745(3)
H6A H 0.0781 0.2808 0.2750
C3A C -0.0966(10) 0.1911(5) 0.1898(3)
H7A H -0.0131 0.2277 0.1325
C4A C -0.2747(9) 0.1054(5) 0.1901(3)
H8A H -0.3124 0.0827 0.1337
C5A C -0.3961(6) 0.0536(3) 0.2763(3)
Co1_2 Co 1.0000 0.5000 -0.5000
Co2_2 Co -0.5000 0.0000 0.5000
Co2_3 Co -0.5000 1.0000 0.5000
Co2_4 Co 0.5000 0.0000 0.5000
O3A_2 O 0.7540(4) 1.10629(18) 0.54753(15)
O4_2 O 0.7961(3) 0.83816(18) 0.51163(17)
O4A_2 O 0.2039(3) 1.16184(18) 0.48837(17)
N1A_2 N 0.6516(4) 1.0849(2) 0.35853(19)
N2A_2 N -0.1369(5) 0.4292(3) 0.64348(18)
loop_
_geom_bond_atom_site_label_1
_geom_bond_atom_site_label_2
_geom_bond_site_symmetry_1
_geom_bond_site_symmetry_2
O1 H1 1_555 1_555
H2 O1 1_555 1_555
Co1 O2 1_555 1_555
Co2 O3 1_555 1_555
P1 O2 1_555 1_555
O3 P1 1_555 1_555
O4 P1 1_555 1_555
O5 H3 1_555 1_555
O6 Co1 1_555 1_555
H4 O6 1_555 1_555
H5 O6 1_555 1_555
N1 Co2 1_555 1_555
N2 Co1 1_555 1_555
N3 C7 1_555 1_555
C1 P1 1_555 1_555
C2 C1 1_555 1_555
H6 C2 1_555 1_555
C3 C2 1_555 1_555
H7 C3 1_555 1_555
C4 C3 1_555 1_555
H8 C4 1_555 1_555
C5 O5 1_555 1_555
C6 N2 1_555 1_555
H9 C6 1_555 1_555
C7 C6 1_555 1_555
H10 C7 1_555 1_555
C8 N2 1_555 1_555
H11 C8 1_555 1_555
C9 N3 1_555 1_555
H12 C9 1_555 1_555
H13 C9 1_555 1_555
C10 C9 1_555 1_555
C11 C10 1_555 1_555
H14 C11 1_555 1_555
C12 C10 1_555 1_555
H15 C12 1_555 1_555
N2A C6A 1_555 1_555
N3A C7A 1_555 1_555
C6A H9A 1_555 1_555
C7A C6A 1_555 1_555
H10A C7A 1_555 1_555
C8A N2A 1_555 1_555
H11A C8A 1_555 1_555
C9A N3A 1_555 1_555
H12A C9A 1_555 1_555
H13A C9A 1_555 1_555
C10A C9A 1_555 1_555
C11A C12 1_555 1_555
H14A C11A 1_555 1_555
C12A C11 1_555 1_555
H15A C12A 1_555 1_555
P1A O2A 1_555 1_555
O2A Co1 1_555 1_555
O3A P1A 1_555 1_555
O4A P1A 1_555 1_555
O5A H3A 1_555 1_555
O6A Co1 1_555 1_555
H4A O6A 1_555 1_555
H5A O6A 1_555 1_555
N1A C1A 1_555 1_555
C1A P1A 1_555 1_555
C2A C1A 1_555 1_555
H6A C2A 1_555 1_555
C3A C2A 1_555 1_555
H7A C3A 1_555 1_555
C4A C3A 1_555 1_555
H8A C4A 1_555 1_555
C5A O5A 1_555 1_555
Co1_2 N2A 1_555 1_555
Co2_2 O3A 1_555 1_555
Co2_3 O4 1_555 1_555
Co2_4 O4A 1_555 1_555
O3A_2 Co2 1_555 1_555
O4_2 Co2 1_555 1_555
O4A_2 Co2 1_555 1_555
N1A_2 Co2 1_555 1_555
N2A_2 Co1 1_555 1_555
N1 C1 1_555 1_555
N1 C5 1_555 1_555
N3 C8 1_555 1_555
C4 C5 1_555 1_555
N3A C8A 1_555 1_555
C10A C11A 1_555 1_555
C10A C12A 1_555 1_555
N1A C5A 1_555 1_555
N1A Co2_2 1_555 1_555
C4A C5A 1_555 1_555

#END
