
#######################################################################
#
#                 Cambridge Crystallographic Data Centre
#                                CCDC 
#
#######################################################################
#
# If this CIF has been generated from an entry in the Cambridge 
# Structural Database, then it will include bibliographic, chemical, 
# crystal, experimental, refinement or atomic coordinate data resulting 
# from the CCDC's data processing and validation procedures.
#
#######################################################################

data_OGEBAF
_symmetry_cell_setting           hexagonal
_symmetry_space_group_name_H-M   'P 63/m m c'
_symmetry_Int_Tables_number      194
_space_group_name_Hall           "-P 6c 2'c"
loop_
_symmetry_equiv_pos_site_id
_symmetry_equiv_pos_as_xyz
1 x,y,z
2 x-y,x,1/2+z
3 -y,x-y,z
4 -x,-y,1/2+z
5 -x+y,-x,z
6 y,-x+y,1/2+z
7 -y,-x,1/2-z
8 x-y,-y,-z
9 x,x-y,1/2-z
10 y,x,-z
11 -x+y,y,1/2-z
12 -x,-x+y,-z
13 -x,-y,-z
14 -x+y,-x,1/2-z
15 y,-x+y,-z
16 x,y,1/2-z
17 x-y,x,-z
18 -y,x-y,1/2-z
19 y,x,1/2+z
20 -x+y,y,z
21 -x,-x+y,1/2+z
22 -y,-x,z
23 x-y,-y,1/2+z
24 x,x-y,z
_cell_length_a                   18.961(4)
_cell_length_b                   18.961(4)
_cell_length_c                   50.901(10)
_cell_angle_alpha                90
_cell_angle_beta                 90
_cell_angle_gamma                120
_cell_volume                     15848.2
loop_
_atom_site_label
_atom_site_type_symbol
_atom_site_fract_x
_atom_site_fract_y
_atom_site_fract_z
Cu1 Cu 0.06030(11) 0.1206(2) 0.2500
Cu2 Cu 0.52214(3) 0.04429(7) -0.02190(2)
O1 O 0.1323(6) 0.1200(6) 0.2230(2)
O2 O 0.4835(3) 0.1113(3) -0.00469(10)
O3 O 0.4447(3) 0.0353(3) 0.03185(10)
O4 O 0.5515(3) 0.1031(5) -0.05957(16)
O5 O 0.1363(10) 0.273(2) 0.2500
C1 C 0.1302(16) 0.0651(8) 0.2147(3)
C2 C 0.1926(11) 0.0963(5) 0.1879(3)
C3 C 0.2113(10) 0.0451(8) 0.1757(2)
H1 H 0.1977 -0.0041 0.1838
C4 C 0.2496(11) 0.0622(8) 0.1518(3)
H2 H 0.2612 0.0252 0.1437
C5 C 0.2703(13) 0.1352(6) 0.1401(3)
C6 C 0.3109(12) 0.1554(6) 0.1140(3)
C7 C 0.3415(11) 0.1707(6) 0.0937(3)
C8 C 0.3768(9) 0.1884(4) 0.0678(2)
C9 C 0.3962(6) 0.1342(5) 0.05557(16)
H3 H 0.3857 0.0865 0.0641
C10 C 0.4316(5) 0.1520(5) 0.03032(14)
C11 C 0.4486(7) 0.2243(3) 0.0183(2)
H4 H 0.4720 0.2360 0.0016
C12 C 0.4547(5) 0.0946(4) 0.01860(14)
O1W O 0.1323(6) 0.0123(8) 0.2230(2)
O2W O 0.4835(3) 0.3722(4) -0.00469(10)
O3W O 0.4447(3) 0.4094(4) 0.03185(10)
C3W C 0.2113(10) 0.1662(13) 0.1757(2)
H1W H 0.1977 0.2018 0.1838
C4W C 0.2496(11) 0.1874(14) 0.1518(3)
H2W H 0.2612 0.2360 0.1437
C9W C 0.3962(6) 0.2620(8) 0.05557(16)
H3W H 0.3857 0.2992 0.0641
C10W C 0.4316(5) 0.2796(7) 0.03032(14)
C12W C 0.4547(5) 0.3601(6) 0.01860(14)
O1B O -0.1200(6) 0.0123(8) 0.2230(2)
O2B O -0.1113(3) 0.3722(4) -0.00469(10)
O3B O -0.0353(3) 0.4094(4) 0.03185(10)
C1B C -0.0651(8) 0.0651(18) 0.2147(3)
C2B C -0.0963(5) 0.0963(12) 0.1879(3)
C3B C -0.0451(8) 0.1662(13) 0.1757(2)
H1B H 0.0041 0.2018 0.1838
C4B C -0.0622(8) 0.1874(14) 0.1518(3)
H2B H -0.0252 0.2360 0.1437
C5B C -0.1352(6) 0.1351(14) 0.1401(3)
C6B C -0.1554(6) 0.1555(13) 0.1140(3)
C7B C -0.1707(6) 0.1708(13) 0.0937(3)
C8B C -0.1884(4) 0.1884(10) 0.0678(2)
C9B C -0.1342(5) 0.2620(8) 0.05557(16)
H3B H -0.0865 0.2992 0.0641
C10B C -0.1520(5) 0.2796(7) 0.03032(14)
C11B C -0.2243(3) 0.2243(8) 0.0183(2)
H4B H -0.2360 0.2360 0.0016
C12B C -0.0946(4) 0.3601(6) 0.01860(14)
O1S O -0.0123(8) 0.1200(6) 0.2230(2)
O2S O -0.3722(4) 0.1113(3) -0.00469(10)
O3S O -0.4094(4) 0.0353(3) 0.03185(10)
C3S C -0.1662(13) 0.0451(8) 0.1757(2)
H1S H -0.2018 -0.0041 0.1838
C4S C -0.1874(14) 0.0622(8) 0.1518(3)
H2S H -0.2360 0.0252 0.1437
C9S C -0.2620(8) 0.1342(5) 0.05557(16)
H3S H -0.2992 0.0865 0.0641
C10S C -0.2796(7) 0.1520(5) 0.03032(14)
C12S C -0.3601(6) 0.0946(4) 0.01860(14)
Cu2G Cu 0.47785(8) -0.04429(7) 0.02190(2)
O4G O 0.4484(6) -0.1031(5) 0.05957(16)
Cu1B Cu -0.1206(2) -0.06030(23) 0.2500
Cu1D Cu 0.06030(23) -0.06030(11) 0.2500
Cu2_2 Cu -0.47786(3) 0.04429(7) -0.02190(2)
Cu2B Cu -0.04429(7) 0.47785(8) -0.02190(2)
Cu2D Cu 0.52215(8) 0.47786(3) -0.02190(2)
Cu2G_2 Cu -0.52215(8) -0.04429(7) 0.02190(2)
Cu2I Cu 0.04429(7) 0.52214(3) 0.02190(2)
Cu2K Cu 0.47786(3) 0.52215(8) 0.02190(2)
O1J O -0.0123(8) 0.1200(6) 0.2770(2)
O1O O 0.1323(6) 0.1200(6) 0.2770(2)
O2G O 0.3722(4) -0.1113(3) 0.00469(10)
O2L O 0.5165(3) -0.1113(3) 0.00469(10)
O2S_2 O 0.6278(4) 0.1113(3) -0.00469(10)
O3G O 0.4094(4) -0.0353(3) -0.03185(10)
O3L O 0.5553(3) -0.0353(3) -0.03185(10)
O3S_2 O 0.5906(4) 0.0353(3) 0.03185(10)
loop_
_geom_bond_atom_site_label_1
_geom_bond_atom_site_label_2
_geom_bond_site_symmetry_1
_geom_bond_site_symmetry_2
Cu1 O1 1_555 1_555
Cu2 O2 1_555 1_555
O1 C1 1_555 1_555
O2 C12 1_555 1_555
O3 C12 1_555 1_555
O4 Cu2 1_555 1_555
O5 Cu1 1_555 1_555
C1 C2 1_555 1_555
C2 C3 1_555 1_555
C3 H1 1_555 1_555
C4 C3 1_555 1_555
H2 C4 1_555 1_555
C5 C4 1_555 1_555
C6 C5 1_555 1_555
C7 C6 1_555 1_555
C8 C7 1_555 1_555
C9 C8 1_555 1_555
H3 C9 1_555 1_555
C10 C9 1_555 1_555
C11 C10 1_555 1_555
H4 C11 1_555 1_555
C12 C10 1_555 1_555
O1W C1 1_555 1_555
O2W C12W 1_555 1_555
O3W C12W 1_555 1_555
C3W C2 1_555 1_555
H1W C3W 1_555 1_555
C4W C5 1_555 1_555
H2W C4W 1_555 1_555
C9W C8 1_555 1_555
H3W C9W 1_555 1_555
C10W C11 1_555 1_555
C12W C10W 1_555 1_555
O1B C1B 1_555 1_555
O2B C12B 1_555 1_555
O3B C12B 1_555 1_555
C1B C2B 1_555 1_555
C2B C3B 1_555 1_555
C3B H1B 1_555 1_555
C4B C3B 1_555 1_555
H2B C4B 1_555 1_555
C5B C4B 1_555 1_555
C6B C5B 1_555 1_555
C7B C6B 1_555 1_555
C8B C7B 1_555 1_555
C9B C8B 1_555 1_555
H3B C9B 1_555 1_555
C10B C9B 1_555 1_555
C11B C10B 1_555 1_555
H4B C11B 1_555 1_555
C12B C10B 1_555 1_555
O1S Cu1 1_555 1_555
O2S C12S 1_555 1_555
O3S C12S 1_555 1_555
C3S C2B 1_555 1_555
H1S C3S 1_555 1_555
C4S C5B 1_555 1_555
H2S C4S 1_555 1_555
C9S C8B 1_555 1_555
H3S C9S 1_555 1_555
C10S C11B 1_555 1_555
C12S C10S 1_555 1_555
Cu2G Cu2 1_555 1_555
O4G Cu2G 1_555 1_555
Cu1B O1B 1_555 1_555
Cu1D O1W 1_555 1_555
Cu2_2 O2S 1_555 1_555
Cu2B O2B 1_555 1_555
Cu2D O2W 1_555 1_555
Cu2G_2 O3S 1_555 1_555
Cu2I O3B 1_555 1_555
Cu2K O3W 1_555 1_555
O1J Cu1 1_555 1_555
O1O Cu1 1_555 1_555
O2G Cu2G 1_555 1_555
O2L Cu2G 1_555 1_555
O2S_2 Cu2 1_555 1_555
O3G Cu2 1_555 1_555
O3L Cu2 1_555 1_555
O3S_2 Cu2G 1_555 1_555
O3 Cu2G 1_555 1_555
C3W C4W 1_555 1_555
C9W C10W 1_555 1_555
C1B O1S 1_555 1_555
C3S C4S 1_555 1_555
C9S C10S 1_555 1_555
Cu2_2 Cu2G_2 1_555 1_555
Cu2B Cu2I 1_555 1_555
Cu2D Cu2K 1_555 1_555

#END
