
#######################################################################
#
#                 Cambridge Crystallographic Data Centre
#                                CCDC 
#
#######################################################################
#
# If this CIF has been generated from an entry in the Cambridge 
# Structural Database, then it will include bibliographic, chemical, 
# crystal, experimental, refinement or atomic coordinate data resulting 
# from the CCDC's data processing and validation procedures.
#
#######################################################################

data_OGOWAJ
_symmetry_cell_setting           monoclinic
_symmetry_space_group_name_H-M   'C 2/c'
_symmetry_Int_Tables_number      15
_space_group_name_Hall           '-C 2yn'
loop_
_symmetry_equiv_pos_site_id
_symmetry_equiv_pos_as_xyz
1 x,y,z
2 -x,y,1/2-z
3 1/2+x,1/2+y,z
4 1/2-x,1/2+y,1/2-z
5 -x,-y,-z
6 x,-y,1/2+z
7 1/2-x,1/2-y,-z
8 1/2+x,1/2-y,1/2+z
_cell_length_a                   33.894(5)
_cell_length_b                   21.734(5)
_cell_length_c                   20.420(5)
_cell_angle_alpha                90
_cell_angle_beta                 124.565(5)
_cell_angle_gamma                90
_cell_volume                     12387.2
loop_
_atom_site_label
_atom_site_type_symbol
_atom_site_fract_x
_atom_site_fract_y
_atom_site_fract_z
O9 O 0.3878(10) -0.0183(11) -0.0116(15)
C1 C 0.3806(2) 0.0816(4) -0.1769(4)
H1 H 0.4122 0.0938 -0.1408
C2 C 0.3429(2) 0.1108(3) -0.1781(4)
C3 C 0.2965(3) 0.0910(4) -0.2301(5)
H2 H 0.2720 0.1104 -0.2300
C4 C 0.2855(3) 0.0437(4) -0.2815(5)
H3 H 0.2540 0.0303 -0.3153
C5 C 0.2831(2) -0.0687(3) -0.3915(4)
H4 H 0.2520 -0.0621 -0.4061
C6 C 0.2931(2) -0.1138(3) -0.4284(4)
H5 H 0.2681 -0.1376 -0.4683
C7 C 0.3393(2) -0.1242(3) -0.4072(4)
C8 C 0.3771(2) -0.0898(3) -0.3461(4)
H6 H 0.4083 -0.0971 -0.3306
C9 C 0.4037(3) -0.0028(4) -0.2397(6)
C10 C 0.3697(2) 0.0349(4) -0.2298(5)
C11 C 0.3219(3) 0.0154(3) -0.2831(4)
C12 C 0.3208(2) -0.0339(3) -0.3326(4)
C13 C 0.3681(2) -0.0456(4) -0.3092(4)
C14 C 0.4301(4) 0.0380(5) -0.2641(8)
H7 H 0.4512 0.0131 -0.2703
H8 H 0.4485 0.0685 -0.2238
H9 H 0.4073 0.0580 -0.3136
C15 C 0.4380(3) -0.0410(5) -0.1645(6)
H10 H 0.4591 -0.0644 -0.1721
H11 H 0.4197 -0.0684 -0.1546
H12 H 0.4565 -0.0139 -0.1198
C16 C 0.3534(3) 0.1620(3) -0.1217(4)
C17 C 0.3484(2) -0.1722(3) -0.4494(4)
C18 C 0.3403(2) 0.5913(3) 0.2749(4)
H13 H 0.3087 0.6000 0.2564
C19 C 0.3780(3) 0.6228(3) 0.3411(4)
C20 C 0.4246(3) 0.6086(4) 0.3694(5)
H14 H 0.4494 0.6298 0.4132
C21 C 0.4353(3) 0.5647(5) 0.3352(6)
H15 H 0.4671 0.5557 0.3555
C22 C 0.4364(3) 0.4510(5) 0.2298(5)
H16 H 0.4678 0.4610 0.2702
C23 C 0.4275(3) 0.4047(4) 0.1779(5)
H17 H 0.4528 0.3830 0.1834
C24 C 0.3803(2) 0.3896(3) 0.1163(4)
C25 C 0.3425(2) 0.4231(3) 0.1088(4)
H18 H 0.3110 0.4140 0.0679
C26 C 0.3164(2) 0.5087(4) 0.1654(4)
C27 C 0.3502(2) 0.5481(4) 0.2381(4)
C28 C 0.3984(3) 0.5329(4) 0.2691(5)
C29 C 0.3990(2) 0.4831(4) 0.2226(5)
C30 C 0.3518(2) 0.4688(3) 0.1615(4)
C31 C 0.2841(3) 0.4699(5) 0.1796(7)
H19 H 0.2622 0.4964 0.1817
H20 H 0.2664 0.4410 0.1369
H21 H 0.3035 0.4481 0.2290
C32 C 0.2870(4) 0.5476(5) 0.0909(5)
H22 H 0.2649 0.5723 0.0945
H23 H 0.3080 0.5738 0.0859
H24 H 0.2697 0.5212 0.0453
C33 C 0.3672(3) 0.6704(3) 0.3826(4)
C34 C 0.3707(2) 0.3381(3) 0.0606(4)
C35 C 0.7083(2) 0.2640(4) 0.3594(5)
H25 H 0.7232 0.2881 0.4051
C36 C 0.6590(3) 0.2644(4) 0.3097(5)
H26 H 0.6415 0.2890 0.3217
C37 C 0.6361(2) 0.2289(3) 0.2435(4)
C38 C 0.6643(2) 0.1942(5) 0.2301(5)
H27 H 0.6502 0.1684 0.1861
C39 C 0.7133(2) 0.1971(4) 0.2811(4)
H28 H 0.7316 0.1738 0.2695
C40 C 0.5834(3) 0.2280(3) 0.1907(4)
C41 C 0.5554(4) 0.2352(4) 0.2177(6)
H29 H 0.5694 0.2400 0.2719
C42 C 0.5061(4) 0.2354(4) 0.1653(6)
H30 H 0.4879 0.2408 0.1858
C43 C 0.5100(3) 0.2164(4) 0.0627(6)
H31 H 0.4947 0.2061 0.0093
C44 C 0.5599(4) 0.2180(5) 0.1103(6)
H32 H 0.5772 0.2123 0.0880
N1 N 0.73544(17) 0.2312(2) 0.3453(3)
N2 N 0.48378(19) 0.2285(2) 0.0890(3)
O1 O 0.39679(18) 0.1711(2) -0.0657(3)
O2 O 0.31879(17) 0.1915(2) -0.1327(3)
O3 O 0.31319(16) -0.2035(2) -0.5012(3)
O4 O 0.39018(17) -0.1774(2) -0.4308(3)
O5 O 0.32493(17) 0.6792(2) 0.3589(3)
O6 O 0.40275(17) 0.6989(2) 0.4381(3)
O7 O 0.32876(16) 0.3315(2) 0.0010(3)
O8 O 0.40571(17) 0.3047(2) 0.0793(3)
Zn1 Zn 0.41102(2) 0.23565(3) 0.01605(4)
Zn2 Zn 0.30824(2) 0.26428(3) -0.08144(4)
N1G N 0.23544(17) 0.2688(2) -0.1547(3)
O3E O 0.31319(16) 0.2035(2) -0.0012(3)
O4E O 0.39018(17) 0.1774(2) 0.0692(3)
O5E O 0.32493(17) 0.3208(2) -0.1411(3)
O6E O 0.40275(17) 0.3011(2) -0.0619(3)
Zn1E Zn 0.41102(2) -0.23565(3) -0.48395(4)
Zn1E_2 Zn 0.41102(2) 0.76435(3) 0.51605(4)
Zn2G Zn 0.80824(2) 0.23572(3) 0.41856(4)
Zn2E Zn 0.30824(2) -0.26428(3) -0.58144(4)
Zn2E_2 Zn 0.30824(2) 0.73572(3) 0.41856(4)
loop_
_geom_bond_atom_site_label_1
_geom_bond_atom_site_label_2
_geom_bond_site_symmetry_1
_geom_bond_site_symmetry_2
C1 H1 1_555 1_555
C2 C1 1_555 1_555
C3 C2 1_555 1_555
H2 C3 1_555 1_555
C4 C3 1_555 1_555
H3 C4 1_555 1_555
C5 H4 1_555 1_555
C6 C5 1_555 1_555
H5 C6 1_555 1_555
C7 C6 1_555 1_555
C8 C7 1_555 1_555
H6 C8 1_555 1_555
C9 C10 1_555 1_555
C10 C1 1_555 1_555
C11 C4 1_555 1_555
C12 C5 1_555 1_555
C13 C8 1_555 1_555
C14 C9 1_555 1_555
H7 C14 1_555 1_555
H8 C14 1_555 1_555
H9 C14 1_555 1_555
C15 C9 1_555 1_555
H10 C15 1_555 1_555
H11 C15 1_555 1_555
H12 C15 1_555 1_555
C16 C2 1_555 1_555
C17 C7 1_555 1_555
C18 H13 1_555 1_555
C19 C18 1_555 1_555
C20 C19 1_555 1_555
H14 C20 1_555 1_555
C21 C20 1_555 1_555
H15 C21 1_555 1_555
C22 H16 1_555 1_555
C23 C22 1_555 1_555
H17 C23 1_555 1_555
C24 C23 1_555 1_555
C25 C24 1_555 1_555
H18 C25 1_555 1_555
C26 C27 1_555 1_555
C27 C18 1_555 1_555
C28 C21 1_555 1_555
C29 C22 1_555 1_555
C30 C25 1_555 1_555
C31 C26 1_555 1_555
H19 C31 1_555 1_555
H20 C31 1_555 1_555
H21 C31 1_555 1_555
C32 C26 1_555 1_555
H22 C32 1_555 1_555
H23 C32 1_555 1_555
H24 C32 1_555 1_555
C33 C19 1_555 1_555
C34 C24 1_555 1_555
C35 H25 1_555 1_555
C36 C35 1_555 1_555
H26 C36 1_555 1_555
C37 C36 1_555 1_555
C38 C37 1_555 1_555
H27 C38 1_555 1_555
C39 C38 1_555 1_555
H28 C39 1_555 1_555
C40 C37 1_555 1_555
C41 C40 1_555 1_555
H29 C41 1_555 1_555
C42 C41 1_555 1_555
H30 C42 1_555 1_555
C43 H31 1_555 1_555
C44 C40 1_555 1_555
H32 C44 1_555 1_555
N1 C35 1_555 1_555
N2 C42 1_555 1_555
O1 C16 1_555 1_555
O2 C16 1_555 1_555
O3 C17 1_555 1_555
O4 C17 1_555 1_555
O5 C33 1_555 1_555
O6 C33 1_555 1_555
O7 C34 1_555 1_555
O8 C34 1_555 1_555
Zn1 N2 1_555 1_555
Zn2 O2 1_555 1_555
N1G Zn2 1_555 1_555
O3E Zn2 1_555 1_555
O4E Zn1 1_555 1_555
O5E Zn2 1_555 1_555
O6E Zn1 1_555 1_555
Zn1E O4 1_555 1_555
Zn1E_2 O6 1_555 1_555
Zn2G N1 1_555 1_555
Zn2E O3 1_555 1_555
Zn2E_2 O5 1_555 1_555
C9 C13 1_555 1_555
C10 C11 1_555 1_555
C11 C12 1_555 1_555
C12 C13 1_555 1_555
C26 C30 1_555 1_555
C27 C28 1_555 1_555
C28 C29 1_555 1_555
C29 C30 1_555 1_555
C39 N1 1_555 1_555
C43 C44 1_555 1_555
C43 N2 1_555 1_555
O1 Zn1 1_555 1_555
O7 Zn2 1_555 1_555
O8 Zn1 1_555 1_555

#END
