
#######################################################################
#
#                 Cambridge Crystallographic Data Centre
#                                CCDC 
#
#######################################################################
#
# If this CIF has been generated from an entry in the Cambridge 
# Structural Database, then it will include bibliographic, chemical, 
# crystal, experimental, refinement or atomic coordinate data resulting 
# from the CCDC's data processing and validation procedures.
#
#######################################################################

data_OHAFUA
_symmetry_cell_setting           rhombohedral
_symmetry_space_group_name_H-M   'R -3'
_symmetry_Int_Tables_number      148
_space_group_name_Hall           '-R 3'
loop_
_symmetry_equiv_pos_site_id
_symmetry_equiv_pos_as_xyz
1 x,y,z
2 -y,x-y,z
3 -x+y,-x,z
4 2/3+x,1/3+y,1/3+z
5 2/3-y,1/3+x-y,1/3+z
6 2/3-x+y,1/3-x,1/3+z
7 1/3+x,2/3+y,2/3+z
8 1/3-y,2/3+x-y,2/3+z
9 1/3-x+y,2/3-x,2/3+z
10 -x,-y,-z
11 y,-x+y,-z
12 x-y,x,-z
13 1/3-x,2/3-y,2/3-z
14 1/3+y,2/3-x+y,2/3-z
15 1/3+x-y,2/3+x,2/3-z
16 2/3-x,1/3-y,1/3-z
17 2/3+y,1/3-x+y,1/3-z
18 2/3+x-y,1/3+x,1/3-z
_cell_length_a                   18.5000
_cell_length_b                   18.5000
_cell_length_c                   48.6000
_cell_angle_alpha                90
_cell_angle_beta                 90
_cell_angle_gamma                120
_cell_volume                     14404.9
loop_
_atom_site_label
_atom_site_type_symbol
_atom_site_fract_x
_atom_site_fract_y
_atom_site_fract_z
N1 N 0.84659 0.70413 0.41591
N2 N 0.78423 0.69596 0.40229
Cu1 Cu 0.48071 0.51717 0.47523
N3 N 0.86026 0.74457 0.22890
O1 O 0.89939 0.52356 0.51155
O2 O 0.61880 0.51187 0.50868
O3 O 0.58638 0.54227 0.46816
C1 C 0.78626 0.73567 0.37720
C2 C 0.82849 0.66105 0.44167
O4 O 0.96297 0.55575 0.47157
C3 C 0.90993 0.55512 0.48774
C4 C 0.63852 0.54032 0.48453
C5 C 0.70967 0.72038 0.36667
C6 C 0.86076 0.79127 0.36392
C7 C 0.70676 0.76146 0.34324
H1 H 0.65204 0.67733 0.37701
C8 C 0.85789 0.83233 0.34020
H2 H 0.92039 0.80351 0.37199
H3 H 0.64704 0.74891 0.33519
H4 H 0.91609 0.87544 0.33030
C9 C 0.78029 0.81810 0.33000
O5 O 0.77323 0.85725 0.30761
C10 C 0.83362 0.89739 0.28797
C11 C 0.84729 0.83690 0.27112
H5 H 0.89228 0.94601 0.29769
C12 C 0.92066 0.86662 0.25600
C13 C 0.78415 0.75413 0.26714
C14 C 0.92592 0.82076 0.23448
H6 H 0.97187 0.92643 0.25961
C15 C 0.79351 0.70763 0.24636
H7 H 0.72647 0.72712 0.27872
C16 C 0.88438 0.64156 0.45422
C17 C 0.74967 0.63086 0.45326
C18 C 0.85883 0.58842 0.47751
H8 H 0.94551 0.66444 0.44520
C19 C 0.72388 0.57645 0.47547
H9 H 0.70663 0.64786 0.44428
C20 C 0.77898 0.55705 0.48826
H10 H 0.75812 0.51370 0.50539
H11 H 0.97955 0.84893 0.22102
H12 H 0.74361 0.64462 0.24299
H13 H 0.81142 0.92930 0.27386
Cu1B Cu 1.03646 0.51929 0.47523
Cu1I Cu 0.51929 0.48283 0.52477
Cu1K Cu 0.96354 0.48071 0.52477
Cu1M Cu 0.85050 0.70313 0.19144
N3N N 0.44902 0.52693 0.43777
O1J O 0.52356 0.62417 0.48845
O2I O 0.38120 0.48813 0.49132
O4A O 0.44425 0.40722 0.47157
loop_
_geom_bond_atom_site_label_1
_geom_bond_atom_site_label_2
_geom_bond_site_symmetry_1
_geom_bond_site_symmetry_2
N1 N2 1_555 1_555
N2 C1 1_555 1_555
Cu1 O3 1_555 1_555
N3 C14 1_555 1_555
O1 C3 1_555 1_555
O2 C4 1_555 1_555
O3 C4 1_555 1_555
C1 C5 1_555 1_555
C2 N1 1_555 1_555
O4 C3 1_555 1_555
C3 C18 1_555 1_555
C4 C19 1_555 1_555
C5 C7 1_555 1_555
C6 C1 1_555 1_555
C7 H3 1_555 1_555
H1 C5 1_555 1_555
C8 C6 1_555 1_555
H2 C6 1_555 1_555
H4 C8 1_555 1_555
C9 C7 1_555 1_555
O5 C9 1_555 1_555
C10 O5 1_555 1_555
C11 C10 1_555 1_555
H5 C10 1_555 1_555
C12 C11 1_555 1_555
C13 C11 1_555 1_555
C14 C12 1_555 1_555
H6 C12 1_555 1_555
C15 N3 1_555 1_555
H7 C13 1_555 1_555
C16 C2 1_555 1_555
C17 C2 1_555 1_555
C18 C16 1_555 1_555
H8 C16 1_555 1_555
C19 C17 1_555 1_555
H9 C17 1_555 1_555
C20 C18 1_555 1_555
H10 C20 1_555 1_555
H11 C14 1_555 1_555
H12 C15 1_555 1_555
H13 C10 1_555 1_555
Cu1B O4 1_555 1_555
Cu1I O2 1_555 1_555
Cu1K O1 1_555 1_555
Cu1M N3 1_555 1_555
N3N Cu1 1_555 1_555
O1J Cu1 1_555 1_555
O2I Cu1 1_555 1_555
O4A Cu1 1_555 1_555
C8 C9 1_555 1_555
C13 C15 1_555 1_555
C19 C20 1_555 1_555

#END
