
#######################################################################
#
#                 Cambridge Crystallographic Data Centre
#                                CCDC 
#
#######################################################################
#
# If this CIF has been generated from an entry in the Cambridge 
# Structural Database, then it will include bibliographic, chemical, 
# crystal, experimental, refinement or atomic coordinate data resulting 
# from the CCDC's data processing and validation procedures.
#
#######################################################################

data_OHEQUP04
_symmetry_cell_setting           monoclinic
_symmetry_space_group_name_H-M   'C 2'
_symmetry_Int_Tables_number      5
_space_group_name_Hall           'C 2y'
loop_
_symmetry_equiv_pos_site_id
_symmetry_equiv_pos_as_xyz
1 x,y,z
2 -x,y,-z
3 1/2+x,1/2+y,z
4 1/2-x,1/2+y,-z
_cell_length_a                   17.173(6)
_cell_length_b                   19.784(7)
_cell_length_c                   13.887(5)
_cell_angle_alpha                90
_cell_angle_beta                 95.771(4)
_cell_angle_gamma                90
_cell_volume                     4694.2
loop_
_atom_site_label
_atom_site_type_symbol
_atom_site_fract_x
_atom_site_fract_y
_atom_site_fract_z
C1 C -0.1027(6) 0.3211(4) -0.0185(7)
C2 C -0.1577(6) 0.3807(4) -0.0266(7)
C3 C -0.1650(5) 0.4172(3) -0.1149(5)
H1 H -0.1397 0.4028 -0.1673
C4 C -0.2100(5) 0.4735(4) -0.1207(5)
H2 H -0.2161 0.4977 -0.1784
C5 C -0.2481(6) 0.4966(4) -0.0402(6)
C6 C -0.2476(5) 0.4554(4) 0.0421(6)
C7 C -0.2018(5) 0.3983(4) 0.0459(6)
H3 H -0.2008 0.3705 0.1000
C8 C -0.2972(5) 0.4701(4) 0.1134(7)
H4 H -0.2983 0.4420 0.1669
C9 C -0.3436(4) 0.5253(4) 0.1041(6)
H5 H -0.3774 0.5332 0.1512
C10 C -0.3437(4) 0.5716(3) 0.0273(6)
C11 C -0.2991(6) 0.5554(4) -0.0470(7)
H6 H -0.3017 0.5825 -0.1020
C12 C -0.3967(4) 0.6307(3) 0.0160(6)
N1 N -0.0033(3) 0.2228(3) 0.2456(2)
C13 C -0.0656(3) 0.2506(3) 0.2886(3)
H7 H -0.1075 0.2697 0.2504
C14 C -0.0653(3) 0.2498(3) 0.3888(3)
H8 H -0.1070 0.2684 0.4175
C15 C -0.0027(3) 0.2212(3) 0.4459(2)
C16 C 0.0595(2) 0.1934(3) 0.4029(3)
H9 H 0.1014 0.1743 0.4411
C17 C 0.0593(2) 0.1942(3) 0.3027(3)
H10 H 0.1010 0.1756 0.2740
O1 O -0.0811(3) 0.2966(3) -0.0948(4)
O2 O -0.0842(4) 0.2996(3) 0.0677(5)
O3 O -0.4101(4) 0.6563(2) -0.0671(5)
O4 O -0.4231(3) 0.6509(3) 0.0904(5)
Co1 Co -0.00381(5) 0.22634(3) 0.09768(7)
N1A N 0.0033(3) 0.2228(3) 0.7544(2)
C13A C 0.0656(3) 0.2506(3) 0.7114(3)
H7A H 0.1075 0.2697 0.7496
C14A C 0.0653(3) 0.2498(3) 0.6112(3)
H8A H 0.1070 0.2684 0.5825
C15A C 0.0027(3) 0.2212(3) 0.5541(2)
C16A C -0.0595(2) 0.1934(3) 0.5971(3)
H9A H -0.1014 0.1743 0.5589
C17A C -0.0593(2) 0.1942(3) 0.6973(3)
H10A H -0.1010 0.1756 0.7260
C1A C 0.1027(6) 0.3211(4) 0.0185(7)
C2A C 0.1577(6) 0.3807(4) 0.0266(7)
C3A C 0.1650(5) 0.4172(3) 0.1149(5)
H1A H 0.1397 0.4028 0.1673
C4A C 0.2100(5) 0.4735(4) 0.1207(5)
H2A H 0.2161 0.4977 0.1784
C5A C 0.2481(6) 0.4966(4) 0.0402(6)
C6A C 0.2476(5) 0.4554(4) -0.0421(6)
C7A C 0.2018(5) 0.3983(4) -0.0459(6)
H3A H 0.2008 0.3705 -0.1000
C8A C 0.2972(5) 0.4701(4) -0.1134(7)
H4A H 0.2983 0.4420 -0.1669
C9A C 0.3436(4) 0.5253(4) -0.1041(6)
H5A H 0.3774 0.5332 -0.1512
C10A C 0.3437(4) 0.5716(3) -0.0273(6)
C11A C 0.2991(6) 0.5554(4) 0.0470(7)
H6A H 0.3017 0.5825 0.1020
C12A C 0.3967(4) 0.6307(3) -0.0160(6)
O1A O 0.0811(3) 0.2966(3) 0.0948(4)
O2A O 0.0842(4) 0.2996(3) -0.0677(5)
O3A O 0.4101(4) 0.6563(2) 0.0671(5)
O4A O 0.4231(3) 0.6509(3) -0.0904(5)
Co1A Co 0.00381(5) 0.22634(3) -0.09768(7)
N1A_2 N 0.0033(3) 0.2228(3) -0.2456(2)
O3B O 0.0899(4) 0.1563(2) -0.0671(5)
O3C O -0.0899(4) 0.1563(2) 0.0671(5)
O4B O 0.0769(3) 0.1509(3) 0.0904(5)
O4C O -0.0769(3) 0.1509(3) -0.0904(5)
Co1A_2 Co 0.00381(5) 0.22634(3) 0.90232(7)
Co1B Co -0.50381(5) 0.72634(3) 0.09768(7)
Co1B_2 Co 0.49619(5) 0.72634(3) 0.09768(7)
Co1C Co -0.49619(5) 0.72634(3) -0.09768(7)
Co1C_2 Co 0.50381(5) 0.72634(3) -0.09768(7)
C18 C -0.2285(5) 0.3497(4) 0.3524(6)
C19 C -0.1729(6) 0.4099(4) 0.3590(8)
C20 C -0.1285(6) 0.4262(5) 0.2876(7)
H11 H -0.1294 0.3981 0.2338
C21 C -0.0830(5) 0.4818(5) 0.2912(6)
C22 C -0.0838(6) 0.5264(5) 0.3728(7)
C23 C -0.1265(5) 0.5038(5) 0.4498(7)
H12 H -0.1255 0.5299 0.5055
C24 C -0.1685(5) 0.4458(4) 0.4445(7)
H13 H -0.1935 0.4307 0.4968
C25 C -0.0283(6) 0.4964(5) 0.2229(7)
H14 H -0.0243 0.4668 0.1716
C26 C 0.0171(6) 0.5510(5) 0.2308(7)
H15 H 0.0522 0.5583 0.1850
C27 C 0.0134(4) 0.5987(4) 0.3073(6)
C28 C -0.0350(5) 0.5862(5) 0.3793(7)
H16 H -0.0362 0.6158 0.4312
C29 C 0.0641(4) 0.6590(4) 0.3212(6)
C30 C -0.2284(4) 0.1579(4) 0.3513(6)
C31 C -0.1772(4) 0.0984(4) 0.3618(6)
C32 C -0.1821(4) 0.0496(4) 0.4378(5)
H17 H -0.2179 0.0567 0.4829
C33 C -0.1358(4) -0.0071(3) 0.4462(5)
H18 H -0.1406 -0.0378 0.4959
C34 C -0.0805(4) -0.0183(3) 0.3783(5)
C35 C -0.0784(4) 0.0260(4) 0.2980(6)
C36 C -0.1301(4) 0.0847(4) 0.2911(6)
H19 H -0.1309 0.1131 0.2377
C37 C -0.0383(5) 0.0056(4) 0.2201(6)
H20 H -0.0406 0.0321 0.1645
C38 C 0.0034(5) -0.0517(4) 0.2248(6)
H21 H 0.0287 -0.0656 0.1721
C39 C 0.0088(5) -0.0916(4) 0.3120(7)
C40 C -0.0383(5) -0.0763(4) 0.3810(7)
H22 H -0.0420 -0.1064 0.4318
C41 C 0.0638(5) -0.1504(4) 0.3189(7)
N2 N -0.3297(2) 0.2571(3) 0.0893(2)
C42 C -0.2688(2) 0.2271(3) 0.0461(3)
H23 H -0.2278 0.2067 0.0842
C43 C -0.2692(2) 0.2276(3) -0.0540(3)
H24 H -0.2285 0.2075 -0.0829
C44 C -0.3305(3) 0.2582(3) -0.1110(2)
C45 C -0.3914(3) 0.2882(3) -0.0678(3)
H25 H -0.4324 0.3087 -0.1059
C46 C -0.3910(2) 0.2877(3) 0.0324(3)
H26 H -0.4317 0.3078 0.0613
C47 C -0.3293(2) 0.2614(3) -0.21924(18)
C48 C -0.40005(19) 0.2530(3) -0.2760(3)
H27 H -0.4462 0.2487 -0.2468
C49 C -0.40178(17) 0.2512(3) -0.3762(2)
H28 H -0.4491 0.2456 -0.4141
N3 N -0.3327(2) 0.2577(3) -0.41974(18)
C50 C -0.26197(17) 0.2661(3) -0.3630(2)
H29 H -0.2158 0.2704 -0.3922
C51 C -0.26024(18) 0.2679(3) -0.2628(2)
H30 H -0.2129 0.2735 -0.2248
O5 O -0.2447(4) 0.3240(3) 0.2688(5)
O6 O -0.2544(4) 0.3260(3) 0.4283(5)
O7 O 0.0896(4) 0.6801(3) 0.2457(5)
O8 O 0.0800(4) 0.6803(3) 0.4035(5)
O9 O -0.2438(4) 0.1817(3) 0.2692(5)
O10 O -0.2527(4) 0.1796(3) 0.4259(5)
O11 O 0.0818(4) -0.1762(3) 0.4026(5)
O12 O 0.0904(4) -0.1723(3) 0.2422(4)
Co2 Co -0.32755(5) 0.25411(4) 0.23701(6)
Co3 Co -0.33623(5) 0.25286(4) 0.43292(6)
N3_2 N -0.3327(2) 0.2577(3) 0.58026(18)
O7B O -0.4104(4) 0.1801(3) 0.2457(5)
O8B O -0.4200(4) 0.1803(3) 0.4035(5)
O11B O -0.4182(4) 0.3238(3) 0.4026(5)
O12B O -0.4096(4) 0.3277(3) 0.2422(4)
Co2B Co 0.17245(5) -0.24589(4) 0.23701(6)
Co2B_2 Co 0.17245(5) 0.75411(4) 0.23701(6)
Co3_2 Co -0.33623(5) 0.25286(4) -0.56708(6)
Co3B Co 0.16377(5) -0.24714(4) 0.43292(6)
Co3B_2 Co 0.16377(5) 0.75286(4) 0.43292(6)
loop_
_geom_bond_atom_site_label_1
_geom_bond_atom_site_label_2
_geom_bond_site_symmetry_1
_geom_bond_site_symmetry_2
C1 C2 1_555 1_555
C2 C3 1_555 1_555
C3 H1 1_555 1_555
C4 C3 1_555 1_555
H2 C4 1_555 1_555
C5 C4 1_555 1_555
C6 C5 1_555 1_555
C7 C2 1_555 1_555
H3 C7 1_555 1_555
C8 C6 1_555 1_555
H4 C8 1_555 1_555
C9 C8 1_555 1_555
H5 C9 1_555 1_555
C10 C9 1_555 1_555
C11 C5 1_555 1_555
H6 C11 1_555 1_555
C12 C10 1_555 1_555
N1 C13 1_555 1_555
C13 H7 1_555 1_555
C14 C13 1_555 1_555
H8 C14 1_555 1_555
C15 C14 1_555 1_555
C16 C15 1_555 1_555
H9 C16 1_555 1_555
C17 N1 1_555 1_555
H10 C17 1_555 1_555
O1 C1 1_555 1_555
O2 C1 1_555 1_555
O3 C12 1_555 1_555
O4 C12 1_555 1_555
Co1 N1 1_555 1_555
C18 C19 1_555 1_555
C19 C20 1_555 1_555
C20 H11 1_555 1_555
C21 C20 1_555 1_555
C22 C21 1_555 1_555
C23 C22 1_555 1_555
H12 C23 1_555 1_555
C24 C19 1_555 1_555
H13 C24 1_555 1_555
C25 C21 1_555 1_555
H14 C25 1_555 1_555
C26 C25 1_555 1_555
H15 C26 1_555 1_555
C27 C26 1_555 1_555
C28 C22 1_555 1_555
H16 C28 1_555 1_555
C29 C27 1_555 1_555
C30 C31 1_555 1_555
C31 C32 1_555 1_555
C32 H17 1_555 1_555
C33 C32 1_555 1_555
H18 C33 1_555 1_555
C34 C33 1_555 1_555
C35 C34 1_555 1_555
C36 C31 1_555 1_555
H19 C36 1_555 1_555
C37 C35 1_555 1_555
H20 C37 1_555 1_555
C38 C37 1_555 1_555
H21 C38 1_555 1_555
C39 C38 1_555 1_555
C40 C34 1_555 1_555
H22 C40 1_555 1_555
C41 C39 1_555 1_555
N2 C42 1_555 1_555
C42 H23 1_555 1_555
C43 C42 1_555 1_555
H24 C43 1_555 1_555
C44 C43 1_555 1_555
C45 C44 1_555 1_555
H25 C45 1_555 1_555
C46 N2 1_555 1_555
H26 C46 1_555 1_555
C47 C44 1_555 1_555
C48 C47 1_555 1_555
H27 C48 1_555 1_555
C49 C48 1_555 1_555
H28 C49 1_555 1_555
N3 C49 1_555 1_555
C50 N3 1_555 1_555
H29 C50 1_555 1_555
C51 C47 1_555 1_555
H30 C51 1_555 1_555
O5 C18 1_555 1_555
O6 C18 1_555 1_555
O7 C29 1_555 1_555
O8 C29 1_555 1_555
O9 C30 1_555 1_555
O10 C30 1_555 1_555
O11 C41 1_555 1_555
O12 C41 1_555 1_555
Co2 N2 1_555 1_555
Co3 O6 1_555 1_555
N1A C13A 1_555 1_555
C13A H7A 1_555 1_555
C14A C13A 1_555 1_555
H8A C14A 1_555 1_555
C15A C15 1_555 1_555
C16A C15A 1_555 1_555
H9A C16A 1_555 1_555
C17A N1A 1_555 1_555
H10A C17A 1_555 1_555
C1A C2A 1_555 1_555
C2A C3A 1_555 1_555
C3A H1A 1_555 1_555
C4A C3A 1_555 1_555
H2A C4A 1_555 1_555
C5A C4A 1_555 1_555
C6A C5A 1_555 1_555
C7A C2A 1_555 1_555
H3A C7A 1_555 1_555
C8A C6A 1_555 1_555
H4A C8A 1_555 1_555
C9A C8A 1_555 1_555
H5A C9A 1_555 1_555
C10A C9A 1_555 1_555
C11A C5A 1_555 1_555
H6A C11A 1_555 1_555
C12A C10A 1_555 1_555
O1A Co1 1_555 1_555
O2A C1A 1_555 1_555
O3A C12A 1_555 1_555
O4A C12A 1_555 1_555
Co1A O1 1_555 1_555
N1A_2 Co1A 1_555 1_555
O3B Co1A 1_555 1_555
O3C Co1 1_555 1_555
O4B Co1 1_555 1_555
O4C Co1A 1_555 1_555
Co1A_2 N1A 1_555 1_555
Co1B O4 1_555 1_555
Co1B_2 O3A 1_555 1_555
Co1C O3 1_555 1_555
Co1C_2 O4A 1_555 1_555
N3_2 Co3 1_555 1_555
O7B Co2 1_555 1_555
O8B Co3 1_555 1_555
O11B Co3 1_555 1_555
O12B Co2 1_555 1_555
Co2B O12 1_555 1_555
Co2B_2 O7 1_555 1_555
Co3_2 N3 1_555 1_555
Co3B O11 1_555 1_555
Co3B_2 O8 1_555 1_555
C6 C7 1_555 1_555
C10 C11 1_555 1_555
C16 C17 1_555 1_555
O2 Co1 1_555 1_555
Co1 Co1A 1_555 1_555
C23 C24 1_555 1_555
C27 C28 1_555 1_555
C35 C36 1_555 1_555
C39 C40 1_555 1_555
C45 C46 1_555 1_555
C50 C51 1_555 1_555
O5 Co2 1_555 1_555
O9 Co2 1_555 1_555
O10 Co3 1_555 1_555
Co2 Co3 1_555 1_555
C14A C15A 1_555 1_555
C16A C17A 1_555 1_555
C1A O1A 1_555 1_555
C6A C7A 1_555 1_555
C10A C11A 1_555 1_555
O2A Co1A 1_555 1_555
Co1B Co1C 1_555 1_555
Co1B_2 Co1C_2 1_555 1_555
Co2B Co3B 1_555 1_555
Co2B_2 Co3B_2 1_555 1_555

#END
