
#######################################################################
#
#                 Cambridge Crystallographic Data Centre
#                                CCDC 
#
#######################################################################
#
# If this CIF has been generated from an entry in the Cambridge 
# Structural Database, then it will include bibliographic, chemical, 
# crystal, experimental, refinement or atomic coordinate data resulting 
# from the CCDC's data processing and validation procedures.
#
#######################################################################

data_OHEQUP05
_symmetry_cell_setting           monoclinic
_symmetry_space_group_name_H-M   'C 2'
_symmetry_Int_Tables_number      5
_space_group_name_Hall           'C 2y'
loop_
_symmetry_equiv_pos_site_id
_symmetry_equiv_pos_as_xyz
1 x,y,z
2 -x,y,-z
3 1/2+x,1/2+y,z
4 1/2-x,1/2+y,-z
_cell_length_a                   17.0391(8)
_cell_length_b                   20.0278(10)
_cell_length_c                   13.8334(7)
_cell_angle_alpha                90
_cell_angle_beta                 96.243(3)
_cell_angle_gamma                90
_cell_volume                     4692.73
loop_
_atom_site_label
_atom_site_type_symbol
_atom_site_fract_x
_atom_site_fract_y
_atom_site_fract_z
Co1 Co -0.32762(5) 0.3598(2) 0.24000(6)
O1 O -0.2445(4) 0.2866(3) 0.2672(5)
C1 C -0.2276(5) 0.2643(5) 0.3526(8)
Co2 Co -0.33502(5) 0.3585(2) 0.43112(6)
O2 O -0.2492(4) 0.2856(4) 0.4306(5)
C2 C -0.1771(3) 0.2031(4) 0.3621(6)
O3 O 0.0918(4) -0.0673(4) 0.2445(5)
C3 C -0.1287(3) 0.1885(3) 0.2898(6)
H1 H -0.1264 0.2184 0.2369
O4 O 0.0795(4) -0.0718(4) 0.4023(5)
C4 C -0.0832(4) 0.1296(3) 0.2950(6)
O5 O -0.2419(4) 0.4281(4) 0.2689(5)
C5 C -0.0870(4) 0.0847(4) 0.3753(6)
O6 O -0.2549(4) 0.4317(4) 0.4274(5)
C6 C -0.1357(4) 0.0992(4) 0.4480(6)
H2 H -0.1382 0.0695 0.5010
O7 O 0.0876(4) 0.7866(4) 0.2426(6)
C7 C -0.1792(4) 0.1561(4) 0.4420(6)
H3 H -0.2120 0.1656 0.4916
O8 O 0.0812(4) 0.7865(4) 0.4054(5)
C8 C -0.0340(4) 0.1139(4) 0.2231(6)
H4 H -0.0312 0.1435 0.1699
C9 C 0.0097(5) 0.0572(4) 0.2285(6)
H5 H 0.0426 0.0475 0.1791
C10 C 0.0064(4) 0.0118(4) 0.3084(7)
C11 C -0.0402(4) 0.0256(4) 0.3782(7)
H6 H -0.0420 -0.0047 0.4307
C12 C 0.0624(5) -0.0461(5) 0.3190(7)
C13 C -0.2256(5) 0.4549(5) 0.3523(7)
C14 C -0.1714(5) 0.5142(4) 0.3620(8)
C15 C -0.1256(5) 0.5284(4) 0.2919(8)
H7 H -0.1250 0.4982 0.2391
C16 C -0.0777(5) 0.5870(4) 0.2932(7)
C17 C -0.0806(5) 0.6309(4) 0.3748(7)
C18 C -0.1295(5) 0.6114(5) 0.4491(7)
H8 H -0.1312 0.6392 0.5044
C19 C -0.1732(6) 0.5541(5) 0.4418(8)
H9 H -0.2046 0.5421 0.4917
C20 C -0.0265(6) 0.6027(5) 0.2233(7)
H10 H -0.0221 0.5724 0.1712
C21 C 0.0162(6) 0.6590(5) 0.2279(7)
H11 H 0.0480 0.6698 0.1778
C22 C 0.0134(5) 0.7031(5) 0.3096(7)
C23 C -0.0357(5) 0.6895(4) 0.3801(7)
H12 H -0.0391 0.7199 0.4322
C24 C 0.0646(5) 0.7643(5) 0.3188(8)
N1 N -0.3278(2) 0.3635(4) 0.0915(2)
C25 C -0.3857(2) 0.3991(3) 0.0346(3)
H13 H -0.4251 0.4226 0.0645
C26 C -0.3859(2) 0.4004(3) -0.0658(3)
H14 H -0.4254 0.4248 -0.1047
C27 C -0.3282(3) 0.3661(4) -0.1095(2)
C28 C -0.2703(2) 0.3305(4) -0.0526(3)
H15 H -0.2308 0.3070 -0.0824
C29 C -0.2701(2) 0.3292(4) 0.0479(3)
H16 H -0.2305 0.3049 0.0868
C30 C -0.3292(2) 0.3664(3) -0.21930(17)
C31 C -0.25953(17) 0.3721(3) -0.2623(2)
H17 H -0.2107 0.3775 -0.2229
C32 C -0.26128(16) 0.3700(3) -0.3630(2)
H18 H -0.2136 0.3739 -0.3924
N2 N -0.3328(2) 0.3622(4) -0.42059(17)
C33 C -0.40247(16) 0.3565(4) -0.3776(2)
H19 H -0.4513 0.3511 -0.4170
C34 C -0.40072(17) 0.3586(4) -0.2769(2)
H20 H -0.4484 0.3547 -0.2475
Co1B Co 0.17238(5) -0.1402(2) 0.24000(6)
Co1B_2 Co 0.17238(5) 0.8598(2) 0.24000(6)
Co2_2 Co -0.33502(5) 0.3585(2) -0.56888(6)
Co2B Co 0.16498(5) -0.1415(2) 0.43112(6)
Co2B_2 Co 0.16498(5) 0.8585(2) 0.43112(6)
O3B O -0.4082(4) 0.4327(4) 0.2445(5)
O4B O -0.4205(4) 0.4282(4) 0.4023(5)
O7B O -0.4124(4) 0.2866(4) 0.2426(6)
O8B O -0.4188(4) 0.2865(4) 0.4054(5)
N2_2 N -0.3328(2) 0.3622(4) 0.57941(17)
Co3 Co -0.00331(6) 0.3284(2) 0.09506(8)
O9 O -0.0816(4) 0.3966(4) -0.0946(5)
O10 O -0.0842(4) 0.4007(4) 0.0656(5)
O11 O -0.4091(4) 0.7585(3) -0.0678(5)
O12 O -0.4229(4) 0.7518(4) 0.0923(5)
C35 C -0.1051(6) 0.4234(5) -0.0176(8)
C36 C -0.1584(5) 0.4820(5) -0.0284(7)
C37 C -0.1616(5) 0.5206(5) -0.1129(6)
H21 H -0.1321 0.5080 -0.1643
C38 C -0.2086(5) 0.5775(5) -0.1209(6)
H22 H -0.2116 0.6035 -0.1786
C39 C -0.2527(5) 0.5975(4) -0.0432(6)
C40 C -0.2502(5) 0.5565(4) 0.0397(7)
C41 C -0.2024(5) 0.4985(4) 0.0450(7)
H23 H -0.2009 0.4706 0.1007
C42 C -0.2991(5) 0.6555(4) -0.0504(6)
H24 H -0.2999 0.6830 -0.1064
C43 C -0.3443(5) 0.6731(4) 0.0243(6)
C44 C -0.3399(5) 0.6314(5) 0.1092(7)
H25 H -0.3686 0.6436 0.1617
C45 C -0.2954(5) 0.5748(5) 0.1156(7)
H26 H -0.2946 0.5473 0.1717
C46 C -0.3960(5) 0.7328(4) 0.0156(7)
N3 N -0.0018(2) 0.3258(3) 0.2451(2)
C47 C -0.0655(2) 0.3520(3) 0.2874(3)
H27 H -0.1094 0.3699 0.2476
C48 C -0.0648(2) 0.3520(3) 0.3880(3)
H28 H -0.1084 0.3698 0.4169
C49 C -0.0005(3) 0.3258(3) 0.4462(2)
C50 C 0.0631(2) 0.2996(3) 0.4038(3)
H29 H 0.1071 0.2818 0.4436
C51 C 0.0625(2) 0.2997(3) 0.3033(3)
H30 H 0.1060 0.2818 0.2743
N3A N 0.0018(2) 0.3258(3) 0.7549(2)
C47A C 0.0655(2) 0.3520(3) 0.7126(3)
H27A H 0.1094 0.3699 0.7524
C48A C 0.0648(2) 0.3520(3) 0.6120(3)
H28A H 0.1084 0.3698 0.5831
C49A C 0.0005(3) 0.3258(3) 0.5538(2)
C50A C -0.0631(2) 0.2996(3) 0.5962(3)
H29A H -0.1071 0.2818 0.5564
C51A C -0.0625(2) 0.2997(3) 0.6967(3)
H30A H -0.1060 0.2818 0.7257
Co3A Co 0.00331(6) 0.3284(2) -0.09506(8)
O9A O 0.0816(4) 0.3966(4) 0.0946(5)
O10A O 0.0842(4) 0.4007(4) -0.0656(5)
O11A O 0.4091(4) 0.7585(3) 0.0678(5)
O12A O 0.4229(4) 0.7518(4) -0.0923(5)
C35A C 0.1051(6) 0.4234(5) 0.0176(8)
C36A C 0.1584(5) 0.4820(5) 0.0284(7)
C37A C 0.1616(5) 0.5206(5) 0.1129(6)
H21A H 0.1321 0.5080 0.1643
C38A C 0.2086(5) 0.5775(5) 0.1209(6)
H22A H 0.2116 0.6035 0.1786
C39A C 0.2527(5) 0.5975(4) 0.0432(6)
C40A C 0.2502(5) 0.5565(4) -0.0397(7)
C41A C 0.2024(5) 0.4985(4) -0.0450(7)
H23A H 0.2009 0.4706 -0.1007
C42A C 0.2991(5) 0.6555(4) 0.0504(6)
H24A H 0.2999 0.6830 0.1064
C43A C 0.3443(5) 0.6731(4) -0.0243(6)
C44A C 0.3399(5) 0.6314(5) -0.1092(7)
H25A H 0.3686 0.6436 -0.1617
C45A C 0.2954(5) 0.5748(5) -0.1156(7)
H26A H 0.2946 0.5473 -0.1717
C46A C 0.3960(5) 0.7328(4) -0.0156(7)
Co3A_2 Co 0.00331(6) 0.3284(2) 0.90494(8)
Co3B Co -0.50331(6) 0.8284(2) 0.09506(8)
Co3B_2 Co 0.49669(6) 0.8284(2) 0.09506(8)
Co3C Co -0.49669(6) 0.8284(2) -0.09506(8)
Co3C_2 Co 0.50331(6) 0.8284(2) -0.09506(8)
O11B O 0.0909(4) 0.2585(3) -0.0678(5)
O11C O -0.0909(4) 0.2585(3) 0.0678(5)
O12B O 0.0771(4) 0.2518(4) 0.0923(5)
O12C O -0.0771(4) 0.2518(4) -0.0923(5)
N3A_2 N 0.0018(2) 0.3258(3) -0.2451(2)
loop_
_geom_bond_atom_site_label_1
_geom_bond_atom_site_label_2
_geom_bond_site_symmetry_1
_geom_bond_site_symmetry_2
Co1 O1 1_555 1_555
O1 C1 1_555 1_555
C1 O2 1_555 1_555
Co2 Co1 1_555 1_555
O2 Co2 1_555 1_555
C2 C1 1_555 1_555
O3 C12 1_555 1_555
C3 C2 1_555 1_555
H1 C3 1_555 1_555
O4 C12 1_555 1_555
C4 C3 1_555 1_555
O5 Co1 1_555 1_555
C5 C4 1_555 1_555
O6 Co2 1_555 1_555
C6 C5 1_555 1_555
H2 C6 1_555 1_555
O7 C24 1_555 1_555
C7 C2 1_555 1_555
H3 C7 1_555 1_555
O8 C24 1_555 1_555
C8 C4 1_555 1_555
H4 C8 1_555 1_555
C9 C8 1_555 1_555
H5 C9 1_555 1_555
C10 C9 1_555 1_555
C11 C5 1_555 1_555
H6 C11 1_555 1_555
C12 C10 1_555 1_555
C13 O5 1_555 1_555
C14 C13 1_555 1_555
C15 C14 1_555 1_555
H7 C15 1_555 1_555
C16 C15 1_555 1_555
C17 C16 1_555 1_555
C18 C17 1_555 1_555
H8 C18 1_555 1_555
C19 C14 1_555 1_555
H9 C19 1_555 1_555
C20 C16 1_555 1_555
H10 C20 1_555 1_555
C21 C20 1_555 1_555
H11 C21 1_555 1_555
C22 C21 1_555 1_555
C23 C17 1_555 1_555
H12 C23 1_555 1_555
C24 C22 1_555 1_555
N1 Co1 1_555 1_555
C25 N1 1_555 1_555
H13 C25 1_555 1_555
C26 C25 1_555 1_555
H14 C26 1_555 1_555
C27 C26 1_555 1_555
C28 C27 1_555 1_555
H15 C28 1_555 1_555
C29 N1 1_555 1_555
H16 C29 1_555 1_555
C30 C27 1_555 1_555
C31 C30 1_555 1_555
H17 C31 1_555 1_555
C32 C31 1_555 1_555
H18 C32 1_555 1_555
N2 C32 1_555 1_555
C33 N2 1_555 1_555
H19 C33 1_555 1_555
C34 C30 1_555 1_555
H20 C34 1_555 1_555
Co3 O10 1_555 1_555
O9 C35 1_555 1_555
O10 C35 1_555 1_555
O11 C46 1_555 1_555
O12 C46 1_555 1_555
C35 C36 1_555 1_555
C36 C37 1_555 1_555
C37 H21 1_555 1_555
C38 C37 1_555 1_555
H22 C38 1_555 1_555
C39 C38 1_555 1_555
C40 C39 1_555 1_555
C41 C36 1_555 1_555
H23 C41 1_555 1_555
C42 C39 1_555 1_555
H24 C42 1_555 1_555
C43 C42 1_555 1_555
C44 C43 1_555 1_555
H25 C44 1_555 1_555
C45 C40 1_555 1_555
H26 C45 1_555 1_555
C46 C43 1_555 1_555
N3 Co3 1_555 1_555
C47 N3 1_555 1_555
H27 C47 1_555 1_555
C48 C47 1_555 1_555
H28 C48 1_555 1_555
C49 C48 1_555 1_555
C50 C49 1_555 1_555
H29 C50 1_555 1_555
C51 N3 1_555 1_555
H30 C51 1_555 1_555
Co1B O3 1_555 1_555
Co1B_2 O7 1_555 1_555
Co2_2 N2 1_555 1_555
Co2B O4 1_555 1_555
Co2B_2 O8 1_555 1_555
O3B Co1 1_555 1_555
O4B Co2 1_555 1_555
O7B Co1 1_555 1_555
O8B Co2 1_555 1_555
N2_2 Co2 1_555 1_555
N3A C47A 1_555 1_555
C47A H27A 1_555 1_555
C48A C47A 1_555 1_555
H28A C48A 1_555 1_555
C49A C49 1_555 1_555
C50A C49A 1_555 1_555
H29A C50A 1_555 1_555
C51A N3A 1_555 1_555
H30A C51A 1_555 1_555
Co3A Co3 1_555 1_555
O9A Co3 1_555 1_555
O10A Co3A 1_555 1_555
O11A C46A 1_555 1_555
O12A C46A 1_555 1_555
C35A O9A 1_555 1_555
C36A C35A 1_555 1_555
C37A C36A 1_555 1_555
H21A C37A 1_555 1_555
C38A C37A 1_555 1_555
H22A C38A 1_555 1_555
C39A C38A 1_555 1_555
C40A C39A 1_555 1_555
C41A C36A 1_555 1_555
H23A C41A 1_555 1_555
C42A C39A 1_555 1_555
H24A C42A 1_555 1_555
C43A C42A 1_555 1_555
C44A C43A 1_555 1_555
H25A C44A 1_555 1_555
C45A C40A 1_555 1_555
H26A C45A 1_555 1_555
C46A C43A 1_555 1_555
Co3A_2 N3A 1_555 1_555
Co3B O12 1_555 1_555
Co3B_2 O11A 1_555 1_555
Co3C O11 1_555 1_555
Co3C_2 O12A 1_555 1_555
O11B Co3A 1_555 1_555
O11C Co3 1_555 1_555
O12B Co3 1_555 1_555
O12C Co3A 1_555 1_555
N3A_2 Co3A 1_555 1_555
O6 C13 1_555 1_555
C6 C7 1_555 1_555
C10 C11 1_555 1_555
C18 C19 1_555 1_555
C22 C23 1_555 1_555
C28 C29 1_555 1_555
C33 C34 1_555 1_555
O9 Co3A 1_555 1_555
C40 C41 1_555 1_555
C44 C45 1_555 1_555
C50 C51 1_555 1_555
Co1B Co2B 1_555 1_555
Co1B_2 Co2B_2 1_555 1_555
C48A C49A 1_555 1_555
C50A C51A 1_555 1_555
O10A C35A 1_555 1_555
C40A C41A 1_555 1_555
C44A C45A 1_555 1_555
Co3B Co3C 1_555 1_555
Co3B_2 Co3C_2 1_555 1_555

#END
