
#######################################################################
#
#                 Cambridge Crystallographic Data Centre
#                                CCDC 
#
#######################################################################
#
# If this CIF has been generated from an entry in the Cambridge 
# Structural Database, then it will include bibliographic, chemical, 
# crystal, experimental, refinement or atomic coordinate data resulting 
# from the CCDC's data processing and validation procedures.
#
#######################################################################

data_OHUKIM
_symmetry_cell_setting           tetragonal
_symmetry_space_group_name_H-M   'P -4 c 2'
_symmetry_Int_Tables_number      116
_space_group_name_Hall           'P -4 -2c'
loop_
_symmetry_equiv_pos_site_id
_symmetry_equiv_pos_as_xyz
1 x,y,z
2 -x,-y,z
3 -y,-x,1/2-z
4 y,x,1/2-z
5 -x,y,1/2+z
6 x,-y,1/2+z
7 -y,x,-z
8 y,-x,-z
_cell_length_a                   24.3013(9)
_cell_length_b                   24.3013(9)
_cell_length_c                   54.570(3)
_cell_angle_alpha                90
_cell_angle_beta                 90
_cell_angle_gamma                90
_cell_volume                     32226.5
loop_
_atom_site_label
_atom_site_type_symbol
_atom_site_fract_x
_atom_site_fract_y
_atom_site_fract_z
O1 O 1.06521(4) 0.76597(4) 0.24416(2)
O2 O 0.96633(4) 0.79816(5) 0.701130(17)
O3 O 1.33916(5) 0.39774(4) 0.477950(18)
H1 H 1.3574 0.3900 0.4629
O4 O 1.33751(4) 0.50240(4) 0.489030(17)
H2 H 1.3687 0.4978 0.4993
O5 O 1.01615(3) 0.16199(4) 0.239710(16)
H3 H 1.0199 0.1326 0.2511
O6 O 1.07904(4) 0.25049(4) 0.249290(19)
O7 O 1.29836(4) 0.55345(5) 0.450910(17)
O8 O 1.36254(5) 0.60804(5) 0.482690(18)
H4 H 1.3941 0.6069 0.4724
O9 O 0.74759(4) 0.56146(4) 0.49854(2)
O10 O 1.13355(4) 0.80596(4) 0.263870(16)
O11 O 1.29393(5) 0.65639(5) 0.51226(2)
O12 O 1.16099(5) 0.22661(5) 0.26231(2)
C1 C 1.24944(7) 0.51386(7) 0.41845(3)
O13 O 1.26357(5) 0.57879(4) 0.49495(2)
C2 C 1.11119(6) 0.71371(6) 0.27338(2)
C3 C 0.80277(7) 0.61142(8) 0.52578(3)
C4 C 1.10379(6) 0.76545(6) 0.25997(2)
O14 O 1.08830(4) 0.86601(4) 0.230650(16)
H5 H 1.0862 0.8973 0.2202
C5 C 1.20384(7) 0.62774(8) 0.52236(3)
O15 O 1.05214(5) 0.77374(5) 0.704600(19)
O16 O 0.71495(5) 0.63858(5) 0.515160(19)
C6 C 1.08526(8) 0.62183(7) 0.28366(3)
H6 H 1.0604 0.5920 0.2817
C7 C 1.12936(7) 0.61692(6) 0.29971(3)
C8 C 1.16440(8) 0.56373(7) 0.33509(3)
H7 H 1.1706 0.5981 0.3429
C9 C 1.20107(8) 0.51571(7) 0.37249(3)
Be1 Be 1.34227(11) 0.35606(11) 0.49932(4)
C10 C 1.09193(8) 0.40271(7) 0.28512(3)
H8 H 1.0640 0.4299 0.2838
C11 C 1.14133(7) 0.56389(7) 0.31200(3)
C12 C 1.12635(7) 0.31238(7) 0.27419(3)
C13 C 0.89494(8) 0.58492(8) 0.53478(3)
H9 H 0.9249 0.5604 0.5323
C14 C 1.00823(7) 0.75234(7) 0.66825(3)
C15 C 1.16497(8) 0.66008(7) 0.30172(3)
H10 H 1.1964 0.6562 0.3119
C16 C 0.75096(7) 0.60300(8) 0.51128(3)
Be2 Be 1.32031(10) 0.56063(9) 0.48072(4)
C17 C 1.08735(7) 0.35282(8) 0.27261(3)
H11 H 1.0559 0.3467 0.2626
C18 C 1.00859(8) 0.77566(7) 0.69260(3)
C19 C 0.85638(8) 0.66601(8) 0.55271(3)
H12 H 0.8604 0.6978 0.5627
C20 C 0.95402(9) 0.66532(9) 0.58606(4)
H13 H 0.9205 0.6726 0.5944
C21 C 1.17897(9) 0.51648(7) 0.34750(4)
C22 C 1.17771(8) 0.37260(7) 0.30070(3)
H14 H 1.2093 0.3795 0.3105
C23 C 0.90178(8) 0.62897(10) 0.54996(3)
C24 C 0.80800(8) 0.65644(8) 0.54137(3)
H15 H 0.7776 0.6803 0.5440
C25 C 1.11515(7) 0.59484(8) 0.53224(3)
H16 H 1.0875 0.5674 0.5307
C26 C 1.07726(7) 0.66961(6) 0.27062(3)
H17 H 1.0474 0.6719 0.2594
C27 C 1.17425(8) 0.32189(7) 0.28814(3)
H18 H 1.2029 0.2954 0.2891
C28 C 1.10572(7) 0.63948(9) 0.54677(3)
C29 C 0.96136(9) 0.72972(11) 0.63053(3)
H19 H 0.9279 0.7281 0.6215
C30 C 0.95415(8) 0.64109(9) 0.56189(4)
O17 O 1.12178(4) 0.16218(6) 0.229360(19)
H20 H 1.1276 0.1385 0.2158
C31 C 1.13307(8) 0.51478(7) 0.30126(3)
H21 H 1.1178 0.5142 0.2852
C32 C 1.13818(9) 0.41185(7) 0.29953(3)
C33 C 1.00366(7) 0.63232(8) 0.54950(4)
H22 H 1.0030 0.6157 0.5337
C34 C 1.05287(9) 0.64708(9) 0.55955(4)
C35 C 0.84619(8) 0.57501(8) 0.52294(3)
H23 H 0.8422 0.5434 0.5129
C36 C 1.05484(9) 0.67131(8) 0.58504(3)
H24 H 1.0884 0.6816 0.5927
C37 C 1.15706(7) 0.70933(6) 0.28945(3)
H25 H 1.1816 0.7394 0.2917
Be3 Be 1.30554(10) 0.45348(10) 0.48107(4)
C38 C 1.14543(8) 0.46604(7) 0.31210(3)
C39 C 1.16898(8) 0.46650(7) 0.33449(3)
H26 H 1.1792 0.4326 0.3418
C40 C 1.16342(7) 0.58879(7) 0.51988(3)
H27 H 1.1691 0.5578 0.5096
C41 C 1.25797(9) 0.61931(7) 0.50857(3)
C42 C 1.00381(9) 0.67756(8) 0.59662(4)
Be4 Be 1.06732(9) 0.19840(9) 0.23072(3)
C43 C 1.27712(7) 0.51123(6) 0.44335(3)
C44 C 1.00480(8) 0.70502(9) 0.62151(4)
C45 C 1.14790(9) 0.67768(9) 0.54970(3)
H28 H 1.1435 0.7080 0.5605
C46 C 1.04770(9) 0.69708(13) 0.63663(4)
H29 H 1.0773 0.6744 0.6314
Be5 Be 1.16521(8) 0.16521(8) 0.2500
C47 C 1.04987(8) 0.72123(12) 0.65974(4)
H30 H 1.0814 0.7156 0.6697
C48 C 1.23334(10) 0.55828(8) 0.38022(3)
H31 H 1.2397 0.5889 0.3698
C49 C 1.19343(11) 0.47356(9) 0.38728(4)
H32 H 1.1711 0.4434 0.3823
Be6 Be 1.04402(8) 0.82027(8) 0.22760(3)
C50 C 0.96177(8) 0.75827(9) 0.65273(3)
H33 H 0.9317 0.7811 0.6573
Be7 Be 1.13646(8) 0.86354(8) 0.2500
O18 O 1.27488(5) 0.46697(5) 0.45423(2)
C51 C 1.12122(7) 0.25999(7) 0.26115(3)
C52 C 1.21979(9) 0.47371(10) 0.41145(3)
H34 H 1.2146 0.4432 0.4221
C53 C 1.25734(8) 0.55666(10) 0.40398(3)
H35 H 1.2792 0.5866 0.4095
C54 C 1.19619(8) 0.67108(8) 0.53676(4)
H36 H 1.2244 0.6980 0.5382
O1C O 1.76597(4) 0.06521(4) 0.25584(2)
O2A O 1.03367(4) 0.20184(5) 0.701130(17)
O2D O 1.03367(4) 0.79816(5) 0.201130(17)
O2G O 1.79816(5) 0.03367(4) 0.298870(17)
O3C O 1.39774(4) 0.33916(5) 0.022050(18)
H1C H 1.3900 0.3574 0.0371
O4C O 1.50240(4) 0.33751(4) 0.010970(17)
H2C H 1.4978 0.3687 0.0007
O5A O 0.98385(3) 0.83801(4) 0.239710(16)
O5C O 1.16199(4) 0.01615(3) 0.260290(16)
O5B O 1.83801(4) -0.01615(3) 0.260290(16)
H3A H 0.9801 0.8674 0.2511
H3C H 1.1326 0.0199 0.2489
H3B H 1.8674 -0.0199 0.2489
O6C O 1.25049(4) 0.07904(4) 0.250710(19)
O7C O 1.55345(5) 0.29836(4) 0.049090(17)
O8C O 1.60804(5) 0.36254(5) 0.017310(18)
O8F O 1.39196(5) 0.36254(5) 0.517310(18)
O8E O 1.36254(5) 0.39196(5) -0.017310(18)
H4C H 1.6069 0.3941 0.0276
H4F H 1.3931 0.3941 0.5276
H4E H 1.3941 0.3931 -0.0276
O9A O 1.25241(4) 0.43854(4) 0.49854(2)
O9B O 1.43854(4) 0.25241(4) 0.00146(2)
O10C O 1.80596(4) 0.13355(4) 0.236130(16)
O10B O 1.19404(4) 0.86645(4) 0.236130(16)
O11A O 0.70607(5) 0.34361(5) 0.51226(2)
O11F O 1.34361(5) 0.29393(5) 0.48774(2)
O11E O 1.29393(5) 0.34361(5) 0.01226(2)
O12C O 1.22661(5) 0.16099(5) 0.23769(2)
C1C C 1.51386(7) 0.24944(7) 0.08155(3)
O13A O 0.73643(5) 0.42121(4) 0.49495(2)
O13C O 1.57879(4) 0.26357(5) 0.00505(2)
C2C C 1.71371(6) 0.11119(6) 0.22662(2)
C3A C 1.19723(7) 0.38858(8) 0.52578(3)
C4C C 1.76545(6) 0.10379(6) 0.24003(2)
O14B O 1.13399(4) 0.91170(4) 0.269350(16)
O14C O 1.86601(4) 0.08830(4) 0.269350(16)
H5B H 1.1027 0.9138 0.2798
H5C H 1.8973 0.0862 0.2798
C5A C 0.79616(7) 0.37226(8) 0.52236(3)
O15A O 0.94786(5) 0.22626(5) 0.704600(19)
O15E O 1.05214(5) 0.22626(5) 0.204600(19)
O15F O 1.22626(5) 0.05214(5) 0.295400(19)
O16A O 1.28505(5) 0.36142(5) 0.515160(19)
O16B O 1.36142(5) 0.28505(5) -0.015160(19)
C6C C 1.62183(7) 0.08526(8) 0.21634(3)
H6C H 1.5920 0.0604 0.2183
C7C C 1.61692(6) 0.12936(7) 0.20029(3)
C8C C 1.56373(7) 0.16440(8) 0.16491(3)
H7C H 1.5981 0.1706 0.1571
C9C C 1.51571(7) 0.20107(8) 0.12751(3)
Be1C Be 1.35606(11) 0.34227(11) 0.00068(4)
Be1G Be 1.35606(11) 0.65773(11) 0.50068(4)
Be1A Be 0.65773(11) 0.64394(11) 0.49932(4)
Be1F Be 0.64394(11) 0.34227(11) 0.50068(4)
Be1D Be 1.65773(11) 0.35606(11) -0.00068(4)
C10C C 1.40271(7) 0.09193(8) 0.21488(3)
H8C H 1.4299 0.0640 0.2162
C11C C 1.56389(7) 0.14133(7) 0.18800(3)
C12C C 1.31238(7) 0.12635(7) 0.22581(3)
C13A C 1.10506(8) 0.41508(8) 0.53478(3)
H9A H 1.0751 0.4396 0.5323
C14A C 0.99177(7) 0.24766(7) 0.66825(3)
C15C C 1.66008(7) 0.16497(8) 0.19828(3)
H10C H 1.6562 0.1964 0.1881
C16A C 1.24904(7) 0.39700(8) 0.51128(3)
Be2C Be 1.56063(9) 0.32031(10) 0.01928(4)
Be2A Be 0.67969(10) 0.43937(9) 0.48072(4)
C17C C 1.35282(8) 0.08735(7) 0.22739(3)
H11C H 1.3467 0.0559 0.2374
C18A C 0.99141(8) 0.22434(7) 0.69260(3)
C19A C 1.14362(8) 0.33399(8) 0.55271(3)
H12A H 1.1396 0.3022 0.5627
C20A C 1.04598(9) 0.33468(9) 0.58606(4)
H13A H 1.0795 0.3274 0.5944
C21C C 1.51648(7) 0.17897(9) 0.15250(4)
C22C C 1.37260(7) 0.17771(8) 0.19930(3)
H14C H 1.3795 0.2093 0.1895
C23A C 1.09822(8) 0.37103(10) 0.54996(3)
C24A C 1.19200(8) 0.34356(8) 0.54137(3)
H15A H 1.2224 0.3197 0.5440
C25A C 0.88485(7) 0.40516(8) 0.53224(3)
H16A H 0.9125 0.4326 0.5307
C26C C 1.66961(6) 0.07726(7) 0.22938(3)
H17C H 1.6719 0.0474 0.2406
C27C C 1.32189(7) 0.17425(8) 0.21186(3)
H18C H 1.2954 0.2029 0.2109
C28A C 0.89428(7) 0.36052(9) 0.54677(3)
C29A C 1.03864(9) 0.27028(11) 0.63053(3)
H19A H 1.0721 0.2719 0.6215
C30A C 1.04585(8) 0.35891(9) 0.56189(4)
O17C O 1.16218(6) 0.12178(4) 0.270640(19)
H20C H 1.1385 0.1276 0.2842
C31C C 1.51478(7) 0.13307(8) 0.19874(3)
H21C H 1.5142 0.1178 0.2148
C32C C 1.41185(7) 0.13818(9) 0.20047(3)
C33A C 0.99634(7) 0.36768(8) 0.54950(4)
H22A H 0.9970 0.3843 0.5337
C34A C 0.94713(9) 0.35292(9) 0.55955(4)
C35A C 1.15381(8) 0.42499(8) 0.52294(3)
H23A H 1.1578 0.4566 0.5129
C36A C 0.94516(9) 0.32869(8) 0.58504(3)
H24A H 0.9116 0.3184 0.5927
C37C C 1.70933(6) 0.15706(7) 0.21055(3)
H25C H 1.7394 0.1816 0.2083
Be3C Be 1.45348(10) 0.30554(10) 0.01893(4)
Be3A Be 0.69446(10) 0.54652(10) 0.48107(4)
C38C C 1.46604(7) 0.14543(8) 0.18790(3)
C39C C 1.46650(7) 0.16898(8) 0.16551(3)
H26C H 1.4326 0.1792 0.1582
C40A C 0.83658(7) 0.41121(7) 0.51988(3)
H27A H 0.8309 0.4422 0.5096
C41A C 0.74203(9) 0.38069(7) 0.50857(3)
C42A C 0.99619(9) 0.32244(8) 0.59662(4)
Be4C Be 1.19840(9) 0.06732(9) 0.26928(3)
Be4E Be 1.06732(9) 0.80160(9) 0.73072(3)
Be4D Be 0.93268(9) 0.19840(9) 0.73072(3)
Be4A Be 0.93268(9) 0.80160(9) 0.23072(3)
C43C C 1.51123(6) 0.27712(7) 0.05665(3)
C44A C 0.99520(8) 0.29498(9) 0.62151(4)
C45A C 0.85210(9) 0.32232(9) 0.54970(3)
H28A H 0.8565 0.2920 0.5605
C46A C 0.95230(9) 0.30292(13) 0.63663(4)
H29A H 0.9227 0.3256 0.6314
C47A C 0.95013(8) 0.27877(12) 0.65974(4)
H30A H 0.9186 0.2844 0.6697
C48C C 1.55828(8) 0.23334(10) 0.11978(3)
H31C H 1.5889 0.2397 0.1302
C49C C 1.47356(9) 0.19343(11) 0.11272(4)
H32C H 1.4434 0.1711 0.1177
Be6C Be 1.82027(8) 0.04402(8) 0.27240(3)
Be6D Be 0.95598(8) 0.82027(8) 0.72760(3)
Be6A Be 0.95598(8) 0.17973(8) 0.22760(3)
Be6E Be 1.04402(8) 0.17973(8) 0.72760(3)
Be6B Be 1.17973(8) 0.95598(8) 0.27240(3)
C50A C 1.03823(8) 0.24173(9) 0.65273(3)
H33A H 1.0683 0.2189 0.6573
Be7A Be 1.86354(8) 0.13646(8) 0.2500
O18C O 1.46697(5) 0.27488(5) 0.04577(2)
C51C C 1.25999(7) 0.12122(7) 0.23885(3)
C52C C 1.47371(10) 0.21979(9) 0.08855(3)
H34C H 1.4432 0.2146 0.0779
C53C C 1.55666(10) 0.25734(8) 0.09602(3)
H35C H 1.5866 0.2792 0.0905
C54A C 0.80381(8) 0.32892(8) 0.53676(4)
H36A H 0.7756 0.3020 0.5382
loop_
_geom_bond_atom_site_label_1
_geom_bond_atom_site_label_2
_geom_bond_site_symmetry_1
_geom_bond_site_symmetry_2
O1 C4 1_555 1_555
O2 C18 1_555 1_555
O3 H1 1_555 1_555
O4 H2 1_555 1_555
O5 H3 1_555 1_555
O6 Be4 1_555 1_555
O7 Be2 1_555 1_555
O8 H4 1_555 1_555
O9 C16 1_555 1_555
O10 C4 1_555 1_555
O11 C41 1_555 1_555
O12 Be5 1_555 1_555
C1 C43 1_555 1_555
O13 Be2 1_555 1_555
C2 C4 1_555 1_555
C3 C16 1_555 1_555
O14 H5 1_555 1_555
C5 C40 1_555 1_555
O15 C18 1_555 1_555
O16 C16 1_555 1_555
C6 H6 1_555 1_555
C7 C6 1_555 1_555
C8 H7 1_555 1_555
C9 C21 1_555 1_555
Be1 O3 1_555 1_555
C10 H8 1_555 1_555
C11 C7 1_555 1_555
C12 C17 1_555 1_555
C13 H9 1_555 1_555
C14 C18 1_555 1_555
C15 C7 1_555 1_555
H10 C15 1_555 1_555
Be2 O4 1_555 1_555
C17 C10 1_555 1_555
H11 C17 1_555 1_555
C19 H12 1_555 1_555
C20 H13 1_555 1_555
C21 C8 1_555 1_555
C22 H14 1_555 1_555
C23 C13 1_555 1_555
C24 C3 1_555 1_555
H15 C24 1_555 1_555
C25 H16 1_555 1_555
C26 C2 1_555 1_555
H17 C26 1_555 1_555
C27 C12 1_555 1_555
H18 C27 1_555 1_555
C28 C25 1_555 1_555
C29 H19 1_555 1_555
C30 C20 1_555 1_555
O17 H20 1_555 1_555
C31 C11 1_555 1_555
H21 C31 1_555 1_555
C32 C10 1_555 1_555
C33 C30 1_555 1_555
H22 C33 1_555 1_555
C34 C28 1_555 1_555
C35 C3 1_555 1_555
H23 C35 1_555 1_555
C36 C34 1_555 1_555
H24 C36 1_555 1_555
C37 C2 1_555 1_555
H25 C37 1_555 1_555
Be3 O3 1_555 1_555
C38 C31 1_555 1_555
C39 C21 1_555 1_555
H26 C39 1_555 1_555
C40 C25 1_555 1_555
H27 C40 1_555 1_555
C41 O13 1_555 1_555
C42 C20 1_555 1_555
Be4 O5 1_555 1_555
C43 O7 1_555 1_555
C44 C29 1_555 1_555
C45 C28 1_555 1_555
H28 C45 1_555 1_555
C46 C44 1_555 1_555
H29 C46 1_555 1_555
Be5 O17 1_555 1_555
C47 C14 1_555 1_555
H30 C47 1_555 1_555
C48 C9 1_555 1_555
H31 C48 1_555 1_555
C49 C9 1_555 1_555
H32 C49 1_555 1_555
Be6 O1 1_555 1_555
C50 C14 1_555 1_555
H33 C50 1_555 1_555
Be7 O10 1_555 1_555
O18 Be3 1_555 1_555
C51 O6 1_555 1_555
C52 C1 1_555 1_555
H34 C52 1_555 1_555
C53 C1 1_555 1_555
H35 C53 1_555 1_555
C54 C5 1_555 1_555
H36 C54 1_555 1_555
O1C C4C 1_555 1_555
O2A C18A 1_555 1_555
O2D Be6 1_555 1_555
O2G Be6C 1_555 1_555
O3C H1C 1_555 1_555
O4C H2C 1_555 1_555
O5A Be6 1_555 1_555
O5C H3C 1_555 1_555
O5B H3B 1_555 1_555
H3A O5A 1_555 1_555
O6C Be4C 1_555 1_555
O7C Be2C 1_555 1_555
O8C H4C 1_555 1_555
O8F Be1 1_555 1_555
O8E H4E 1_555 1_555
H4F O8F 1_555 1_555
O9A Be3 1_555 1_555
O9B Be3C 1_555 1_555
O10C C4C 1_555 1_555
O10B Be7 1_555 1_555
O11A Be1F 1_555 1_555
O11F Be1 1_555 1_555
O11E Be1C 1_555 1_555
O12C Be5 1_555 1_555
C1C C43C 1_555 1_555
O13A Be2A 1_555 1_555
O13C Be2C 1_555 1_555
C2C C4C 1_555 1_555
C3A C16A 1_555 1_555
O14B Be7 1_555 1_555
O14C H5C 1_555 1_555
H5B O14B 1_555 1_555
C5A C40A 1_555 1_555
O15A C18A 1_555 1_555
O15E Be4 1_555 1_555
O15F Be4C 1_555 1_555
O16A Be1 1_555 1_555
O16B Be1C 1_555 1_555
C6C H6C 1_555 1_555
C7C C6C 1_555 1_555
C8C H7C 1_555 1_555
C9C C21C 1_555 1_555
Be1C O3C 1_555 1_555
Be1G O8 1_555 1_555
Be1A O16 1_555 1_555
Be1D O8C 1_555 1_555
C10C H8C 1_555 1_555
C11C C7C 1_555 1_555
C12C C17C 1_555 1_555
C13A H9A 1_555 1_555
C14A C18A 1_555 1_555
C15C C7C 1_555 1_555
H10C C15C 1_555 1_555
C16A O9A 1_555 1_555
Be2C O4C 1_555 1_555
C17C C10C 1_555 1_555
H11C C17C 1_555 1_555
C19A H12A 1_555 1_555
C20A H13A 1_555 1_555
C21C C8C 1_555 1_555
C22C H14C 1_555 1_555
C23A C13A 1_555 1_555
C24A C3A 1_555 1_555
H15A C24A 1_555 1_555
C25A H16A 1_555 1_555
C26C C2C 1_555 1_555
H17C C26C 1_555 1_555
C27C C12C 1_555 1_555
H18C C27C 1_555 1_555
C28A C25A 1_555 1_555
C29A H19A 1_555 1_555
C30A C20A 1_555 1_555
O17C Be5 1_555 1_555
H20C O17C 1_555 1_555
C31C C11C 1_555 1_555
H21C C31C 1_555 1_555
C32C C10C 1_555 1_555
C33A C30A 1_555 1_555
H22A C33A 1_555 1_555
C34A C28A 1_555 1_555
C35A C3A 1_555 1_555
H23A C35A 1_555 1_555
C36A C34A 1_555 1_555
H24A C36A 1_555 1_555
C37C C2C 1_555 1_555
H25C C37C 1_555 1_555
Be3C O3C 1_555 1_555
Be3A O9 1_555 1_555
C38C C31C 1_555 1_555
C39C C21C 1_555 1_555
H26C C39C 1_555 1_555
C40A C25A 1_555 1_555
H27A C40A 1_555 1_555
C41A O11A 1_555 1_555
C42A C20A 1_555 1_555
Be4C O5C 1_555 1_555
Be4E O15 1_555 1_555
Be4D O15A 1_555 1_555
Be4A O5A 1_555 1_555
C43C O7C 1_555 1_555
C44A C29A 1_555 1_555
C45A C28A 1_555 1_555
H28A C45A 1_555 1_555
C46A C44A 1_555 1_555
H29A C46A 1_555 1_555
C47A C14A 1_555 1_555
H30A C47A 1_555 1_555
C48C C9C 1_555 1_555
H31C C48C 1_555 1_555
C49C C9C 1_555 1_555
H32C C49C 1_555 1_555
Be6C O1C 1_555 1_555
Be6D O2 1_555 1_555
Be6A O5 1_555 1_555
Be6E O2A 1_555 1_555
Be6B O14B 1_555 1_555
C50A C14A 1_555 1_555
H33A C50A 1_555 1_555
Be7A O10C 1_555 1_555
O18C Be3C 1_555 1_555
C51C O6C 1_555 1_555
C52C C1C 1_555 1_555
H34C C52C 1_555 1_555
C53C C1C 1_555 1_555
H35C C53C 1_555 1_555
C54A C5A 1_555 1_555
H36A C54A 1_555 1_555
O4 Be3 1_555 1_555
O8 Be2 1_555 1_555
O11 Be1G 1_555 1_555
O12 C51 1_555 1_555
O14 Be6 1_555 1_555
O14 Be7 1_555 1_555
C5 C41 1_555 1_555
C6 C26 1_555 1_555
C8 C11 1_555 1_555
C12 C51 1_555 1_555
C13 C35 1_555 1_555
C15 C37 1_555 1_555
C19 C23 1_555 1_555
C19 C24 1_555 1_555
C22 C27 1_555 1_555
C22 C32 1_555 1_555
C23 C30 1_555 1_555
C29 C50 1_555 1_555
O17 Be4 1_555 1_555
C32 C38 1_555 1_555
C33 C34 1_555 1_555
C36 C42 1_555 1_555
C38 C39 1_555 1_555
C42 C44 1_555 1_555
C43 O18 1_555 1_555
C45 C54 1_555 1_555
C46 C47 1_555 1_555
C48 C53 1_555 1_555
C49 C52 1_555 1_555
O4C Be3C 1_555 1_555
O5B Be6C 1_555 1_555
O8C Be2C 1_555 1_555
O8E Be1C 1_555 1_555
O12C C51C 1_555 1_555
O13A C41A 1_555 1_555
O14C Be6C 1_555 1_555
O14C Be7A 1_555 1_555
C5A C41A 1_555 1_555
O16A C16A 1_555 1_555
C6C C26C 1_555 1_555
C8C C11C 1_555 1_555
C12C C51C 1_555 1_555
C13A C35A 1_555 1_555
C15C C37C 1_555 1_555
C19A C23A 1_555 1_555
C19A C24A 1_555 1_555
C22C C27C 1_555 1_555
C22C C32C 1_555 1_555
C23A C30A 1_555 1_555
C29A C50A 1_555 1_555
O17C Be4C 1_555 1_555
C32C C38C 1_555 1_555
C33A C34A 1_555 1_555
C36A C42A 1_555 1_555
C38C C39C 1_555 1_555
C42A C44A 1_555 1_555
C43C O18C 1_555 1_555
C45A C54A 1_555 1_555
C46A C47A 1_555 1_555
C48C C53C 1_555 1_555
C49C C52C 1_555 1_555

#END
