
#######################################################################
#
#                 Cambridge Crystallographic Data Centre
#                                CCDC 
#
#######################################################################
#
# If this CIF has been generated from an entry in the Cambridge 
# Structural Database, then it will include bibliographic, chemical, 
# crystal, experimental, refinement or atomic coordinate data resulting 
# from the CCDC's data processing and validation procedures.
#
#######################################################################

data_OJAKOA
_symmetry_cell_setting           monoclinic
_symmetry_space_group_name_H-M   'P 21/c'
_symmetry_Int_Tables_number      14
_space_group_name_Hall           '-P 2ybc'
loop_
_symmetry_equiv_pos_site_id
_symmetry_equiv_pos_as_xyz
1 x,y,z
2 -x,1/2+y,1/2-z
3 -x,-y,-z
4 x,1/2-y,1/2+z
_cell_length_a                   15.1313(16)
_cell_length_b                   16.8284(17)
_cell_length_c                   9.0167(10)
_cell_angle_alpha                90
_cell_angle_beta                 103.841(2)
_cell_angle_gamma                90
_cell_volume                     2229.31
loop_
_atom_site_label
_atom_site_type_symbol
_atom_site_fract_x
_atom_site_fract_y
_atom_site_fract_z
Pr1 Pr -0.038542(17) 0.109133(14) 0.56729(3)
O1 O 0.0073(2) 0.0171(2) 0.7818(4)
O2 O 0.0699(2) -0.0933(2) 0.7133(4)
O3 O 0.2047(2) -0.08925(19) 0.9779(4)
O4 O 0.4071(3) 0.1309(3) 0.5704(6)
O5 O 0.6480(2) 0.01547(19) 0.7254(3)
O6 O 0.79920(19) 0.04860(17) 0.6120(4)
O7 O 0.8707(3) -0.1456(2) 0.5370(6)
O8 O 0.9096(2) -0.0273(2) 0.4779(4)
O9 O 0.79655(19) 0.17065(18) 0.4279(3)
O10 O 0.9011(2) 0.3196(2) 0.2520(4)
O11 O 0.9558(2) 0.24159(19) 0.4518(4)
C1 C 0.0623(3) -0.0397(3) 0.8060(5)
C2 C 0.1226(3) -0.0447(3) 0.9672(5)
H1 H 0.1385 0.0088 1.0044
H2 H 0.0881 -0.0690 1.0331
C3 C 0.2704(3) -0.0546(3) 0.9171(5)
C4 C 0.2666(3) 0.0211(3) 0.8559(6)
H3 H 0.2163 0.0533 0.8537
C5 C 0.3379(3) 0.0489(3) 0.7979(6)
H4 H 0.3344 0.1000 0.7577
C6 C 0.4144(3) 0.0031(3) 0.7978(5)
C7 C 0.4176(3) -0.0728(3) 0.8623(5)
H5 H 0.4678 -0.1051 0.8654
C8 C 0.3472(3) -0.1006(3) 0.9216(6)
H6 H 0.3513 -0.1510 0.9652
C9 C 0.4795(3) 0.0961(3) 0.6223(6)
C10 C 0.4909(3) 0.0316(3) 0.7336(5)
C11 C 0.5732(3) -0.0031(3) 0.7768(5)
H7 H 0.5795 -0.0436 0.8488
C12 C 0.6423(3) 0.0752(3) 0.6222(5)
C13 C 0.7199(3) 0.0911(3) 0.5681(5)
C14 C 0.7169(3) 0.1551(3) 0.4696(5)
C15 C 0.6363(3) 0.1985(3) 0.4172(5)
H8 H 0.6343 0.2400 0.3484
C16 C 0.5606(3) 0.1795(3) 0.4677(6)
H9 H 0.5073 0.2083 0.4318
C17 C 0.5616(3) 0.1183(3) 0.5715(5)
C18 C 0.7906(3) -0.0382(3) 0.6083(6)
H10 H 0.7304 -0.0531 0.5497
H11 H 0.7982 -0.0584 0.7114
C19 C 0.8623(3) -0.0737(3) 0.5363(6)
C20 C 0.7983(3) 0.2359(3) 0.3265(6)
H12 H 0.7598 0.2784 0.3479
H13 H 0.7745 0.2188 0.2219
C21 C 0.8941(3) 0.2663(3) 0.3454(5)
O12 O 0.0889(3) 0.1824(3) 0.7512(6)
H14 H 0.0708 0.1919 0.8317
H15 H 0.1281 0.1453 0.7718
Pr1B Pr 0.038542(17) -0.109133(14) 0.43271(3)
Pr1_2 Pr 0.961458(17) 0.109133(14) 0.56729(3)
Pr1B_2 Pr 1.038542(17) -0.109133(14) 0.43271(3)
Pr1C Pr 0.961458(17) 0.390867(14) 0.06729(3)
O2B O -0.0699(2) 0.0933(2) 0.2867(4)
O6_2 O -0.20080(19) 0.04860(17) 0.6120(4)
O8B O 0.0904(2) 0.0273(2) 0.5221(4)
O8_2 O -0.0904(2) -0.0273(2) 0.4779(4)
O9_2 O -0.20345(19) 0.17065(18) 0.4279(3)
O10C O -0.0989(2) 0.1804(2) 0.7520(4)
O11_2 O -0.0442(2) 0.24159(19) 0.4518(4)
O13 O 0.2552(8) 0.2574(6) 0.8247(17)
H16 H 0.3044 0.2452 0.8883
H17 H 0.2400 0.3037 0.8471
O14 O 0.3609(10) 0.2978(7) 0.6135(18)
H18 H 0.4159 0.3049 0.6617
H19 H 0.3561 0.3124 0.5216
O15 O 0.1173(11) 0.3364(8) 0.5772(19)
H20 H 0.1006 0.3773 0.5224
H21 H 0.0697 0.3104 0.5811
loop_
_geom_bond_atom_site_label_1
_geom_bond_atom_site_label_2
_geom_bond_site_symmetry_1
_geom_bond_site_symmetry_2
Pr1 O1 1_555 1_555
O1 C1 1_555 1_555
O2 C1 1_555 1_555
O3 C2 1_555 1_555
O4 C9 1_555 1_555
O5 C11 1_555 1_555
O6 C13 1_555 1_555
O7 C19 1_555 1_555
O8 C19 1_555 1_555
O9 C14 1_555 1_555
O10 C21 1_555 1_555
O11 C21 1_555 1_555
C1 C2 1_555 1_555
C2 H1 1_555 1_555
H2 C2 1_555 1_555
C3 O3 1_555 1_555
C4 C3 1_555 1_555
H3 C4 1_555 1_555
C5 C4 1_555 1_555
H4 C5 1_555 1_555
C6 C5 1_555 1_555
C7 C6 1_555 1_555
H5 C7 1_555 1_555
C8 C3 1_555 1_555
H6 C8 1_555 1_555
C9 C10 1_555 1_555
C10 C6 1_555 1_555
C11 C10 1_555 1_555
H7 C11 1_555 1_555
C12 O5 1_555 1_555
C13 C12 1_555 1_555
C14 C13 1_555 1_555
C15 C14 1_555 1_555
H8 C15 1_555 1_555
C16 C15 1_555 1_555
H9 C16 1_555 1_555
C17 C9 1_555 1_555
C18 O6 1_555 1_555
H10 C18 1_555 1_555
H11 C18 1_555 1_555
C19 C18 1_555 1_555
C20 O9 1_555 1_555
H12 C20 1_555 1_555
H13 C20 1_555 1_555
C21 C20 1_555 1_555
O12 Pr1 1_555 1_555
H14 O12 1_555 1_555
H15 O12 1_555 1_555
O13 H16 1_555 1_555
H17 O13 1_555 1_555
O14 H18 1_555 1_555
H19 O14 1_555 1_555
O15 H20 1_555 1_555
H21 O15 1_555 1_555
Pr1B O2 1_555 1_555
Pr1_2 O6 1_555 1_555
Pr1B_2 O8 1_555 1_555
Pr1C O10 1_555 1_555
O2B Pr1 1_555 1_555
O6_2 Pr1 1_555 1_555
O8B Pr1 1_555 1_555
O8_2 Pr1 1_555 1_555
O9_2 Pr1 1_555 1_555
O10C Pr1 1_555 1_555
O11_2 Pr1 1_555 1_555
O8 Pr1_2 1_555 1_555
O9 Pr1_2 1_555 1_555
O11 Pr1_2 1_555 1_555
C7 C8 1_555 1_555
C12 C17 1_555 1_555
C16 C17 1_555 1_555
Pr1B O8B 1_555 1_555
Pr1B O8_2 1_555 1_555

#END
