
#######################################################################
#
#                 Cambridge Crystallographic Data Centre
#                                CCDC 
#
#######################################################################
#
# If this CIF has been generated from an entry in the Cambridge 
# Structural Database, then it will include bibliographic, chemical, 
# crystal, experimental, refinement or atomic coordinate data resulting 
# from the CCDC's data processing and validation procedures.
#
#######################################################################

data_OKITAE
_symmetry_cell_setting           orthorhombic
_symmetry_space_group_name_H-M   'P n a 21'
_symmetry_Int_Tables_number      33
_space_group_name_Hall           'P 2c -2n'
loop_
_symmetry_equiv_pos_site_id
_symmetry_equiv_pos_as_xyz
1 x,y,z
2 -x,-y,1/2+z
3 1/2-x,1/2+y,1/2+z
4 1/2+x,1/2-y,z
_cell_length_a                   9.6227(3)
_cell_length_b                   16.7625(5)
_cell_length_c                   7.1301(2)
_cell_angle_alpha                90
_cell_angle_beta                 90
_cell_angle_gamma                90
_cell_volume                     1150.09
loop_
_atom_site_label
_atom_site_type_symbol
_atom_site_fract_x
_atom_site_fract_y
_atom_site_fract_z
H1 H 0.702(7) 0.498(4) 0.267(19)
Cd1 Cd 0.71741(4) 0.34303(2) 0.2929(4)
Cd2 Cd 0.50048(19) 0.49976(11) 0.0424(5)
S1 S 0.85679(16) 0.15172(8) 0.2948(9)
C1 C 0.7741(7) 0.3176(4) -0.201(3)
C2 C 0.8813(8) 0.2540(4) -0.1909(17)
H2 H 0.9008 0.2418 -0.0620
H3 H 0.9647 0.2720 -0.2513
H4 H 0.8476 0.2070 -0.2532
N1 N 0.7179(14) 0.3509(9) -0.0465(19)
N2 N 0.6319(17) 0.4079(7) -0.1243(16)
N3 N 0.6311(15) 0.4042(7) -0.3063(16)
N4 N 0.7215(14) 0.3505(9) -0.358(2)
O1 O 0.7407(4) 0.2084(2) 0.283(2)
O2 O 0.9889(5) 0.1952(2) 0.2760(17)
O3 O 0.8482(11) 0.0992(6) 0.4644(10)
O4 O 0.8475(12) 0.1029(7) 0.1292(13)
O5 O 0.6345(5) 0.4697(2) 0.3030(18)
O6 O 0.9486(5) 0.3631(3) 0.283(3)
H1A H 0.298(7) 0.502(4) -0.233(19)
Cd1_2 Cd 0.71741(4) 0.34303(2) -0.7071(4)
Cd1C Cd 1.21741(4) 0.15697(2) 0.2929(4)
Cd2A Cd 0.49952(19) 0.50024(11) -0.4576(5)
Cd2B Cd 0.99952(19) -0.00024(11) 0.5424(5)
Cd2C Cd 1.00048(19) 0.00024(11) 0.0424(5)
Cd2A_2 Cd 0.49952(19) 0.50024(11) 0.5424(5)
N3A N 0.3689(15) 0.5958(7) 0.1937(16)
N4_2 N 0.7215(14) 0.3505(9) 0.642(2)
O2C O 0.4889(5) 0.3048(2) 0.2760(17)
O3B O 0.6518(11) 0.5992(6) -0.0356(10)
O4C O 0.3475(12) 0.3971(7) 0.1292(13)
O5A O 0.3655(5) 0.5303(2) -0.1970(18)
O7 O 0.9222(9) 0.5480(6) 0.5332(14)
O8 O 0.8933(11) 0.5680(8) 0.1616(15)
loop_
_geom_bond_atom_site_label_1
_geom_bond_atom_site_label_2
_geom_bond_site_symmetry_1
_geom_bond_site_symmetry_2
H1 O5 1_555 1_555
Cd1 N1 1_555 1_555
Cd2 N2 1_555 1_555
S1 O1 1_555 1_555
C1 C2 1_555 1_555
C2 H2 1_555 1_555
H3 C2 1_555 1_555
H4 C2 1_555 1_555
N1 C1 1_555 1_555
N2 N1 1_555 1_555
N3 N2 1_555 1_555
N4 C1 1_555 1_555
O1 Cd1 1_555 1_555
O2 S1 1_555 1_555
O3 S1 1_555 1_555
O4 S1 1_555 1_555
O5 Cd1 1_555 1_555
O6 Cd1 1_555 1_555
H1A O5A 1_555 1_555
Cd1_2 N4 1_555 1_555
Cd1C O2 1_555 1_555
Cd2A N3 1_555 1_555
Cd2B O3 1_555 1_555
Cd2C O4 1_555 1_555
Cd2A_2 O5 1_555 1_555
N3A Cd2 1_555 1_555
N4_2 Cd1 1_555 1_555
O2C Cd1 1_555 1_555
O3B Cd2 1_555 1_555
O4C Cd2 1_555 1_555
O5A Cd2 1_555 1_555
Cd2 O5 1_555 1_555
N3 N4 1_555 1_555
Cd2A O5A 1_555 1_555

#END
