
#######################################################################
#
#                 Cambridge Crystallographic Data Centre
#                                CCDC 
#
#######################################################################
#
# If this CIF has been generated from an entry in the Cambridge 
# Structural Database, then it will include bibliographic, chemical, 
# crystal, experimental, refinement or atomic coordinate data resulting 
# from the CCDC's data processing and validation procedures.
#
#######################################################################

data_OKIYAJ01
_symmetry_cell_setting           tetragonal
_symmetry_space_group_name_H-M   'P 43 21 2'
_symmetry_Int_Tables_number      96
_space_group_name_Hall           'P 4nw 2abw'
loop_
_symmetry_equiv_pos_site_id
_symmetry_equiv_pos_as_xyz
1 x,y,z
2 -x,-y,1/2+z
3 1/2-y,1/2+x,3/4+z
4 1/2+y,1/2-x,1/4+z
5 1/2-x,1/2+y,3/4-z
6 1/2+x,1/2-y,1/4-z
7 y,x,-z
8 -y,-x,1/2-z
_cell_length_a                   15.8809(12)
_cell_length_b                   15.8809(12)
_cell_length_c                   21.810(3)
_cell_angle_alpha                90
_cell_angle_beta                 90
_cell_angle_gamma                90
_cell_volume                     5500.55
loop_
_atom_site_label
_atom_site_type_symbol
_atom_site_fract_x
_atom_site_fract_y
_atom_site_fract_z
C1 C -0.8007(4) -0.8432(4) -0.4244(3)
H1 H -0.7699 -0.8599 -0.4598
C2 C -0.7661(4) -0.7825(4) -0.3861(3)
H2 H -0.7125 -0.7593 -0.3954
C3 C -0.8084(4) -0.7558(4) -0.3352(3)
C4 C -0.8831(4) -0.7987(4) -0.3212(3)
H3 H -0.9127 -0.7863 -0.2845
C5 C -0.9132(4) -0.8590(4) -0.3609(3)
H4 H -0.9635 -0.8878 -0.3502
C6 C -0.7778(4) -0.6826(4) -0.2978(3)
C7 C -0.7181(4) -0.6289(4) -0.3233(3)
H5 H -0.6975 -0.6397 -0.3635
C8 C -0.6884(4) -0.5602(3) -0.2910(3)
C9 C -0.7170(4) -0.5445(4) -0.2320(3)
H6 H -0.6971 -0.4974 -0.2094
C10 C -0.7765(5) -0.6003(4) -0.2063(3)
H7 H -0.7970 -0.5904 -0.1660
C11 C -0.8053(4) -0.6689(4) -0.2387(3)
H8 H -0.8441 -0.7067 -0.2203
C12 C -0.6271(3) -0.5049(4) -0.3205(3)
C13 C -0.5758(3) -0.4089(3) -0.3817(3)
C14 C -0.5680(3) -0.3390(4) -0.4258(3)
C15 C -0.4960(4) -0.3364(4) -0.4628(3)
H9 H -0.4546 -0.3793 -0.4598
C16 C -0.4860(5) -0.2715(4) -0.5031(4)
H10 H -0.4371 -0.2700 -0.5282
C17 C -0.5442(4) -0.2086(4) -0.5085(3)
H11 H -0.5364 -0.1651 -0.5378
C18 C -0.6158(4) -0.2087(4) -0.4704(3)
C19 C -0.6267(4) -0.2750(4) -0.4301(3)
H12 H -0.6755 -0.2766 -0.4050
C20 C -0.6817(4) -0.1421(4) -0.4765(3)
C21 C -0.6914(4) -0.0958(4) -0.5283(3)
H13 H -0.6519 -0.1023 -0.5606
C22 C -0.7579(4) -0.0386(4) -0.5355(3)
H14 H -0.7632 -0.0089 -0.5732
C23 C -0.8026(4) -0.0681(4) -0.4384(3)
H15 H -0.8410 -0.0585 -0.4058
C24 C -0.7392(4) -0.1248(4) -0.4294(3)
H16 H -0.7341 -0.1527 -0.3911
Cd1 Cd -0.44193(2) -0.55807(2) -0.2500
N2 N -0.8758(3) -0.8793(3) -0.4137(2)
N3 N -0.5440(3) -0.5060(3) -0.3160(2)
N4 N -0.5117(3) -0.4443(3) -0.3547(2)
N5 N -0.6490(3) -0.4447(3) -0.3609(2)
N6 N -0.7300(4) -0.4270(3) -0.3831(3)
H26 H -0.7560 -0.4762 -0.3932
H27 H -0.7601 -0.4004 -0.3534
N7 N -0.8137(3) -0.0248(3) -0.4912(3)
C1G C -0.1568(4) -0.1993(4) -0.0756(3)
H1G H -0.1401 -0.2301 -0.0402
C2G C -0.2175(4) -0.2339(4) -0.1139(3)
H2G H -0.2407 -0.2875 -0.1046
C3G C -0.2442(4) -0.1916(4) -0.1648(3)
C4G C -0.2013(4) -0.1169(4) -0.1788(3)
H3G H -0.2137 -0.0873 -0.2155
C5G C -0.1410(4) -0.0868(4) -0.1391(3)
H4G H -0.1122 -0.0365 -0.1498
C6G C -0.3174(4) -0.2222(4) -0.2022(3)
C7G C -0.3711(4) -0.2819(4) -0.1767(3)
H5G H -0.3603 -0.3025 -0.1365
C8G C -0.4398(3) -0.3116(4) -0.2090(3)
C9G C -0.4555(4) -0.2830(4) -0.2680(3)
H6G H -0.5026 -0.3029 -0.2906
C10G C -0.3997(4) -0.2235(5) -0.2937(3)
H7G H -0.4096 -0.2030 -0.3340
C11G C -0.3311(4) -0.1947(4) -0.2613(3)
H8G H -0.2933 -0.1559 -0.2797
C12G C -0.4951(4) -0.3729(3) -0.1795(3)
C13G C -0.5911(3) -0.4242(3) -0.1183(3)
C14G C -0.6610(4) -0.4320(3) -0.0742(3)
C15G C -0.6636(4) -0.5040(4) -0.0372(3)
H9G H -0.6207 -0.5454 -0.0402
C16G C -0.7285(4) -0.5140(5) 0.0031(4)
H10G H -0.7300 -0.5629 0.0282
C17G C -0.7914(4) -0.4558(4) 0.0085(3)
H11G H -0.8349 -0.4636 0.0378
C18G C -0.7913(4) -0.3842(4) -0.0296(3)
C19G C -0.7250(4) -0.3733(4) -0.0699(3)
H12G H -0.7234 -0.3245 -0.0950
C20G C -0.8579(4) -0.3183(4) -0.0235(3)
C21G C -0.9042(4) -0.3086(4) 0.0283(3)
H13G H -0.8977 -0.3481 0.0606
C22G C -0.9614(4) -0.2421(4) 0.0355(3)
H14G H -0.9911 -0.2368 0.0732
C23G C -0.9319(4) -0.1974(4) -0.0616(3)
H15G H -0.9415 -0.1590 -0.0942
C24G C -0.8752(4) -0.2608(4) -0.0706(3)
H16G H -0.8473 -0.2659 -0.1089
Cd1B Cd -0.94193(2) -0.94193(2) -0.5000
Cd1C Cd -0.05807(2) -0.05807(2) 0.0000
Cd1B_2 Cd -0.94193(2) 0.05807(2) -0.5000
Cd1C_2 Cd -1.05807(2) -0.05807(2) 0.0000
N2E N -0.3758(3) -0.6207(3) -0.3363(2)
N2C N -0.3793(3) -0.6242(3) -0.1637(2)
N2G N -0.1207(3) -0.1242(3) -0.0863(2)
N3G N -0.4940(3) -0.4560(3) -0.1840(2)
N4G N -0.5557(3) -0.4883(3) -0.1453(2)
N5G N -0.5553(3) -0.3510(3) -0.1391(2)
N6G N -0.5730(3) -0.2700(4) -0.1169(3)
H26G H -0.5238 -0.2440 -0.1068
H27G H -0.5996 -0.2399 -0.1466
N7E N -0.3137(3) -0.4752(3) -0.2588(3)
N7C N -0.5248(3) -0.6863(3) -0.2412(3)
N7G N -0.9752(3) -0.1863(3) -0.0088(3)
C25 C 0.4130(12) -0.0304(11) 0.2580(9)
C26 C 0.3761(12) -0.0701(13) 0.2080(10)
H17 H 0.3313 -0.1088 0.2141
C27 C 0.4046(13) -0.0531(14) 0.1491(9)
H18 H 0.3794 -0.0802 0.1149
C28 C 0.4702(11) 0.0036(12) 0.1401(9)
C29 C 0.5072(11) 0.0433(12) 0.1902(10)
H19 H 0.5520 0.0820 0.1841
C30 C 0.4786(12) 0.0263(12) 0.2491(9)
C31 C 0.3824(17) -0.0489(17) 0.3220(10)
H21 H 0.3363 -0.0899 0.3202
H22 H 0.3622 0.0032 0.3411
H23 H 0.4287 -0.0721 0.3464
N1 N 0.4974(16) 0.0194(17) 0.0834(10)
H24 H 0.5390 0.0551 0.0774
Cl1 Cl 0.12329(16) -0.12329(16) 0.2500
O3 O 0.1118(12) -0.1834(12) 0.2137(10)
O4 O 0.121(2) -0.0653(12) 0.2123(7)
O3G O 0.1834(12) -0.1118(12) 0.2863(10)
O4G O 0.0653(12) -0.121(2) 0.2877(7)
Cl2 Cl 0.23093(15) -0.76907(15) 0.0000
O1 O 0.2661(8) -0.7369(8) -0.0510(3)
O5 O 0.2895(14) -0.8496(11) 0.0031(17)
O1F O 0.2631(8) -0.7339(8) 0.0510(3)
O5F O 0.1504(11) -0.7105(14) -0.0031(17)
H20? H 0.5039 0.0534 0.2833
H25? H 0.4737 -0.0059 0.0519
O2? O 0.1703(5) -0.8297(5) 0.0000
loop_
_geom_bond_atom_site_label_1
_geom_bond_atom_site_label_2
_geom_bond_site_symmetry_1
_geom_bond_site_symmetry_2
C1 H1 1_555 1_555
C2 C1 1_555 1_555
H2 C2 1_555 1_555
C3 C2 1_555 1_555
C4 C3 1_555 1_555
H3 C4 1_555 1_555
C5 C4 1_555 1_555
H4 C5 1_555 1_555
C6 C3 1_555 1_555
C7 C6 1_555 1_555
H5 C7 1_555 1_555
C8 C7 1_555 1_555
C9 C8 1_555 1_555
H6 C9 1_555 1_555
C10 C9 1_555 1_555
H7 C10 1_555 1_555
C11 C6 1_555 1_555
H8 C11 1_555 1_555
C12 C8 1_555 1_555
C13 C14 1_555 1_555
C14 C15 1_555 1_555
C15 H9 1_555 1_555
C16 C15 1_555 1_555
H10 C16 1_555 1_555
C17 C16 1_555 1_555
H11 C17 1_555 1_555
C18 C17 1_555 1_555
C19 C14 1_555 1_555
H12 C19 1_555 1_555
C20 C18 1_555 1_555
C21 C20 1_555 1_555
H13 C21 1_555 1_555
C22 C21 1_555 1_555
H14 C22 1_555 1_555
C23 H15 1_555 1_555
C24 C20 1_555 1_555
H16 C24 1_555 1_555
C25 C26 1_555 1_555
C26 H17 1_555 1_555
C27 C26 1_555 1_555
H18 C27 1_555 1_555
C28 C27 1_555 1_555
C29 C28 1_555 1_555
H19 C29 1_555 1_555
C30 C25 1_555 1_555
C31 C25 1_555 1_555
H21 C31 1_555 1_555
H22 C31 1_555 1_555
H23 C31 1_555 1_555
N1 C28 1_555 1_555
H24 N1 1_555 1_555
Cd1 N3 1_555 1_555
Cl1 O3 1_555 1_555
Cl2 O1 1_555 1_555
N2 C1 1_555 1_555
N3 C12 1_555 1_555
N4 C13 1_555 1_555
N5 C12 1_555 1_555
N6 N5 1_555 1_555
H26 N6 1_555 1_555
H27 N6 1_555 1_555
N7 C22 1_555 1_555
O4 Cl1 1_555 1_555
O5 Cl2 1_555 1_555
C1G H1G 1_555 1_555
C2G C1G 1_555 1_555
H2G C2G 1_555 1_555
C3G C2G 1_555 1_555
C4G C3G 1_555 1_555
H3G C4G 1_555 1_555
C5G C4G 1_555 1_555
H4G C5G 1_555 1_555
C6G C3G 1_555 1_555
C7G C6G 1_555 1_555
H5G C7G 1_555 1_555
C8G C7G 1_555 1_555
C9G C8G 1_555 1_555
H6G C9G 1_555 1_555
C10G C9G 1_555 1_555
H7G C10G 1_555 1_555
C11G C6G 1_555 1_555
H8G C11G 1_555 1_555
C12G C8G 1_555 1_555
C13G C14G 1_555 1_555
C14G C15G 1_555 1_555
C15G H9G 1_555 1_555
C16G C15G 1_555 1_555
H10G C16G 1_555 1_555
C17G C16G 1_555 1_555
H11G C17G 1_555 1_555
C18G C17G 1_555 1_555
C19G C14G 1_555 1_555
H12G C19G 1_555 1_555
C20G C18G 1_555 1_555
C21G C20G 1_555 1_555
H13G C21G 1_555 1_555
C22G C21G 1_555 1_555
H14G C22G 1_555 1_555
C23G H15G 1_555 1_555
C24G C20G 1_555 1_555
H16G C24G 1_555 1_555
Cd1B N2 1_555 1_555
Cd1C N2G 1_555 1_555
Cd1B_2 N7 1_555 1_555
Cd1C_2 N7G 1_555 1_555
N2E Cd1 1_555 1_555
N2C Cd1 1_555 1_555
N2G C1G 1_555 1_555
N3G Cd1 1_555 1_555
N4G C13G 1_555 1_555
N5G C12G 1_555 1_555
N6G N5G 1_555 1_555
H26G N6G 1_555 1_555
H27G N6G 1_555 1_555
N7E Cd1 1_555 1_555
N7C Cd1 1_555 1_555
N7G C22G 1_555 1_555
O1F Cl2 1_555 1_555
O3G Cl1 1_555 1_555
O4G Cl1 1_555 1_555
O5F Cl2 1_555 1_555
C5 N2 1_555 1_555
C10 C11 1_555 1_555
C13 N5 1_555 1_555
C18 C19 1_555 1_555
C23 C24 1_555 1_555
C23 N7 1_555 1_555
C29 C30 1_555 1_555
N3 N4 1_555 1_555
C5G N2G 1_555 1_555
C10G C11G 1_555 1_555
C12G N3G 1_555 1_555
C13G N5G 1_555 1_555
C18G C19G 1_555 1_555
C23G C24G 1_555 1_555
C23G N7G 1_555 1_555
N3G N4G 1_555 1_555

#END
