
#######################################################################
#
#                 Cambridge Crystallographic Data Centre
#                                CCDC 
#
#######################################################################
#
# If this CIF has been generated from an entry in the Cambridge 
# Structural Database, then it will include bibliographic, chemical, 
# crystal, experimental, refinement or atomic coordinate data resulting 
# from the CCDC's data processing and validation procedures.
#
#######################################################################

data_OLEKUM
_symmetry_cell_setting           tetragonal
_symmetry_space_group_name_H-M   'I 41/a c d'
_symmetry_Int_Tables_number      142
_space_group_name_Hall           '-I 4bd 2c'
loop_
_symmetry_equiv_pos_site_id
_symmetry_equiv_pos_as_xyz
1 x,y,z
2 1/2-x,-y,1/2+z
3 1/4-y,3/4+x,1/4+z
4 1/4+y,1/4-x,3/4+z
5 1/2-x,y,-z
6 x,-y,1/2-z
7 1/4+y,3/4+x,3/4-z
8 1/4-y,1/4-x,1/4-z
9 1/2+x,1/2+y,1/2+z
10 -x,1/2-y,z
11 3/4-y,1/4+x,3/4+z
12 3/4+y,3/4-x,1/4+z
13 -x,1/2+y,1/2-z
14 1/2+x,1/2-y,-z
15 3/4+y,1/4+x,1/4-z
16 3/4-y,3/4-x,3/4-z
17 -x,-y,-z
18 1/2+x,y,1/2-z
19 3/4+y,1/4-x,3/4-z
20 3/4-y,3/4+x,1/4-z
21 1/2+x,-y,z
22 -x,y,1/2+z
23 3/4-y,1/4-x,1/4+z
24 3/4+y,3/4+x,3/4+z
25 1/2-x,1/2-y,1/2-z
26 x,1/2+y,-z
27 1/4+y,3/4-x,1/4-z
28 1/4-y,1/4+x,3/4-z
29 x,1/2-y,1/2+z
30 1/2-x,1/2+y,z
31 1/4-y,3/4-x,3/4+z
32 1/4+y,1/4+x,1/4+z
_cell_length_a                   21.818(3)
_cell_length_b                   21.818(3)
_cell_length_c                   38.660(8)
_cell_angle_alpha                90
_cell_angle_beta                 90
_cell_angle_gamma                90
_cell_volume                     18403.1
loop_
_atom_site_label
_atom_site_type_symbol
_atom_site_fract_x
_atom_site_fract_y
_atom_site_fract_z
N1 N 0.1100(6) 0.2648(7) 0.0530(4)
C15 C 0.0915(14) 0.2320(12) 0.0835(6)
O6 O 0.1200(13) 0.3540(10) 0.0244(8)
C16 C 0.1354(17) 0.2299(10) 0.0243(6)
C17 C 0.1038(10) 0.3277(8) 0.0508(7)
N2 N 0.4730(6) 0.1373(5) 0.0569(3)
O5 O 0.4113(9) 0.0982(8) 0.0161(4)
C12 C 0.4633(8) 0.1022(7) 0.0276(4)
C13 C 0.4223(8) 0.1686(11) 0.0737(5)
C14 C 0.5337(7) 0.1432(11) 0.0714(6)
Zn1 Zn 0.26024(3) 0.01397(3) -0.086330(15)
N3 N 0.2460(2) 0.0149(2) 0.03324(12)
O1 O 0.3542(2) 0.02210(19) -0.15145(11)
O2 O 0.35180(19) 0.0006(2) -0.09480(11)
C1 C 0.5761(3) -0.0062(3) -0.12763(16)
C2 C 0.4477(3) 0.0072(3) -0.12305(16)
C3 C 0.3786(3) 0.0107(3) -0.12315(15)
O3 O 0.6722(2) 0.0022(2) -0.15564(12)
C4 C 0.6447(3) -0.0102(3) -0.12792(16)
O4 O 0.27510(19) -0.0802(2) -0.15027(11)
C5 C 0.1925(4) -0.0176(4) 0.01776(17)
C6 C 0.3030(4) -0.0166(4) 0.02200(17)
C7 C 0.2673(3) -0.2747(3) -0.09750(18)
C8 C 0.5486(3) 0.0180(3) -0.09820(17)
Cl1 Cl 0.19239(15) -0.29253(9) -0.19179(6)
Cl2 Cl 0.30635(9) -0.18364(15) -0.05763(6)
C9 C 0.4858(4) 0.0243(3) -0.09636(16)
C10 C 0.2741(3) -0.2122(4) -0.09537(17)
C11 C 0.2474(5) 0.0791(3) 0.01990(17)
Zn1D Zn 0.23976(3) 0.01397(3) 0.086330(15)
Zn1F Zn 0.26397(3) 0.01024(3) -0.163670(15)
Zn1R Zn 0.76397(3) -0.01024(3) -0.163670(15)
Zn1T Zn 0.76024(3) -0.01397(3) -0.086330(15)
Zn1CA Zn 0.23976(3) -0.48603(3) -0.086330(15)
Zn1AA Zn 0.23603(3) -0.48976(3) -0.163670(15)
N3D N 0.2540(2) 0.0149(2) -0.03324(12)
N3W N 0.7649(2) -0.0040(2) -0.21676(12)
O1F O 0.27210(19) 0.1042(2) -0.09855(11)
O1T O 0.8542(2) -0.02210(19) -0.15145(11)
O1AA O 0.22790(19) -0.3958(2) -0.09855(11)
O2R O 0.7506(2) -0.10180(19) -0.15520(11)
O2AA O 0.2494(2) -0.39820(19) -0.15520(11)
C1AA C 0.2562(3) -0.1739(3) -0.12237(16)
C2AA C 0.2428(3) -0.3023(3) -0.12695(16)
C3AA C 0.2393(3) -0.3714(3) -0.12685(15)
O3AA O 0.2478(2) -0.0778(2) -0.09436(12)
C4AA C 0.2602(3) -0.1053(3) -0.12208(16)
O4F O 0.1698(2) 0.02510(19) -0.09973(11)
O4R O 0.6698(2) -0.02510(19) -0.09973(11)
O4T O 0.77510(19) 0.0802(2) -0.15027(11)
C5D C 0.3075(4) -0.0176(4) -0.01776(17)
C6D C 0.1970(4) -0.0166(4) -0.02200(17)
C7R C 0.4753(3) -0.0173(3) -0.15250(18)
C8AA C 0.2320(3) -0.2014(3) -0.15180(17)
Cl1R Cl 0.45747(9) 0.05761(15) -0.05821(6)
Cl2R Cl 0.56636(15) -0.05635(9) -0.19237(6)
C9AA C 0.2257(3) -0.2642(4) -0.15364(16)
C10R C 0.5378(4) -0.0241(3) -0.15463(17)
C11D C 0.2526(5) 0.0791(3) -0.01990(17)
loop_
_geom_bond_atom_site_label_1
_geom_bond_atom_site_label_2
_geom_bond_site_symmetry_1
_geom_bond_site_symmetry_2
N1 C15 1_555 1_555
N2 C12 1_555 1_555
Zn1 O2 1_555 1_555
N3 C5 1_555 1_555
O1 C3 1_555 1_555
O2 C3 1_555 1_555
C1 C4 1_555 1_555
C2 C3 1_555 1_555
O3 C4 1_555 1_555
C4 O4R 1_555 1_555
O4 Zn1F 1_555 1_555
C5 C6D 1_555 1_555
C6 N3 1_555 1_555
C7 C10 1_555 1_555
C8 C1 1_555 1_555
Cl1 C9AA 1_555 1_555
Cl2 C10 1_555 1_555
C9 C2 1_555 1_555
C10 C1AA 1_555 1_555
C11 N3 1_555 1_555
O5 C12 1_555 1_555
C13 N2 1_555 1_555
C14 N2 1_555 1_555
O6 C17 1_555 1_555
C16 N1 1_555 1_555
C17 N1 1_555 1_555
Zn1D N3 1_555 1_555
Zn1F O1 1_555 1_555
Zn1R O3 1_555 1_555
Zn1T O4R 1_555 1_555
Zn1CA O1AA 1_555 1_555
Zn1AA O2AA 1_555 1_555
N3D Zn1 1_555 1_555
N3W Zn1R 1_555 1_555
O1F Zn1 1_555 1_555
O1T Zn1R 1_555 1_555
O1AA C3AA 1_555 1_555
O2R Zn1R 1_555 1_555
O2AA C3AA 1_555 1_555
C1AA C4AA 1_555 1_555
C2AA C7 1_555 1_555
C3AA C2AA 1_555 1_555
O3AA Zn1 1_555 1_555
C4AA O4 1_555 1_555
O4F Zn1 1_555 1_555
O4T Zn1R 1_555 1_555
C5D C6 1_555 1_555
C6D N3D 1_555 1_555
C7R C2 1_555 1_555
C8AA C1AA 1_555 1_555
Cl1R C9 1_555 1_555
Cl2R C10R 1_555 1_555
C9AA C2AA 1_555 1_555
C10R C1 1_555 1_555
C11D C11 1_555 1_555
C8 C9 1_555 1_555
N3D C5D 1_555 1_555
N3D C11D 1_555 1_555
O3AA C4AA 1_555 1_555
C7R C10R 1_555 1_555
C8AA C9AA 1_555 1_555

#END
