
#######################################################################
#
#                 Cambridge Crystallographic Data Centre
#                                CCDC 
#
#######################################################################
#
# If this CIF has been generated from an entry in the Cambridge 
# Structural Database, then it will include bibliographic, chemical, 
# crystal, experimental, refinement or atomic coordinate data resulting 
# from the CCDC's data processing and validation procedures.
#
#######################################################################

data_OLESIH
_symmetry_cell_setting           monoclinic
_symmetry_space_group_name_H-M   'P 21/n'
_symmetry_Int_Tables_number      14
_space_group_name_Hall           '-P 2yn'
loop_
_symmetry_equiv_pos_site_id
_symmetry_equiv_pos_as_xyz
1 x,y,z
2 1/2+x,1/2-y,1/2+z
3 -x,-y,-z
4 1/2-x,1/2+y,1/2-z
_cell_length_a                   9.1401(7)
_cell_length_b                   16.9414(13)
_cell_length_c                   24.0854(19)
_cell_angle_alpha                90.00
_cell_angle_beta                 90.974(2)
_cell_angle_gamma                90.00
_cell_volume                     3728.99
loop_
_atom_site_label
_atom_site_type_symbol
_atom_site_fract_x
_atom_site_fract_y
_atom_site_fract_z
Co1 Co 0.96086(12) 0.45993(7) 0.22946(5)
Co2 Co 1.03762(12) 0.14024(6) 0.25486(5)
O1 O 1.1067(6) 0.2484(3) 0.2900(2)
O2 O 0.9520(5) 0.2233(3) 0.1958(2)
O3 O 1.0670(6) 0.3772(3) 0.2818(2)
O4 O 0.9225(6) 0.3532(3) 0.1856(2)
O5 O 0.7615(5) 0.4636(3) 0.2725(2)
O6 O 0.8396(6) 0.5456(3) 0.1835(2)
O7 O 0.5633(6) 0.5390(3) 0.2819(2)
O8 O 0.6530(6) 0.6276(3) 0.1959(2)
O9 O 1.2650(5) 0.6195(3) 0.2881(2)
O10 O 1.3457(6) 0.5662(3) 0.1885(2)
O11 O 1.0591(5) 0.5493(3) 0.2810(2)
O12 O 1.1482(6) 0.4893(3) 0.1836(2)
C29 C 1.0532(8) 0.3063(5) 0.2663(3)
C30 C 0.9684(8) 0.2930(5) 0.2112(3)
C31 C 0.7294(9) 0.5692(5) 0.2079(3)
C32 C 0.6801(9) 0.5188(4) 0.2593(3)
C33 C 1.2292(8) 0.5394(5) 0.2068(3)
C34 C 1.1790(8) 0.5732(4) 0.2641(3)
O7C O 0.9367(6) 0.0390(3) 0.2181(2)
O8C O 0.8470(6) 0.1276(3) 0.3041(2)
O9C O 1.2350(5) 0.1195(3) 0.2119(2)
O10C O 1.1543(6) 0.0662(3) 0.3115(2)
Co2C Co 0.46238(12) 0.64024(6) 0.24514(5)
Co2C_2 Co 1.46238(12) 0.64024(6) 0.24514(5)
N1 N 0.9217(8) -0.2572(4) 0.0819(3)
N2 N 0.7406(6) 0.1442(3) 0.1029(2)
N3 N 0.7518(6) 0.2657(3) 0.0620(2)
N4 N 0.7152(6) 0.3434(3) 0.0558(2)
N5 N 0.5949(6) 0.4566(3) 0.0806(2)
N6 N 0.4318(8) 0.8568(4) 0.0403(3)
C1 C 0.8262(10) -0.2318(5) 0.1182(4)
C2 C 0.9772(9) -0.2032(4) 0.0485(4)
C3 C 0.9437(9) -0.1249(5) 0.0512(4)
C4 C 0.7834(9) -0.1538(4) 0.1234(3)
C5 C 0.8446(8) -0.0984(4) 0.0889(3)
C6 C 0.8074(8) -0.0130(4) 0.0936(3)
C7 C 0.6639(8) 0.0119(4) 0.1045(3)
C8 C 0.9125(8) 0.0445(4) 0.0870(3)
C9 C 0.6324(9) 0.0891(4) 0.1083(3)
C10 C 0.8789(8) 0.1226(4) 0.0928(3)
C11 C 0.7021(7) 0.2271(4) 0.1047(3)
C12 C 0.6188(7) 0.2593(4) 0.1483(3)
C13 C 0.5823(8) 0.2192(5) 0.1971(3)
C14 C 0.5010(8) 0.3763(5) 0.1842(3)
C15 C 0.5801(7) 0.3385(4) 0.1419(3)
C16 C 0.6320(7) 0.3751(4) 0.0934(3)
C17 C 0.5084(11) 0.2581(6) 0.2373(4)
C18 C 0.4681(11) 0.3356(6) 0.2298(4)
C19 C 0.4532(8) 0.4807(5) 0.0772(3)
C20 C 0.7046(8) 0.5077(4) 0.0701(3)
C21 C 0.4192(8) 0.5568(4) 0.0663(3)
C22 C 0.6737(9) 0.5839(5) 0.0581(3)
C23 C 0.5299(8) 0.6110(4) 0.0574(3)
C24 C 0.4947(8) 0.6962(4) 0.0500(3)
C25 C 0.5736(9) 0.7444(5) 0.0144(3)
C26 C 0.3865(11) 0.7307(6) 0.0796(4)
C27 C 0.5375(10) 0.8242(5) 0.0109(4)
C28 C 0.3580(11) 0.8101(5) 0.0741(4)
H1 H 0.788(6) -0.265(4) 0.139(3)
H2 H 1.045(7) -0.221(4) 0.025(3)
H3 H 0.981(6) -0.097(4) 0.030(3)
H4 H 0.710(7) -0.139(4) 0.147(3)
H5 H 0.583(6) -0.028(4) 0.106(2)
H6 H 1.014(7) 0.035(4) 0.084(3)
H7 H 0.540(5) 0.108(3) 0.1120(19)
H8 H 0.957(7) 0.163(4) 0.092(3)
H9 H 0.625(7) 0.171(4) 0.204(3)
H10 H 0.477(8) 0.424(5) 0.181(3)
H11 H 0.500(10) 0.240(6) 0.266(4)
H12 H 0.421(8) 0.352(4) 0.251(3)
H13 H 0.383(6) 0.449(3) 0.085(2)
H14 H 0.797(6) 0.487(3) 0.072(2)
H15 H 0.321(7) 0.571(4) 0.067(2)
H16 H 0.747(7) 0.612(4) 0.051(3)
H17 H 0.652(7) 0.721(4) -0.004(3)
H18 H 0.337(6) 0.710(4) 0.095(3)
H19 H 0.605(9) 0.862(5) -0.011(4)
H20 H 0.287(10) 0.835(5) 0.096(4)
O13 O 1.3218(8) 0.4441(4) 0.3425(3)
O14 O 0.2426(9) 0.6736(5) 0.3961(3)
O15 O 1.0516(7) -0.4105(4) 0.0832(3)
O16 O 0.3102(10) 0.8452(6) 0.4077(4)
O17 O 1.2180(8) 0.5088(4) 0.4461(4)
O18 O 1.0484(16) 0.4524(9) 0.0267(6)
loop_
_geom_bond_atom_site_label_1
_geom_bond_atom_site_label_2
_geom_bond_site_symmetry_1
_geom_bond_site_symmetry_2
Co1 O3 1_555 1_555
Co2 O1 1_555 1_555
O1 C29 1_555 1_555
O2 Co2 1_555 1_555
O3 C29 1_555 1_555
O4 Co1 1_555 1_555
O5 Co1 1_555 1_555
O6 Co1 1_555 1_555
O7 C32 1_555 1_555
O8 C31 1_555 1_555
O9 C34 1_555 1_555
O10 C33 1_555 1_555
O11 Co1 1_555 1_555
O12 Co1 1_555 1_555
N1 C1 1_555 1_555
N2 C9 1_555 1_555
N3 N4 1_555 1_555
N4 C16 1_555 1_555
N5 C16 1_555 1_555
N6 C27 1_555 1_555
C1 C4 1_555 1_555
C2 N1 1_555 1_555
C3 C2 1_555 1_555
C4 C5 1_555 1_555
C5 C3 1_555 1_555
C6 C5 1_555 1_555
C7 C6 1_555 1_555
C8 C6 1_555 1_555
C9 C7 1_555 1_555
C10 N2 1_555 1_555
C11 N2 1_555 1_555
C12 C11 1_555 1_555
C13 C12 1_555 1_555
C14 C15 1_555 1_555
C15 C12 1_555 1_555
C16 C15 1_555 1_555
C17 C13 1_555 1_555
C18 C14 1_555 1_555
C19 N5 1_555 1_555
C20 N5 1_555 1_555
C21 C19 1_555 1_555
C22 C20 1_555 1_555
C23 C21 1_555 1_555
C24 C23 1_555 1_555
C25 C24 1_555 1_555
C26 C24 1_555 1_555
C27 C25 1_555 1_555
C28 N6 1_555 1_555
C29 C30 1_555 1_555
C30 O2 1_555 1_555
C31 O6 1_555 1_555
C32 O5 1_555 1_555
C33 O12 1_555 1_555
C34 O11 1_555 1_555
H1 C1 1_555 1_555
H2 C2 1_555 1_555
H3 C3 1_555 1_555
H4 C4 1_555 1_555
H5 C7 1_555 1_555
H6 C8 1_555 1_555
H7 C9 1_555 1_555
H8 C10 1_555 1_555
H9 C13 1_555 1_555
H10 C14 1_555 1_555
H11 C17 1_555 1_555
H12 C18 1_555 1_555
H13 C19 1_555 1_555
H14 C20 1_555 1_555
H15 C21 1_555 1_555
H16 C22 1_555 1_555
H17 C25 1_555 1_555
H18 C26 1_555 1_555
H19 C27 1_555 1_555
H20 C28 1_555 1_555
O7C Co2 1_555 1_555
O8C Co2 1_555 1_555
O9C Co2 1_555 1_555
O10C Co2 1_555 1_555
Co2C O7 1_555 1_555
Co2C_2 O9 1_555 1_555
O4 C30 1_555 1_555
O8 Co2C 1_555 1_555
O10 Co2C_2 1_555 1_555
N3 C11 1_555 1_555
C8 C10 1_555 1_555
C17 C18 1_555 1_555
C22 C23 1_555 1_555
C26 C28 1_555 1_555
C31 C32 1_555 1_555
C33 C34 1_555 1_555

#END
