
#######################################################################
#
#                 Cambridge Crystallographic Data Centre
#                                CCDC 
#
#######################################################################
#
# If this CIF has been generated from an entry in the Cambridge 
# Structural Database, then it will include bibliographic, chemical, 
# crystal, experimental, refinement or atomic coordinate data resulting 
# from the CCDC's data processing and validation procedures.
#
#######################################################################

data_OPENON
_symmetry_cell_setting           triclinic
_symmetry_space_group_name_H-M   'P -1'
_symmetry_Int_Tables_number      2
_space_group_name_Hall           '-P 1'
loop_
_symmetry_equiv_pos_site_id
_symmetry_equiv_pos_as_xyz
1 x,y,z
2 -x,-y,-z
_cell_length_a                   7.6860(15)
_cell_length_b                   9.2430(18)
_cell_length_c                   12.560(3)
_cell_angle_alpha                95.27(3)
_cell_angle_beta                 98.43(3)
_cell_angle_gamma                101.91(3)
_cell_volume                     856.743
loop_
_atom_site_label
_atom_site_type_symbol
_atom_site_fract_x
_atom_site_fract_y
_atom_site_fract_z
Cu1 Cu 0.64595(8) 0.89865(6) 0.94602(4)
C1 C 0.8691(6) 0.6941(5) 0.8516(4)
C2 C 0.9393(6) 0.5962(5) 0.9300(3)
C3 C 0.8292(6) 0.4582(5) 0.9387(4)
H1 H 0.7141 0.4302 0.8974
C4 C 0.8879(6) 0.3622(5) 1.0076(3)
C5 C 0.7604(6) 0.2144(5) 1.0104(3)
C6 C 0.4052(7) 0.8340(6) 0.7431(4)
H2 H 0.3817 0.7428 0.7700
C7 C 0.3110(7) 0.8461(6) 0.6439(4)
H3 H 0.2260 0.7646 0.6055
C8 C 0.3433(6) 0.9810(6) 0.6011(4)
C9 C 0.4748(7) 1.0978(6) 0.6621(4)
H4 H 0.5028 1.1894 0.6362
C10 C 0.5627(7) 1.0762(6) 0.7608(4)
H5 H 0.6499 1.1553 0.8004
C11 C 0.2414(6) 0.9939(6) 0.4956(4)
C12 C 0.0602(6) 0.9313(6) 0.3479(4)
C13 C -0.0730(6) 0.8429(6) 0.2565(4)
C14 C -0.1447(8) 0.6940(6) 0.2632(4)
H6 H -0.1069 0.6502 0.3237
C15 C -0.2716(8) 0.6123(6) 0.1797(5)
H7 H -0.3209 0.5123 0.1827
C16 C -0.3251(7) 0.6796(5) 0.0920(4)
H8 H -0.4110 0.6230 0.0355
C17 C -0.1328(6) 0.9047(5) 0.1650(4)
H9 H -0.0845 1.0042 0.1599
N1 N 0.5291(5) 0.9464(4) 0.8032(3)
N2 N 0.1242(5) 0.8745(5) 0.4347(3)
N3 N 0.2534(6) 1.1212(5) 0.4515(3)
N4 N 0.1359(6) 1.0781(5) 0.3562(3)
N5 N -0.2589(5) 0.8241(4) 0.0837(3)
O1 O 0.7133(5) 0.7166(4) 0.8559(3)
O2 O 0.9689(5) 0.7426(4) 0.7874(3)
O3 O 0.6093(4) 0.2209(4) 1.0328(3)
O4 O 0.8132(4) 0.0964(4) 0.9837(3)
H10 H 0.1462 1.1321 0.3053
Cu1A Cu 0.35405(8) 0.10135(6) 1.05398(4)
Cu1_2 Cu -0.35405(8) 0.89865(6) -0.05398(4)
Cu1_3 Cu 0.64595(8) -0.10135(6) 0.94602(4)
Cu1_4 Cu 1.64595(8) 0.89865(6) 0.94602(4)
Cu1A_2 Cu 1.35405(8) 0.10135(6) 1.05398(4)
Cu1A_3 Cu 1.35405(8) 0.10135(6) 2.05398(4)
Cu1A_4 Cu 1.35405(8) 1.10135(6) 1.05398(4)
C1A C 1.1309(6) 0.3059(5) 1.1484(4)
C2A C 1.0607(6) 0.4038(5) 1.0700(3)
C3A C 1.1708(6) 0.5418(5) 1.0613(4)
H1A H 1.2859 0.5698 1.1026
C4A C 1.1121(6) 0.6378(5) 0.9924(3)
C5A C 1.2396(6) 0.7856(5) 0.9896(3)
C6A C 0.5948(7) 0.1660(6) 1.2569(4)
H2A H 0.6183 0.2572 1.2300
C7A C 0.6890(7) 0.1539(6) 1.3561(4)
H3A H 0.7740 0.2354 1.3945
C8A C 0.6567(6) 0.0190(6) 1.3989(4)
C9A C 0.5252(7) -0.0978(6) 1.3379(4)
H4A H 0.4972 -0.1894 1.3638
C10A C 0.4373(7) -0.0762(6) 1.2392(4)
H5A H 0.3501 -0.1553 1.1996
C11A C 0.7586(6) 0.0061(6) 1.5044(4)
C12A C 0.9398(6) 0.0687(6) 1.6521(4)
C13A C 1.0730(6) 0.1571(6) 1.7435(4)
C14A C 1.1447(8) 0.3060(6) 1.7368(4)
H6A H 1.1069 0.3498 1.6763
C15A C 1.2716(8) 0.3877(6) 1.8203(5)
H7A H 1.3209 0.4877 1.8173
C16A C 1.3251(7) 0.3204(5) 1.9080(4)
H8A H 1.4110 0.3770 1.9645
C17A C 1.1328(6) 0.0953(5) 1.8350(4)
H9A H 1.0845 -0.0042 1.8401
N1A N 0.4709(5) 0.0536(4) 1.1968(3)
N2A N 0.8758(5) 0.1255(5) 1.5653(3)
N3A N 0.7466(6) -0.1212(5) 1.5485(3)
N4A N 0.8641(6) -0.0781(5) 1.6438(3)
N5A N 1.2589(5) 0.1759(4) 1.9163(3)
N5_2 N 0.7411(5) 0.8241(4) 1.0837(3)
N5A_2 N 0.2589(5) 0.1759(4) 0.9163(3)
O1A O 1.2867(5) 0.2834(4) 1.1441(3)
O1A_2 O 0.2867(5) 0.2834(4) 1.1441(3)
O2A O 1.0311(5) 0.2574(4) 1.2126(3)
O3A O 1.3907(4) 0.7791(4) 0.9672(3)
O3A_2 O 0.3907(4) 0.7791(4) 0.9672(3)
O4A O 1.1868(4) 0.9036(4) 1.0163(3)
O4_2 O 0.8132(4) 1.0964(4) 0.9837(3)
O4A_2 O 0.1868(4) -0.0964(4) 1.0163(3)
H10A H 0.8538 -0.1321 1.6947
O5 O 0.675(5) 0.530(4) 0.482(2)
H11 H 0.7003 0.6235 0.4996
H12 H 0.5673 0.5071 0.4942
loop_
_geom_bond_atom_site_label_1
_geom_bond_atom_site_label_2
_geom_bond_site_symmetry_1
_geom_bond_site_symmetry_2
Cu1 N1 1_555 1_555
C1 C2 1_555 1_555
C2 C3 1_555 1_555
C3 H1 1_555 1_555
C4 C3 1_555 1_555
C5 C4 1_555 1_555
C6 H2 1_555 1_555
C7 C6 1_555 1_555
H3 C7 1_555 1_555
C8 C7 1_555 1_555
C9 C8 1_555 1_555
H4 C9 1_555 1_555
C10 C9 1_555 1_555
H5 C10 1_555 1_555
C11 C8 1_555 1_555
C12 C13 1_555 1_555
C13 C14 1_555 1_555
C14 H6 1_555 1_555
C15 C14 1_555 1_555
H7 C15 1_555 1_555
C16 C15 1_555 1_555
H8 C16 1_555 1_555
C17 C13 1_555 1_555
H9 C17 1_555 1_555
N1 C6 1_555 1_555
N2 C11 1_555 1_555
N3 C11 1_555 1_555
N4 C12 1_555 1_555
N5 C16 1_555 1_555
O1 Cu1 1_555 1_555
O2 C1 1_555 1_555
O3 C5 1_555 1_555
O4 C5 1_555 1_555
O5 H11 1_555 1_555
H10 N4 1_555 1_555
H12 O5 1_555 1_555
Cu1A O3 1_555 1_555
Cu1_2 N5 1_555 1_555
Cu1_3 O4 1_555 1_555
Cu1_4 O3A 1_555 1_555
Cu1A_2 O1A 1_555 1_555
Cu1A_3 N5A 1_555 1_555
Cu1A_4 O4A 1_555 1_555
C1A C2A 1_555 1_555
C2A C4 1_555 1_555
C3A C2A 1_555 1_555
H1A C3A 1_555 1_555
C4A C2 1_555 1_555
C5A C4A 1_555 1_555
C6A H2A 1_555 1_555
C7A C6A 1_555 1_555
H3A C7A 1_555 1_555
C8A C7A 1_555 1_555
C9A C8A 1_555 1_555
H4A C9A 1_555 1_555
C10A C9A 1_555 1_555
H5A C10A 1_555 1_555
C11A C8A 1_555 1_555
C12A C13A 1_555 1_555
C13A C14A 1_555 1_555
C14A H6A 1_555 1_555
C15A C14A 1_555 1_555
H7A C15A 1_555 1_555
C16A C15A 1_555 1_555
H8A C16A 1_555 1_555
C17A C13A 1_555 1_555
H9A C17A 1_555 1_555
N1A Cu1A 1_555 1_555
N2A C11A 1_555 1_555
N3A C11A 1_555 1_555
N4A C12A 1_555 1_555
N5A C16A 1_555 1_555
N5_2 Cu1 1_555 1_555
N5A_2 Cu1A 1_555 1_555
O1A C1A 1_555 1_555
O1A_2 Cu1A 1_555 1_555
O2A C1A 1_555 1_555
O3A C5A 1_555 1_555
O3A_2 Cu1 1_555 1_555
O4A C5A 1_555 1_555
O4_2 Cu1 1_555 1_555
O4A_2 Cu1A 1_555 1_555
H10A N4A 1_555 1_555
C1 O1 1_555 1_555
C10 N1 1_555 1_555
C12 N2 1_555 1_555
C17 N5 1_555 1_555
N3 N4 1_555 1_555
C3A C4A 1_555 1_555
C6A N1A 1_555 1_555
C10A N1A 1_555 1_555
C12A N2A 1_555 1_555
C17A N5A 1_555 1_555
N3A N4A 1_555 1_555

#END
