
#######################################################################
#
#                 Cambridge Crystallographic Data Centre
#                                CCDC 
#
#######################################################################
#
# If this CIF has been generated from an entry in the Cambridge 
# Structural Database, then it will include bibliographic, chemical, 
# crystal, experimental, refinement or atomic coordinate data resulting 
# from the CCDC's data processing and validation procedures.
#
#######################################################################

data_OPOBIF
_symmetry_cell_setting           rhombohedral
_symmetry_space_group_name_H-M   'R -3'
_symmetry_Int_Tables_number      148
_space_group_name_Hall           '-R 3'
loop_
_symmetry_equiv_pos_site_id
_symmetry_equiv_pos_as_xyz
1 x,y,z
2 -y,x-y,z
3 -x+y,-x,z
4 2/3+x,1/3+y,1/3+z
5 2/3-y,1/3+x-y,1/3+z
6 2/3-x+y,1/3-x,1/3+z
7 1/3+x,2/3+y,2/3+z
8 1/3-y,2/3+x-y,2/3+z
9 1/3-x+y,2/3-x,2/3+z
10 -x,-y,-z
11 y,-x+y,-z
12 x-y,x,-z
13 1/3-x,2/3-y,2/3-z
14 1/3+y,2/3-x+y,2/3-z
15 1/3+x-y,2/3+x,2/3-z
16 2/3-x,1/3-y,1/3-z
17 2/3+y,1/3-x+y,1/3-z
18 2/3+x-y,1/3+x,1/3-z
_cell_length_a                   32.8723(16)
_cell_length_b                   32.8723(16)
_cell_length_c                   8.4085(8)
_cell_angle_alpha                90
_cell_angle_beta                 90
_cell_angle_gamma                120
_cell_volume                     7868.82
loop_
_atom_site_label
_atom_site_type_symbol
_atom_site_fract_x
_atom_site_fract_y
_atom_site_fract_z
Zn1 Zn -0.287160(11) -0.119100(12) -0.02041(4)
Zn2 Zn -0.261890(12) -0.037060(13) 0.31552(4)
O1 O -0.12088(8) 0.13280(8) -0.1797(3)
O2 O -0.14548(10) 0.08549(10) 0.0248(3)
O3 O -0.20148(7) -0.01437(8) 0.2171(2)
O4 O -0.23013(8) -0.04033(9) -0.0238(2)
N1 N -0.32080(8) -0.06321(9) 0.1793(3)
N2 N -0.33181(8) -0.09675(8) 0.0638(3)
N3 N -0.38726(9) -0.07739(8) 0.0668(3)
N4 N -0.28988(8) -0.11094(8) -0.2577(3)
N5 N -0.32576(8) -0.14273(8) -0.3514(3)
N6 N -0.28038(8) -0.08004(8) -0.4980(2)
C1 C -0.13617(11) 0.05465(11) -0.2220(3)
C2 C -0.14092(11) 0.01304(11) -0.1640(4)
C3 C -0.14058(13) -0.01886(13) -0.2730(4)
H1 H -0.1424 -0.0464 -0.2363
C4 C -0.13761(14) -0.01000(16) -0.4363(5)
H2 H -0.1385 -0.0321 -0.5074
C5 C -0.13344(14) 0.03085(16) -0.4922(4)
H3 H -0.1313 0.0367 -0.6010
C6 C -0.13253(12) 0.06342(13) -0.3864(4)
H4 H -0.1295 0.0914 -0.4243
C7 C -0.13445(12) 0.09275(12) -0.1177(4)
C8 C -0.14712(12) -0.00025(12) 0.0103(4)
H5 H -0.1263 0.0273 0.0725
H6 H -0.1378 -0.0236 0.0275
C9 C -0.19679(10) -0.01948(11) 0.0698(3)
C10 C -0.37129(11) -0.10408(11) 0.0011(4)
H7 H -0.3867 -0.1255 -0.0803
C11 C -0.35438(11) -0.05282(11) 0.1769(3)
H8 H -0.3553 -0.0308 0.2440
C12 C -0.31844(10) -0.12289(11) -0.4925(3)
H9 H -0.3379 -0.1373 -0.5796
C13 C -0.26401(10) -0.07408(11) -0.3486(3)
H10 H -0.2375 -0.0471 -0.3130
Zn1J Zn -0.119100(12) 0.168060(16) 0.02041(4)
Zn1L Zn -0.379507(11) -0.214233(12) -0.31292(4)
Zn2H Zn -0.441837(18) -0.071443(12) -0.01781(4)
Zn2_2 Zn -0.261890(12) -0.037060(13) -0.68448(4)
O1K O -0.25368(11) -0.12088(8) 0.1797(3)
O2K O -0.23097(14) -0.14548(10) -0.0248(3)
N3D N -0.25594(8) 0.02346(12) 0.4001(3)
N5L N -0.34091(8) -0.19060(8) 0.0181(3)
N6_2 N -0.28038(8) -0.08004(8) 0.5020(2)
O5 O 0.02427(15) 0.28943(14) 0.0815(5)
H11 H 0.0468 0.2839 0.0904
H12 H 0.0055 0.2612 0.0544
loop_
_geom_bond_atom_site_label_1
_geom_bond_atom_site_label_2
_geom_bond_site_symmetry_1
_geom_bond_site_symmetry_2
Zn1 O4 1_555 1_555
Zn2 O3 1_555 1_555
O1 C7 1_555 1_555
O2 C7 1_555 1_555
O3 C9 1_555 1_555
O4 C9 1_555 1_555
N1 Zn2 1_555 1_555
N2 Zn1 1_555 1_555
N3 C10 1_555 1_555
N4 Zn1 1_555 1_555
N5 N4 1_555 1_555
N6 C12 1_555 1_555
C1 C2 1_555 1_555
C2 C3 1_555 1_555
C3 H1 1_555 1_555
C4 C3 1_555 1_555
H2 C4 1_555 1_555
C5 C4 1_555 1_555
H3 C5 1_555 1_555
C6 C1 1_555 1_555
H4 C6 1_555 1_555
C7 C1 1_555 1_555
C8 C2 1_555 1_555
H5 C8 1_555 1_555
H6 C8 1_555 1_555
C9 C8 1_555 1_555
C10 N2 1_555 1_555
H7 C10 1_555 1_555
C11 N1 1_555 1_555
H8 C11 1_555 1_555
C12 N5 1_555 1_555
H9 C12 1_555 1_555
C13 N4 1_555 1_555
H10 C13 1_555 1_555
O5 H11 1_555 1_555
H12 O5 1_555 1_555
Zn1J O1 1_555 1_555
Zn1L N5 1_555 1_555
Zn2H N3 1_555 1_555
Zn2_2 N6 1_555 1_555
O1K Zn1 1_555 1_555
O2K Zn1 1_555 1_555
N3D Zn2 1_555 1_555
N5L Zn1 1_555 1_555
N6_2 Zn2 1_555 1_555
O2 Zn1J 1_555 1_555
N1 N2 1_555 1_555
N3 C11 1_555 1_555
N6 C13 1_555 1_555
C5 C6 1_555 1_555

#END
