
#######################################################################
#
#                 Cambridge Crystallographic Data Centre
#                                CCDC 
#
#######################################################################
#
# If this CIF has been generated from an entry in the Cambridge 
# Structural Database, then it will include bibliographic, chemical, 
# crystal, experimental, refinement or atomic coordinate data resulting 
# from the CCDC's data processing and validation procedures.
#
#######################################################################

data_OPOZEZ
_symmetry_cell_setting           monoclinic
_symmetry_space_group_name_H-M   'P 21/c'
_symmetry_Int_Tables_number      14
_space_group_name_Hall           '-P 2ybc'
loop_
_symmetry_equiv_pos_site_id
_symmetry_equiv_pos_as_xyz
1 x,y,z
2 -x,1/2+y,1/2-z
3 -x,-y,-z
4 x,1/2-y,1/2+z
_cell_length_a                   15.9388(11)
_cell_length_b                   28.520(2)
_cell_length_c                   16.1837(11)
_cell_angle_alpha                90
_cell_angle_beta                 105.7140(10)
_cell_angle_gamma                90
_cell_volume                     7081.75
loop_
_atom_site_label
_atom_site_type_symbol
_atom_site_fract_x
_atom_site_fract_y
_atom_site_fract_z
Cd1 Cd 0.38001(6) 0.03381(3) 0.86392(5)
Cd2 Cd 0.33799(5) -0.03398(3) 0.64984(5)
C1 C 0.3177(8) 0.1329(4) 0.5423(7)
H1 H 0.3104 0.1130 0.4938
C2 C 0.3222(8) 0.1139(4) 0.6239(7)
C3 C 0.3315(8) 0.1431(4) 0.6925(8)
H2 H 0.3328 0.1298 0.7467
C4 C 0.3391(9) 0.1909(4) 0.6869(7)
H3 H 0.3450 0.2104 0.7357
C5 C 0.3613(9) 0.2992(4) 0.6314(8)
H4 H 0.3650 0.2987 0.6910
C6 C 0.3702(9) 0.3407(4) 0.5905(7)
H5 H 0.3823 0.3687 0.6234
C7 C 0.3621(8) 0.3430(4) 0.5018(7)
C8 C 0.3468(9) 0.3009(4) 0.4533(8)
H6 H 0.3421 0.3015 0.3935
C9 C 0.3385(9) 0.2589(4) 0.4940(7)
C10 C 0.3466(9) 0.2582(4) 0.5829(7)
C11 C 0.3379(8) 0.2095(4) 0.6081(7)
C12 C 0.3240(8) 0.1809(3) 0.5342(7)
C13 C 0.3237(8) 0.2099(4) 0.4555(7)
C14 C 0.3963(11) 0.1951(4) 0.4172(9)
H7 H 0.4523 0.1972 0.4610
H8 H 0.3970 0.2157 0.3691
H9 H 0.3865 0.1626 0.3967
C15 C 0.2375(10) 0.2059(5) 0.3869(8)
H10 H 0.1898 0.2151 0.4112
H11 H 0.2287 0.1735 0.3665
H12 H 0.2381 0.2267 0.3388
C16 C 0.3193(8) 0.0613(4) 0.6344(8)
C17 C 0.3722(8) 0.3882(3) 0.4592(8)
C18 C 0.3903(8) -0.1332(4) 0.9674(7)
H13 H 0.3881 -0.1131 1.0136
C19 C 0.3988(8) -0.1148(4) 0.8890(8)
C20 C 0.4055(8) -0.1449(4) 0.8227(7)
H14 H 0.4114 -0.1319 0.7705
C21 C 0.4038(9) -0.1930(4) 0.8316(7)
H15 H 0.4096 -0.2133 0.7869
C22 C 0.3813(10) -0.3013(4) 0.8899(8)
H16 H 0.3900 -0.3015 0.8341
C23 C 0.3677(9) -0.3425(4) 0.9288(8)
H17 H 0.3664 -0.3714 0.8994
C24 C 0.3560(9) -0.3420(4) 1.0106(7)
C25 C 0.3565(8) -0.3003(4) 1.0548(7)
H18 H 0.3481 -0.3001 1.1107
C26 C 0.3695(9) -0.2586(4) 1.0152(8)
C27 C 0.3820(9) -0.2595(4) 0.9341(8)
C28 C 0.3932(9) -0.2108(4) 0.9091(7)
C29 C 0.3855(8) -0.1813(4) 0.9745(7)
C30 C 0.3717(9) -0.2096(4) 1.0487(8)
C31 C 0.4501(9) -0.2040(4) 1.1292(7)
H19 H 0.5040 -0.2127 1.1149
H20 H 0.4419 -0.2244 1.1751
H21 H 0.4539 -0.1713 1.1485
C32 C 0.2894(9) -0.1957(4) 1.0726(9)
H22 H 0.2391 -0.1989 1.0223
H23 H 0.2942 -0.1630 1.0922
H24 H 0.2817 -0.2161 1.1187
C33 C 0.3991(7) -0.0624(4) 0.8754(8)
C34 C 0.3410(8) -0.3881(4) 1.0530(8)
C35 C 0.1277(9) -0.0196(5) 0.6102(10)
H25 H 0.1378 0.0038 0.5724
C36 C 0.0463(10) -0.0257(6) 0.6154(11)
H26 H 0.0005 -0.0067 0.5822
C37 C 0.0294(10) -0.0585(5) 0.6675(11)
C38 C 0.0955(10) -0.0832(5) 0.7170(11)
H27 H 0.0858 -0.1049 0.7580
C39 C 0.1795(10) -0.0762(5) 0.7071(12)
H28 H 0.2259 -0.0952 0.7394
C40 C -0.0603(11) -0.0664(6) 0.6786(11)
H29 H -0.0694 -0.0898 0.7169
C41 C -0.2596(9) -0.0240(5) 0.6247(8)
H30 H -0.2457 0.0010 0.5917
C42 C -0.3458(9) -0.0268(4) 0.6359(8)
C43 C -0.3734(9) -0.0625(5) 0.6827(9)
H31 H -0.3343 -0.0868 0.7085
C44 C -0.4580(8) -0.0621(4) 0.6912(9)
H32 H -0.4757 -0.0863 0.7231
C45 C -0.4882(9) 0.0054(4) 0.6121(8)
H33 H -0.5279 0.0297 0.5875
C46 C -0.4058(9) 0.0067(5) 0.6016(9)
H34 H -0.3903 0.0315 0.5695
C47 C 0.5784(9) 0.0103(4) 0.8771(7)
H35 H 0.5638 -0.0155 0.9078
C48 C 0.6633(8) 0.0133(4) 0.8686(8)
H36 H 0.7055 -0.0099 0.8931
C49 C 0.6841(8) 0.0502(4) 0.8244(8)
C50 C 0.6206(9) 0.0826(4) 0.7896(8)
H37 H 0.6334 0.1085 0.7582
C51 C 0.5383(8) 0.0775(4) 0.8005(8)
H38 H 0.4948 0.1001 0.7763
C52 C 0.7711(9) 0.0557(5) 0.8131(9)
H39 H 0.7827 0.0806 0.7787
C53 C 0.9745(9) 0.0089(6) 0.8741(11)
H40 H 0.9629 -0.0144 0.9113
C54 C 1.0611(10) 0.0142(5) 0.8637(9)
C55 C 1.1252(10) -0.0130(5) 0.9149(10)
H41 H 1.1122 -0.0351 0.9536
C56 C 1.2116(8) -0.0070(5) 0.9086(9)
H42 H 1.2565 -0.0248 0.9462
C57 C 1.1707(10) 0.0456(5) 0.8025(10)
H43 H 1.1847 0.0652 0.7607
C58 C 1.0828(10) 0.0442(6) 0.8057(10)
H44 H 1.0398 0.0635 0.7689
N1 N 0.1963(7) -0.0446(3) 0.6552(7)
N2 N -0.1228(9) -0.0420(5) 0.6373(9)
N3 N -0.2030(8) -0.0534(5) 0.6571(8)
N4 N -0.5148(6) -0.0288(3) 0.6561(6)
N5 N 0.5182(7) 0.0414(3) 0.8445(6)
N6 N 0.8320(8) 0.0272(5) 0.8493(9)
N7 N 0.9113(9) 0.0369(5) 0.8314(9)
N8 N 1.2338(7) 0.0216(3) 0.8538(7)
O1 O 0.3098(6) 0.0358(2) 0.5706(5)
O2 O 0.3307(5) 0.0451(2) 0.7088(5)
O3 O 0.3742(7) 0.3870(3) 0.3836(5)
O4 O 0.3748(6) 0.4251(3) 0.5014(5)
O5 O 0.4072(6) -0.0364(2) 0.9387(5)
O6 O 0.3874(5) -0.0469(2) 0.7998(5)
O7 O 0.3271(6) -0.4252(3) 1.0107(5)
O8 O 0.3454(6) -0.3861(3) 1.1319(5)
Cd1_2 Cd 1.38001(6) 0.03381(3) 0.86392(5)
Cd1C Cd 0.38001(6) 0.46619(3) 0.36392(5)
Cd2_2 Cd -0.66201(5) -0.03398(3) 0.64984(5)
Cd2C Cd 0.33799(5) -0.46602(3) 1.14984(5)
N4_2 N 0.4852(6) -0.0288(3) 0.6561(6)
N8_2 N 0.2338(7) 0.0216(3) 0.8538(7)
O3C O 0.3742(7) 0.1130(3) 0.8836(5)
O4C O 0.3748(6) 0.0749(3) 1.0014(5)
O7C O 0.3271(6) -0.0748(3) 0.5107(5)
O8C O 0.3454(6) -0.1139(3) 0.6319(5)
C59 C 0.101(3) 0.2272(13) 0.588(2)
C60 C 0.108(2) 0.1806(12) 0.715(2)
C61 C 0.100(2) 0.1456(11) 0.5876(19)
N9 N 0.1045(15) 0.1808(8) 0.6300(14)
O9 O 0.0995(13) 0.1037(7) 0.6175(12)
C62 C 0.178(2) -0.2267(12) 0.705(2)
C63 C 0.157(2) -0.1952(11) 0.8317(19)
C64 C 0.030(3) -0.2050(13) 0.718(2)
N10 N 0.1147(16) -0.2090(8) 0.7451(15)
O10 O 0.001(2) -0.2149(12) 0.641(2)
O11 O 0.1247(17) -0.3596(9) 0.9085(16)
O12 O -0.0053(19) -0.1163(10) 0.8912(18)
O13? O -0.085(3) -0.1306(14) 0.967(3)
loop_
_geom_bond_atom_site_label_1
_geom_bond_atom_site_label_2
_geom_bond_site_symmetry_1
_geom_bond_site_symmetry_2
Cd1 N5 1_555 1_555
Cd2 N1 1_555 1_555
C1 H1 1_555 1_555
C2 C1 1_555 1_555
C3 C2 1_555 1_555
H2 C3 1_555 1_555
C4 C3 1_555 1_555
H3 C4 1_555 1_555
C5 H4 1_555 1_555
C6 C5 1_555 1_555
H5 C6 1_555 1_555
C7 C6 1_555 1_555
C8 C7 1_555 1_555
H6 C8 1_555 1_555
C9 C8 1_555 1_555
C10 C5 1_555 1_555
C11 C4 1_555 1_555
C12 C1 1_555 1_555
C13 C9 1_555 1_555
C14 C13 1_555 1_555
H7 C14 1_555 1_555
H8 C14 1_555 1_555
H9 C14 1_555 1_555
C15 C13 1_555 1_555
H10 C15 1_555 1_555
H11 C15 1_555 1_555
H12 C15 1_555 1_555
C16 C2 1_555 1_555
C17 C7 1_555 1_555
C18 H13 1_555 1_555
C19 C18 1_555 1_555
C20 C19 1_555 1_555
H14 C20 1_555 1_555
C21 C20 1_555 1_555
H15 C21 1_555 1_555
C22 H16 1_555 1_555
C23 C22 1_555 1_555
H17 C23 1_555 1_555
C24 C23 1_555 1_555
C25 C24 1_555 1_555
H18 C25 1_555 1_555
C26 C25 1_555 1_555
C27 C22 1_555 1_555
C28 C21 1_555 1_555
C29 C18 1_555 1_555
C30 C26 1_555 1_555
C31 C30 1_555 1_555
H19 C31 1_555 1_555
H20 C31 1_555 1_555
H21 C31 1_555 1_555
C32 C30 1_555 1_555
H22 C32 1_555 1_555
H23 C32 1_555 1_555
H24 C32 1_555 1_555
C33 C19 1_555 1_555
C34 C24 1_555 1_555
C35 H25 1_555 1_555
C36 C35 1_555 1_555
H26 C36 1_555 1_555
C37 C36 1_555 1_555
C38 C37 1_555 1_555
H27 C38 1_555 1_555
C39 C38 1_555 1_555
H28 C39 1_555 1_555
C40 C37 1_555 1_555
H29 C40 1_555 1_555
C41 H30 1_555 1_555
C42 C41 1_555 1_555
C43 C42 1_555 1_555
H31 C43 1_555 1_555
C44 C43 1_555 1_555
H32 C44 1_555 1_555
C45 H33 1_555 1_555
C46 C42 1_555 1_555
H34 C46 1_555 1_555
C47 H35 1_555 1_555
C48 C47 1_555 1_555
H36 C48 1_555 1_555
C49 C48 1_555 1_555
C50 C49 1_555 1_555
H37 C50 1_555 1_555
C51 C50 1_555 1_555
H38 C51 1_555 1_555
C52 C49 1_555 1_555
H39 C52 1_555 1_555
C53 H40 1_555 1_555
C54 C53 1_555 1_555
C55 C54 1_555 1_555
H41 C55 1_555 1_555
C56 C55 1_555 1_555
H42 C56 1_555 1_555
C57 H43 1_555 1_555
C58 C54 1_555 1_555
H44 C58 1_555 1_555
N1 C35 1_555 1_555
N2 C40 1_555 1_555
N3 C41 1_555 1_555
N4 C44 1_555 1_555
N5 C47 1_555 1_555
N6 C52 1_555 1_555
N7 C53 1_555 1_555
N8 C56 1_555 1_555
O1 Cd2 1_555 1_555
O2 Cd1 1_555 1_555
O3 C17 1_555 1_555
O4 C17 1_555 1_555
O5 Cd1 1_555 1_555
O6 Cd1 1_555 1_555
O7 C34 1_555 1_555
O8 C34 1_555 1_555
C59 N9 1_555 1_555
C60 N9 1_555 1_555
C61 N9 1_555 1_555
O9 C61 1_555 1_555
C62 N10 1_555 1_555
C63 N10 1_555 1_555
C64 N10 1_555 1_555
O10 C64 1_555 1_555
Cd1_2 N8 1_555 1_555
Cd1C O3 1_555 1_555
Cd2_2 N4 1_555 1_555
Cd2C O7 1_555 1_555
N4_2 Cd2 1_555 1_555
N8_2 Cd1 1_555 1_555
O3C Cd1 1_555 1_555
O4C Cd1 1_555 1_555
O7C Cd2 1_555 1_555
O8C Cd2 1_555 1_555
Cd2 O2 1_555 1_555
Cd2 O6 1_555 1_555
C9 C10 1_555 1_555
C10 C11 1_555 1_555
C11 C12 1_555 1_555
C12 C13 1_555 1_555
C16 O1 1_555 1_555
C16 O2 1_555 1_555
C26 C27 1_555 1_555
C27 C28 1_555 1_555
C28 C29 1_555 1_555
C29 C30 1_555 1_555
C33 O5 1_555 1_555
C33 O6 1_555 1_555
C39 N1 1_555 1_555
C45 C46 1_555 1_555
C45 N4 1_555 1_555
C51 N5 1_555 1_555
C57 C58 1_555 1_555
C57 N8 1_555 1_555
N2 N3 1_555 1_555
N6 N7 1_555 1_555
O4 Cd1C 1_555 1_555
O8 Cd2C 1_555 1_555

#END
