
#######################################################################
#
#                 Cambridge Crystallographic Data Centre
#                                CCDC 
#
#######################################################################
#
# If this CIF has been generated from an entry in the Cambridge 
# Structural Database, then it will include bibliographic, chemical, 
# crystal, experimental, refinement or atomic coordinate data resulting 
# from the CCDC's data processing and validation procedures.
#
#######################################################################

data_OQESAF
_symmetry_cell_setting           monoclinic
_symmetry_space_group_name_H-M   'C 2/c'
_symmetry_Int_Tables_number      15
_space_group_name_Hall           '-C 2yn'
loop_
_symmetry_equiv_pos_site_id
_symmetry_equiv_pos_as_xyz
1 x,y,z
2 -x,y,1/2-z
3 1/2+x,1/2+y,z
4 1/2-x,1/2+y,1/2-z
5 -x,-y,-z
6 x,-y,1/2+z
7 1/2-x,1/2-y,-z
8 1/2+x,1/2-y,1/2+z
_cell_length_a                   7.1564(9)
_cell_length_b                   25.080(4)
_cell_length_c                   31.192(3)
_cell_angle_alpha                90
_cell_angle_beta                 96.287(11)
_cell_angle_gamma                90
_cell_volume                     5564.75
loop_
_atom_site_label
_atom_site_type_symbol
_atom_site_fract_x
_atom_site_fract_y
_atom_site_fract_z
Cd1 Cd 1.0000 0.40132(7) 0.2500
Pd1 Pd -0.2500 0.2500 0.0000
O1 O 0.6867(13) 0.3792(5) 0.2275(3)
O2 O 0.8932(15) 0.3349(5) 0.1955(3)
O3 O -0.648(4) -0.0136(11) 0.2009(8)
O4 O -0.363(4) -0.0534(11) 0.1993(9)
N1 N -0.1358(17) 0.2186(5) 0.0576(3)
N2 N -0.0435(17) 0.3008(6) 0.0010(4)
C1 C -0.206(2) 0.1782(7) 0.0794(5)
C2 C -0.087(3) 0.1701(8) 0.1189(5)
H1 H -0.0989 0.1439 0.1395
C3 C 0.043(3) 0.2079(10) 0.1197(5)
H2 H 0.1381 0.2129 0.1422
C4 C 0.019(2) 0.2393(7) 0.0822(4)
C5 C 0.1315(19) 0.2801(8) 0.0705(5)
C6 C 0.108(3) 0.3085(9) 0.0331(5)
C7 C 0.221(3) 0.3505(11) 0.0215(7)
H3 H 0.3295 0.3623 0.0380
C8 C 0.151(4) 0.3718(11) -0.0176(6)
H4 H 0.1993 0.4001 -0.0323
C9 C -0.015(3) 0.3400(8) -0.0308(6)
C10 C -0.367(3) 0.1501(7) 0.0671(5)
C11 C 0.2929(19) 0.2971(7) 0.1035(4)
C12 C 0.252(2) 0.3248(8) 0.1401(5)
H5 H 0.1274 0.3317 0.1441
C13 C 0.393(2) 0.3421(8) 0.1702(4)
H6 H 0.3624 0.3625 0.1934
C14 C 0.572(2) 0.3305(7) 0.1669(4)
C15 C 0.619(2) 0.2992(8) 0.1314(6)
H7 H 0.7420 0.2890 0.1289
C16 C 0.471(2) 0.2846(9) 0.1007(5)
H8 H 0.4992 0.2651 0.0769
C17 C 0.727(2) 0.3485(7) 0.1986(4)
C18 C -0.407(3) 0.1036(6) 0.0968(4)
C19 C -0.557(3) 0.1085(6) 0.1212(6)
H9 H -0.6344 0.1383 0.1180
C20 C -0.591(3) 0.0689(9) 0.1505(6)
H10 H -0.6920 0.0722 0.1668
C21 C -0.476(4) 0.0243(7) 0.1553(5)
C22 C -0.325(4) 0.0194(6) 0.1309(6)
H11 H -0.2477 -0.0104 0.1342
C23 C -0.291(3) 0.0590(9) 0.1017(5)
H12 H -0.1902 0.0557 0.0853
C24 C -0.498(3) -0.0202(8) 0.1885(6)
Cd1B Cd -0.5000 -0.09868(7) 0.2500
Cd1D Cd 0.0000 0.59868(7) -0.2500
Cd1F Cd -1.5000 0.09868(7) -0.2500
O1F O -1.1867(13) 0.1208(5) -0.2275(3)
O1A O 1.3133(13) 0.3792(5) 0.2725(3)
O2F O -1.3932(15) 0.1651(5) -0.1955(3)
O2A O 1.1068(15) 0.3349(5) 0.3045(3)
O3F O 0.148(4) 0.5136(11) -0.2009(8)
O3B O 0.852(4) 0.4864(11) 0.2009(8)
O3C O 1.148(4) 0.4864(11) 0.2991(8)
O4F O -0.137(4) 0.5534(11) -0.1993(9)
O4B O 1.137(4) 0.4466(11) 0.1993(9)
O4C O 0.863(4) 0.4466(11) 0.3007(9)
N1F N -0.3642(17) 0.2814(5) -0.0576(3)
N2F N -0.4565(17) 0.1992(6) -0.0010(4)
C1F C -0.294(2) 0.3218(7) -0.0794(5)
C2F C -0.413(3) 0.3299(8) -0.1189(5)
H1F H -0.4011 0.3561 -0.1395
C3F C -0.543(3) 0.2921(10) -0.1197(5)
H2F H -0.6381 0.2871 -0.1422
C4F C -0.519(2) 0.2607(7) -0.0822(4)
C5F C -0.6315(19) 0.2199(8) -0.0705(5)
C6F C -0.608(3) 0.1915(9) -0.0331(5)
C7F C -0.721(3) 0.1495(11) -0.0215(7)
H3F H -0.8295 0.1377 -0.0380
C8F C -0.651(4) 0.1282(11) 0.0176(6)
H4F H -0.6993 0.0999 0.0323
C9F C -0.485(3) 0.1600(8) 0.0308(6)
C10F C -0.133(3) 0.3499(7) -0.0671(5)
C11F C -0.7929(19) 0.2029(7) -0.1035(4)
C12F C -0.752(2) 0.1752(8) -0.1401(5)
H5F H -0.6274 0.1683 -0.1441
C13F C -0.893(2) 0.1579(8) -0.1702(4)
H6F H -0.8624 0.1375 -0.1934
C14F C -1.072(2) 0.1695(7) -0.1669(4)
C15F C -1.119(2) 0.2008(8) -0.1314(6)
H7F H -1.2420 0.2110 -0.1289
C16F C -0.971(2) 0.2154(9) -0.1007(5)
H8F H -0.9992 0.2349 -0.0769
C17F C -1.227(2) 0.1515(7) -0.1986(4)
C18F C -0.093(3) 0.3964(6) -0.0968(4)
C19F C 0.057(3) 0.3915(6) -0.1212(6)
H9F H 0.1344 0.3617 -0.1180
C20F C 0.091(3) 0.4311(9) -0.1505(6)
H10F H 0.1920 0.4278 -0.1668
C21F C -0.024(4) 0.4757(7) -0.1553(5)
C22F C -0.175(4) 0.4806(6) -0.1309(6)
H11F H -0.2523 0.5104 -0.1342
C23F C -0.209(3) 0.4410(9) -0.1017(5)
H12F H -0.3098 0.4443 -0.0853
C24F C -0.002(3) 0.5202(8) -0.1885(6)
Cd2 Cd 0.5000 0.4567(3) 0.2500
O5 O 0.545(7) 0.514(4) 0.199(4)
Cd2F Cd -1.0000 0.0433(3) -0.2500
O1A_2 O 0.3133(13) 0.3792(5) 0.2725(3)
O5A O 0.455(7) 0.514(4) 0.301(4)
loop_
_geom_bond_atom_site_label_1
_geom_bond_atom_site_label_2
_geom_bond_site_symmetry_1
_geom_bond_site_symmetry_2
Cd1 O1 1_555 1_555
Pd1 N1 1_555 1_555
O1 C17 1_555 1_555
O2 Cd1 1_555 1_555
O3 C24 1_555 1_555
O4 C24 1_555 1_555
N1 C1 1_555 1_555
N2 Pd1 1_555 1_555
C1 C2 1_555 1_555
C2 H1 1_555 1_555
C3 C2 1_555 1_555
H2 C3 1_555 1_555
C4 N1 1_555 1_555
C5 C4 1_555 1_555
C6 N2 1_555 1_555
C7 C6 1_555 1_555
H3 C7 1_555 1_555
C8 C7 1_555 1_555
H4 C8 1_555 1_555
C9 N2 1_555 1_555
C10 C1 1_555 1_555
C11 C5 1_555 1_555
C12 C11 1_555 1_555
H5 C12 1_555 1_555
C13 C12 1_555 1_555
H6 C13 1_555 1_555
C14 C13 1_555 1_555
C15 C14 1_555 1_555
H7 C15 1_555 1_555
C16 C11 1_555 1_555
H8 C16 1_555 1_555
C17 O2 1_555 1_555
C18 C10 1_555 1_555
C19 C18 1_555 1_555
H9 C19 1_555 1_555
C20 C19 1_555 1_555
H10 C20 1_555 1_555
C21 C20 1_555 1_555
C22 C21 1_555 1_555
H11 C22 1_555 1_555
C23 C18 1_555 1_555
H12 C23 1_555 1_555
C24 C21 1_555 1_555
Cd1B O3 1_555 1_555
Cd1D O3F 1_555 1_555
Cd1F O1F 1_555 1_555
O1F C17F 1_555 1_555
O1A Cd1 1_555 1_555
O2F Cd1F 1_555 1_555
O2A Cd1 1_555 1_555
O3F C24F 1_555 1_555
O3B Cd1 1_555 1_555
O3C Cd1 1_555 1_555
O4F Cd1D 1_555 1_555
O4B Cd1 1_555 1_555
O4C Cd1 1_555 1_555
N1F Pd1 1_555 1_555
N2F Pd1 1_555 1_555
C1F N1F 1_555 1_555
C2F C1F 1_555 1_555
H1F C2F 1_555 1_555
C3F C2F 1_555 1_555
H2F C3F 1_555 1_555
C4F N1F 1_555 1_555
C5F C4F 1_555 1_555
C6F N2F 1_555 1_555
C7F C6F 1_555 1_555
H3F C7F 1_555 1_555
C8F C7F 1_555 1_555
H4F C8F 1_555 1_555
C9F C10 1_555 1_555
C10F C9 1_555 1_555
C11F C5F 1_555 1_555
C12F C11F 1_555 1_555
H5F C12F 1_555 1_555
C13F C12F 1_555 1_555
H6F C13F 1_555 1_555
C14F C13F 1_555 1_555
C15F C14F 1_555 1_555
H7F C15F 1_555 1_555
C16F C11F 1_555 1_555
H8F C16F 1_555 1_555
C17F O2F 1_555 1_555
C18F C10F 1_555 1_555
C19F C18F 1_555 1_555
H9F C19F 1_555 1_555
C20F C19F 1_555 1_555
H10F C20F 1_555 1_555
C21F C20F 1_555 1_555
C22F C21F 1_555 1_555
H11F C22F 1_555 1_555
C23F C18F 1_555 1_555
H12F C23F 1_555 1_555
C24F O4F 1_555 1_555
O4 Cd1B 1_555 1_555
C3 C4 1_555 1_555
C5 C6 1_555 1_555
C8 C9 1_555 1_555
C14 C17 1_555 1_555
C15 C16 1_555 1_555
C22 C23 1_555 1_555
N2F C9F 1_555 1_555
C1F C10F 1_555 1_555
C3F C4F 1_555 1_555
C5F C6F 1_555 1_555
C8F C9F 1_555 1_555
C14F C17F 1_555 1_555
C15F C16F 1_555 1_555
C21F C24F 1_555 1_555
C22F C23F 1_555 1_555

#END
