
#######################################################################
#
#                 Cambridge Crystallographic Data Centre
#                                CCDC 
#
#######################################################################
#
# If this CIF has been generated from an entry in the Cambridge 
# Structural Database, then it will include bibliographic, chemical, 
# crystal, experimental, refinement or atomic coordinate data resulting 
# from the CCDC's data processing and validation procedures.
#
#######################################################################

data_OQESEJ
_symmetry_cell_setting           monoclinic
_symmetry_space_group_name_H-M   'C 2/c'
_symmetry_Int_Tables_number      15
_space_group_name_Hall           '-C 2yn'
loop_
_symmetry_equiv_pos_site_id
_symmetry_equiv_pos_as_xyz
1 x,y,z
2 -x,y,1/2-z
3 1/2+x,1/2+y,z
4 1/2-x,1/2+y,1/2-z
5 -x,-y,-z
6 x,-y,1/2+z
7 1/2-x,1/2-y,-z
8 1/2+x,1/2-y,1/2+z
_cell_length_a                   7.2751(3)
_cell_length_b                   25.5905(15)
_cell_length_c                   30.7749(11)
_cell_angle_alpha                90
_cell_angle_beta                 96.478(4)
_cell_angle_gamma                90
_cell_volume                     5692.89
loop_
_atom_site_label
_atom_site_type_symbol
_atom_site_fract_x
_atom_site_fract_y
_atom_site_fract_z
Cd2 Cd 1.0000 0.2891(3) 0.2500
O1 O 1.2128(10) 0.3669(3) 0.2722(2)
O4 O 1.0000 0.1993(5) 0.2500
Cd2D Cd 2.0000 0.7109(3) -0.2500
Cd1 Cd 0.5000 0.34427(5) 0.2500
Pd1 Pd 1.5000 0.5000 0.0000
O2 O 0.5501(12) 0.4079(5) 0.1941(3)
O3 O 2.111(3) 0.7591(9) 0.2027(8)
N1 N 1.4468(12) 0.5284(4) 0.0588(3)
N2 N 1.2905(13) 0.4504(4) -0.0001(3)
C1 C 1.5381(17) 0.5675(5) 0.0816(4)
C2 C 1.464(2) 0.5748(6) 0.1225(4)
H1 H 1.5037 0.5988 0.1443
C3 C 1.332(2) 0.5410(6) 0.1229(4)
H2 H 1.2589 0.5373 0.1456
C4 C 1.3117(16) 0.5094(6) 0.0833(3)
C5 C 1.1862(15) 0.4705(6) 0.0714(3)
C6 C 1.1728(17) 0.4445(5) 0.0332(4)
C7 C 1.048(3) 0.4034(8) 0.0216(5)
H3 H 0.9575 0.3912 0.0382
C8 C 1.084(3) 0.3838(7) -0.0196(5)
H4 H 1.0197 0.3575 -0.0357
C9 C 1.2351(19) 0.4121(5) -0.0312(4)
C10 C 1.6835(19) 0.5968(5) 0.0688(4)
C11 C 1.0628(15) 0.4553(6) 0.1054(4)
C12 C 1.1394(17) 0.4259(6) 0.1412(4)
H5 H 1.2649 0.4178 0.1444
C13 C 1.0276(16) 0.4090(6) 0.1716(4)
H6 H 1.0788 0.3900 0.1958
C14 C 0.8383(15) 0.4200(5) 0.1666(3)
C15 C 0.7662(16) 0.4493(6) 0.1313(4)
H7 H 0.6414 0.4581 0.1285
C16 C 0.8739(15) 0.4660(6) 0.1003(4)
H8 H 0.8211 0.4844 0.0760
C17 C 0.7195(16) 0.3967(5) 0.1987(4)
C18 C 1.758(2) 0.6406(4) 0.0992(3)
C19 C 1.9324(19) 0.6365(5) 0.1227(4)
H9 H 2.0045 0.6070 0.1196
C20 C 1.999(2) 0.6765(7) 0.1507(4)
H10 H 2.1153 0.6738 0.1664
C21 C 1.891(3) 0.7206(5) 0.1553(4)
C22 C 1.717(3) 0.7247(5) 0.1318(5)
H11 H 1.6445 0.7541 0.1349
C23 C 1.650(2) 0.6846(6) 0.1038(4)
H12 H 1.5337 0.6874 0.0881
C24 C 1.951(3) 0.7634(7) 0.1891(5)
O5 O 1.817(3) 0.7950(9) 0.1934(7)
Cd1B Cd 2.0000 0.84427(5) 0.2500
Cd1F Cd 1.0000 0.15573(5) -0.2500
Cd1D Cd 2.5000 0.65573(5) -0.2500
O1A O 0.7872(10) 0.3669(3) 0.2278(2)
O1E O 2.2128(10) 0.6331(3) -0.2278(2)
O1_2 O 0.2128(10) 0.3669(3) 0.2722(2)
O2D O 2.4499(12) 0.5921(5) -0.1941(3)
O2A O 0.4499(12) 0.4079(5) 0.3059(3)
O3D O 0.889(3) 0.2409(9) -0.2027(8)
O3B O 0.611(3) 0.2591(9) 0.2027(8)
O3C O 0.389(3) 0.2591(9) 0.2973(8)
N1D N 1.5532(12) 0.4716(4) -0.0588(3)
N2D N 1.7095(13) 0.5496(4) 0.0001(3)
C1D C 1.4619(17) 0.4325(5) -0.0816(4)
C2D C 1.536(2) 0.4252(6) -0.1225(4)
H1D H 1.4963 0.4012 -0.1443
C3D C 1.668(2) 0.4590(6) -0.1229(4)
H2D H 1.7411 0.4627 -0.1456
C4D C 1.6883(16) 0.4906(6) -0.0833(3)
C5D C 1.8138(15) 0.5295(6) -0.0714(3)
C6D C 1.8272(17) 0.5555(5) -0.0332(4)
C7D C 1.952(3) 0.5966(8) -0.0216(5)
H3D H 2.0425 0.6088 -0.0382
C8D C 1.916(3) 0.6162(7) 0.0196(5)
H4D H 1.9803 0.6425 0.0357
C9D C 1.7649(19) 0.5879(5) 0.0312(4)
C10D C 1.3165(19) 0.4032(5) -0.0688(4)
C11D C 1.9372(15) 0.5447(6) -0.1054(4)
C12D C 1.8606(17) 0.5741(6) -0.1412(4)
H5D H 1.7351 0.5822 -0.1444
C13D C 1.9724(16) 0.5910(6) -0.1716(4)
H6D H 1.9212 0.6100 -0.1958
C14D C 2.1617(15) 0.5800(5) -0.1666(3)
C15D C 2.2338(16) 0.5507(6) -0.1313(4)
H7D H 2.3586 0.5419 -0.1285
C16D C 2.1261(15) 0.5340(6) -0.1003(4)
H8D H 2.1789 0.5156 -0.0760
C17D C 2.2805(16) 0.6033(5) -0.1987(4)
C18D C 1.242(2) 0.3594(4) -0.0992(3)
C19D C 1.0676(19) 0.3635(5) -0.1227(4)
H9D H 0.9955 0.3930 -0.1196
C20D C 1.001(2) 0.3235(7) -0.1507(4)
H10D H 0.8847 0.3262 -0.1664
C21D C 1.109(3) 0.2794(5) -0.1553(4)
C22D C 1.283(3) 0.2753(5) -0.1318(5)
H11D H 1.3555 0.2459 -0.1349
C23D C 1.350(2) 0.3154(6) -0.1038(4)
H12D H 1.4663 0.3126 -0.0881
C24D C 1.049(3) 0.2366(7) -0.1891(5)
O5D O 1.183(3) 0.2050(9) -0.1934(7)
O5B O 0.317(3) 0.2950(9) 0.1934(7)
O5C O 0.683(3) 0.2950(9) 0.3066(7)
loop_
_geom_bond_atom_site_label_1
_geom_bond_atom_site_label_2
_geom_bond_site_symmetry_1
_geom_bond_site_symmetry_2
Cd1 O2 1_555 1_555
Pd1 N1 1_555 1_555
O2 C17 1_555 1_555
O3 C24 1_555 1_555
N1 C1 1_555 1_555
N2 Pd1 1_555 1_555
C1 C2 1_555 1_555
C2 H1 1_555 1_555
C3 C2 1_555 1_555
H2 C3 1_555 1_555
C4 N1 1_555 1_555
C5 C4 1_555 1_555
C6 N2 1_555 1_555
C7 C6 1_555 1_555
H3 C7 1_555 1_555
C8 C7 1_555 1_555
H4 C8 1_555 1_555
C9 N2 1_555 1_555
C10 C1 1_555 1_555
C11 C5 1_555 1_555
C12 C11 1_555 1_555
H5 C12 1_555 1_555
C13 C12 1_555 1_555
H6 C13 1_555 1_555
C14 C13 1_555 1_555
C15 C14 1_555 1_555
H7 C15 1_555 1_555
C16 C11 1_555 1_555
H8 C16 1_555 1_555
C17 C14 1_555 1_555
C18 C10 1_555 1_555
C19 C18 1_555 1_555
H9 C19 1_555 1_555
C20 C19 1_555 1_555
H10 C20 1_555 1_555
C21 C20 1_555 1_555
C22 C21 1_555 1_555
H11 C22 1_555 1_555
C23 C18 1_555 1_555
H12 C23 1_555 1_555
C24 C21 1_555 1_555
O5 C24 1_555 1_555
Cd1B O3 1_555 1_555
Cd1F O3D 1_555 1_555
Cd1D O1E 1_555 1_555
O1A Cd1 1_555 1_555
O1E C17D 1_555 1_555
O1_2 Cd1 1_555 1_555
O2D Cd1D 1_555 1_555
O2A Cd1 1_555 1_555
O3D C24D 1_555 1_555
O3B Cd1 1_555 1_555
O3C Cd1 1_555 1_555
N1D Pd1 1_555 1_555
N2D Pd1 1_555 1_555
C1D N1D 1_555 1_555
C2D C1D 1_555 1_555
H1D C2D 1_555 1_555
C3D C2D 1_555 1_555
H2D C3D 1_555 1_555
C4D N1D 1_555 1_555
C5D C4D 1_555 1_555
C6D N2D 1_555 1_555
C7D C6D 1_555 1_555
H3D C7D 1_555 1_555
C8D C7D 1_555 1_555
H4D C8D 1_555 1_555
C9D C10 1_555 1_555
C10D C9 1_555 1_555
C11D C5D 1_555 1_555
C12D C11D 1_555 1_555
H5D C12D 1_555 1_555
C13D C12D 1_555 1_555
H6D C13D 1_555 1_555
C14D C13D 1_555 1_555
C15D C14D 1_555 1_555
H7D C15D 1_555 1_555
C16D C11D 1_555 1_555
H8D C16D 1_555 1_555
C17D O2D 1_555 1_555
C18D C10D 1_555 1_555
C19D C18D 1_555 1_555
H9D C19D 1_555 1_555
C20D C19D 1_555 1_555
H10D C20D 1_555 1_555
C21D C20D 1_555 1_555
C22D C21D 1_555 1_555
H11D C22D 1_555 1_555
C23D C18D 1_555 1_555
H12D C23D 1_555 1_555
C24D C21D 1_555 1_555
O5D Cd1F 1_555 1_555
O5B Cd1 1_555 1_555
O5C Cd1 1_555 1_555
C3 C4 1_555 1_555
C5 C6 1_555 1_555
C8 C9 1_555 1_555
C15 C16 1_555 1_555
C17 O1A 1_555 1_555
C22 C23 1_555 1_555
O5 Cd1B 1_555 1_555
N2D C9D 1_555 1_555
C1D C10D 1_555 1_555
C3D C4D 1_555 1_555
C5D C6D 1_555 1_555
C8D C9D 1_555 1_555
C14D C17D 1_555 1_555
C15D C16D 1_555 1_555
C22D C23D 1_555 1_555
C24D O5D 1_555 1_555

#END
