
#######################################################################
#
#                 Cambridge Crystallographic Data Centre
#                                CCDC 
#
#######################################################################
#
# If this CIF has been generated from an entry in the Cambridge 
# Structural Database, then it will include bibliographic, chemical, 
# crystal, experimental, refinement or atomic coordinate data resulting 
# from the CCDC's data processing and validation procedures.
#
#######################################################################

data_ORUSUQ01
_symmetry_cell_setting           triclinic
_symmetry_space_group_name_H-M   'P -1'
_symmetry_Int_Tables_number      2
_space_group_name_Hall           '-P 1'
loop_
_symmetry_equiv_pos_site_id
_symmetry_equiv_pos_as_xyz
1 x,y,z
2 -x,-y,-z
_cell_length_a                   8.5503(12)
_cell_length_b                   10.0700(14)
_cell_length_c                   11.2653(15)
_cell_angle_alpha                77.638(2)
_cell_angle_beta                 73.9210(10)
_cell_angle_gamma                88.716(2)
_cell_volume                     909.703
loop_
_atom_site_label
_atom_site_type_symbol
_atom_site_fract_x
_atom_site_fract_y
_atom_site_fract_z
Co1 Co -1.0000 0.0000 0.0000
Co2 Co -1.00663(4) -0.23262(3) -0.13807(3)
C1 C -0.3904(3) 0.4648(3) -0.3112(3)
C2 C -0.3289(3) 0.4000(3) -0.4097(3)
H1 H -0.2369 0.4358 -0.4746
C3 C -0.4060(3) 0.2815(3) -0.4104(3)
C4 C -0.5426(3) 0.2280(3) -0.3151(3)
H2 H -0.5942 0.1483 -0.3166
C5 C -0.6023(3) 0.2945(3) -0.2165(3)
C6 C -0.5266(3) 0.4134(3) -0.2132(3)
H3 H -0.5663 0.4574 -0.1469
C7 C -0.2550(4) 0.6069(3) -0.2111(3)
H4 H -0.2891 0.5537 -0.1294
C8 C -0.1379(4) 0.7605(3) -0.3705(3)
H5 H -0.0736 0.8362 -0.4207
C9 C -0.2272(4) 0.6824(3) -0.4116(3)
H6 H -0.2359 0.6933 -0.4936
C10 C -0.2570(4) 0.2695(3) -0.6281(3)
H7 H -0.2518 0.3627 -0.6610
C11 C -0.3156(4) 0.0730(3) -0.4969(3)
H8 H -0.3562 0.0054 -0.4246
C12 C -0.2256(4) 0.0557(3) -0.6106(3)
H9 H -0.1937 -0.0278 -0.6301
C13 C -0.7532(3) 0.2345(3) -0.1127(3)
C14 C -0.6039(3) -0.1003(3) -0.0098(3)
C15 C -0.6554(3) -0.0258(3) 0.0850(3)
C16 C -0.4488(3) -0.0738(3) -0.0924(3)
H10 H -0.4137 -0.1242 -0.1545
C17 C -0.7115(3) -0.2039(3) -0.0303(3)
C18 C -0.8210(4) -0.0521(3) 0.1808(3)
N1 N -0.3026(3) 0.5836(2) -0.3093(2)
N2 N -0.1550(3) 0.7132(3) -0.2441(2)
N3 N -0.3358(3) 0.2104(2) -0.5089(2)
N4 N -0.1877(3) 0.1794(2) -0.6935(2)
O1 O -0.8610(2) -0.1729(2) -0.02289(19)
O2 O -0.6544(3) -0.3111(2) -0.0561(3)
O3 O -0.9342(2) 0.02782(19) 0.15607(18)
O4 O -0.8418(3) -0.1425(3) 0.2741(3)
O5 O -0.8133(2) 0.12683(19) -0.12260(18)
O6 O -0.8055(2) 0.2983(2) -0.02498(19)
O7 O -0.8967(3) -0.4239(2) -0.1101(2)
Co1_2 Co 0.0000 0.0000 0.0000
Co2A Co -1.99337(4) -0.76738(3) 0.13807(3)
Co2A_2 Co 0.00663(4) 0.23262(3) -0.86193(3)
Co2_2 Co -0.00663(4) 0.76738(3) -0.13807(3)
Co2A_3 Co -0.99337(4) 0.23262(3) 0.13807(3)
Co2_3 Co -0.00663(4) -0.23262(3) -0.13807(3)
Co2A_4 Co 0.00663(4) 0.23262(3) 0.13807(3)
Co2_4 Co -2.00663(4) -0.23262(3) 0.86193(3)
C1A C -1.6096(3) -0.4648(3) 0.3112(3)
C2A C -1.6711(3) -0.4000(3) 0.4097(3)
H1A H -1.7631 -0.4358 0.4746
C3A C -1.5940(3) -0.2815(3) 0.4104(3)
C4A C -1.4574(3) -0.2280(3) 0.3151(3)
H2A H -1.4058 -0.1483 0.3166
C5A C -1.3977(3) -0.2945(3) 0.2165(3)
C6A C -1.4734(3) -0.4134(3) 0.2132(3)
H3A H -1.4337 -0.4574 0.1469
C7A C -1.7450(4) -0.6069(3) 0.2111(3)
H4A H -1.7109 -0.5537 0.1294
C8A C -1.8621(4) -0.7605(3) 0.3705(3)
H5A H -1.9264 -0.8362 0.4207
C9A C -1.7728(4) -0.6824(3) 0.4116(3)
H6A H -1.7641 -0.6933 0.4936
C10A C -1.7430(4) -0.2695(3) 0.6281(3)
H7A H -1.7482 -0.3627 0.6610
C11A C -1.6844(4) -0.0730(3) 0.4969(3)
H8A H -1.6438 -0.0054 0.4246
C12A C -1.7744(4) -0.0557(3) 0.6106(3)
H9A H -1.8063 0.0278 0.6301
C13A C -1.2468(3) -0.2345(3) 0.1127(3)
C14A C -0.3961(3) 0.1003(3) 0.0098(3)
C15A C -0.3446(3) 0.0258(3) -0.0850(3)
C16A C -0.5512(3) 0.0738(3) 0.0924(3)
H10A H -0.5863 0.1242 0.1545
C17A C -0.2885(3) 0.2039(3) 0.0303(3)
C18A C -0.1790(4) 0.0521(3) -0.1808(3)
N1A N -1.6974(3) -0.5836(2) 0.3093(2)
N2A N -1.8450(3) -0.7132(3) 0.2441(2)
N2_2 N -1.1550(3) -0.2868(3) -0.2441(2)
N2A_2 N 0.1550(3) 0.2868(3) 0.2441(2)
N3A N -1.6642(3) -0.2104(2) 0.5089(2)
N4A N -1.8123(3) -0.1794(2) 0.6935(2)
N4A_2 N -0.8123(3) -0.1794(2) -0.3065(2)
N4_2 N -0.1877(3) 0.1794(2) 0.3065(2)
O1A O -0.1390(2) 0.1729(2) 0.02289(19)
O1A_2 O -1.1390(2) 0.1729(2) 0.02289(19)
O2A O -0.3456(3) 0.3111(2) 0.0561(3)
O3A O -0.0658(2) -0.02782(19) -0.15607(18)
O3A_2 O -1.0658(2) -0.02782(19) -0.15607(18)
O3_2 O 0.0658(2) 0.02782(19) 0.15607(18)
O4A O -0.1582(3) 0.1425(3) -0.2741(3)
O5A O -1.1867(2) -0.12683(19) 0.12260(18)
O6A O -1.1945(2) -0.2983(2) 0.02498(19)
O6_2 O 0.1945(2) 0.2983(2) -0.02498(19)
O7A O -0.1033(3) 0.4239(2) 0.1101(2)
O8 O -0.0386(4) 0.6051(4) -0.6998(4)
H11 H 0.0238 0.6761 -0.7257
H12 H -0.0398 0.5718 -0.7628
loop_
_geom_bond_atom_site_label_1
_geom_bond_atom_site_label_2
_geom_bond_site_symmetry_1
_geom_bond_site_symmetry_2
Co1 O1 1_555 1_555
Co2 O1 1_555 1_555
C1 C2 1_555 1_555
C2 H1 1_555 1_555
C3 C2 1_555 1_555
C4 C3 1_555 1_555
H2 C4 1_555 1_555
C5 C4 1_555 1_555
C6 C1 1_555 1_555
H3 C6 1_555 1_555
C7 H4 1_555 1_555
C8 H5 1_555 1_555
C9 C8 1_555 1_555
H6 C9 1_555 1_555
C10 H7 1_555 1_555
C11 H8 1_555 1_555
C12 C11 1_555 1_555
H9 C12 1_555 1_555
C13 C5 1_555 1_555
C14 C15 1_555 1_555
C15 C18 1_555 1_555
C16 C14 1_555 1_555
H10 C16 1_555 1_555
C17 C14 1_555 1_555
C18 O3 1_555 1_555
N1 C1 1_555 1_555
N2 C7 1_555 1_555
N3 C3 1_555 1_555
N4 C10 1_555 1_555
O1 C17 1_555 1_555
O2 C17 1_555 1_555
O3 Co1 1_555 1_555
O4 C18 1_555 1_555
O5 Co1 1_555 1_555
O6 C13 1_555 1_555
O7 Co2 1_555 1_555
O8 H11 1_555 1_555
H12 O8 1_555 1_555
Co1_2 O1A 1_555 1_555
Co2A N2A 1_555 1_555
Co2A_2 N4 1_555 1_555
Co2_2 N2 1_555 1_555
Co2A_3 O3 1_555 1_555
Co2_3 O3A 1_555 1_555
Co2A_4 N2A_2 1_555 1_555
Co2_4 N4A 1_555 1_555
C1A C2A 1_555 1_555
C2A H1A 1_555 1_555
C3A C2A 1_555 1_555
C4A C3A 1_555 1_555
H2A C4A 1_555 1_555
C5A C4A 1_555 1_555
C6A C1A 1_555 1_555
H3A C6A 1_555 1_555
C7A H4A 1_555 1_555
C8A H5A 1_555 1_555
C9A C8A 1_555 1_555
H6A C9A 1_555 1_555
C10A H7A 1_555 1_555
C11A H8A 1_555 1_555
C12A C11A 1_555 1_555
H9A C12A 1_555 1_555
C13A C5A 1_555 1_555
C14A C15A 1_555 1_555
C15A C16 1_555 1_555
C16A C15 1_555 1_555
H10A C16A 1_555 1_555
C17A C14A 1_555 1_555
C18A C15A 1_555 1_555
N1A C1A 1_555 1_555
N2A C7A 1_555 1_555
N2_2 Co2 1_555 1_555
N3A C3A 1_555 1_555
N4A C10A 1_555 1_555
N4A_2 Co2 1_555 1_555
N4_2 Co2A_4 1_555 1_555
O1A Co2A_4 1_555 1_555
O1A_2 Co1 1_555 1_555
O2A C17A 1_555 1_555
O3A Co1_2 1_555 1_555
O3A_2 Co1 1_555 1_555
O3_2 Co1_2 1_555 1_555
O4A C18A 1_555 1_555
O5A Co1 1_555 1_555
O6A Co2 1_555 1_555
O6_2 Co2A_4 1_555 1_555
O7A Co2A_4 1_555 1_555
Co2 O3A_2 1_555 1_555
C5 C6 1_555 1_555
C7 N1 1_555 1_555
C8 N2 1_555 1_555
C9 N1 1_555 1_555
C10 N3 1_555 1_555
C11 N3 1_555 1_555
C12 N4 1_555 1_555
C13 O5 1_555 1_555
O6 Co2A_3 1_555 1_555
Co2A_3 O1A_2 1_555 1_555
Co2A_4 O3_2 1_555 1_555
C5A C6A 1_555 1_555
C7A N1A 1_555 1_555
C8A N2A 1_555 1_555
C9A N1A 1_555 1_555
C10A N3A 1_555 1_555
C11A N3A 1_555 1_555
C12A N4A 1_555 1_555
C13A O5A 1_555 1_555
C13A O6A 1_555 1_555
C14A C16A 1_555 1_555
C17A O1A 1_555 1_555
C18A O3A 1_555 1_555

#END
