
#######################################################################
#
#                 Cambridge Crystallographic Data Centre
#                                CCDC 
#
#######################################################################
#
# If this CIF has been generated from an entry in the Cambridge 
# Structural Database, then it will include bibliographic, chemical, 
# crystal, experimental, refinement or atomic coordinate data resulting 
# from the CCDC's data processing and validation procedures.
#
#######################################################################

data_OVIZUP
_symmetry_cell_setting           tetragonal
_symmetry_space_group_name_H-M   'P 41 21 2'
_symmetry_Int_Tables_number      92
_space_group_name_Hall           'P 4abw 2nw'
loop_
_symmetry_equiv_pos_site_id
_symmetry_equiv_pos_as_xyz
1 x,y,z
2 1/2-y,1/2+x,1/4+z
3 -x,-y,1/2+z
4 1/2+y,1/2-x,3/4+z
5 1/2+x,1/2-y,3/4-z
6 1/2-x,1/2+y,1/4-z
7 y,x,-z
8 -y,-x,1/2-z
_cell_length_a                   17.6574(4)
_cell_length_b                   17.6574(4)
_cell_length_c                   18.6518(9)
_cell_angle_alpha                90
_cell_angle_beta                 90
_cell_angle_gamma                90
_cell_volume                     5815.33
loop_
_atom_site_label
_atom_site_type_symbol
_atom_site_fract_x
_atom_site_fract_y
_atom_site_fract_z
Ni1 Ni 0.38221(3) 0.58006(3) 0.07370(3)
O1 O 0.3015(4) 0.3982(3) 0.39329(19)
C1 C 0.3839(3) 0.9271(6) -0.2476(3)
H1 H 0.3317 0.9219 -0.2631
H2 H 0.4161 0.9118 -0.2871
Ni2 Ni 0.27608(3) 0.46707(2) 0.18655(2)
O2 O 0.28948(19) 0.47035(16) 0.29690(15)
C2 C 0.3991(3) 1.0100(4) -0.2310(3)
O3 O 0.50657(17) 0.47657(19) 0.16875(18)
C3 C 0.3561(3) 1.0528(4) -0.1849(3)
H3 H 0.3152 1.0309 -0.1613
O4 O 0.38389(16) 0.50542(14) 0.16370(15)
C4 C 0.3731(3) 1.1281(3) -0.1733(3)
H4 H 0.3434 1.1555 -0.1413
O5 O 0.2622(2) 0.07517(16) 0.05382(15)
C5 C 0.4608(3) 1.0467(4) -0.2635(3)
H5 H 0.4925 1.0201 -0.2944
O6 O 0.22737(17) 0.11231(16) 0.16246(14)
C6 C 0.4743(3) 1.1222(3) -0.2495(2)
H6 H 0.5155 1.1455 -0.2713
C7 C 0.2998(3) 0.4062(3) 0.3281(3)
O7 O 0.49090(15) 0.34884(16) -0.01523(16)
C8 C 0.3101(3) 0.3381(2) 0.2799(2)
H7 H 0.3422 0.3009 0.3032
H8 H 0.2614 0.3148 0.2702
O8 O 0.4037(2) 0.6726(2) 0.1424(2)
N1 N 0.4307(2) 1.1633(2) -0.20607(18)
C9 C 0.3062(2) 0.2428(2) 0.1556(2)
H9 H 0.2754 0.2323 0.1948
O9 O 0.49799(17) 0.56343(19) 0.0612(2)
C10 C 0.3485(2) 0.30893(19) 0.15508(19)
C11 C 0.3951(2) 0.3222(2) 0.0960(2)
H10 H 0.4257 0.3651 0.0955
C12 C 0.4215(2) 0.3948(2) 0.2282(2)
H11 H 0.4593 0.3560 0.2195
H12 H 0.4238 0.4082 0.2785
N2 N 0.3861(2) 0.6476(2) -0.01895(18)
C13 C 0.4402(2) 0.4643(2) 0.1832(2)
C14 C 0.3089(2) 0.1917(2) 0.0985(2)
C15 C 0.3539(2) 0.2066(2) 0.0389(2)
H13 H 0.3552 0.1731 0.0005
C16 C 0.3972(2) 0.2731(2) 0.03782(19)
C17 C 0.4472(2) 0.2938(2) -0.0258(2)
C18 C 0.2626(2) 0.1212(2) 0.1048(2)
C19 C 0.3253(3) 0.6539(4) -0.0611(3)
H14 H 0.2818 0.6270 -0.0492
C20 C 0.3246(4) 0.6991(4) -0.1218(3)
H15 H 0.2811 0.7018 -0.1498
N3 N 0.34531(19) 0.36341(18) 0.21207(17)
C21 C 0.3877(3) 0.7403(4) -0.1413(3)
C22 C 0.4482(4) 0.7333(5) -0.0975(4)
H16 H 0.4921 0.7602 -0.1078
C23 C 0.4464(3) 0.6875(4) -0.0378(3)
H17 H 0.4896 0.6845 -0.0094
C24 C 0.3866(3) 0.7916(6) -0.2048(3)
H18 H 0.3387 0.7859 -0.2296
H19 H 0.4265 0.7766 -0.2376
C25 C 0.3974(3) 0.8743(4) -0.1852(3)
H20 H 0.3627 0.8871 -0.1467
H21 H 0.4485 0.8815 -0.1676
O10 O 0.43941(15) 0.25650(16) -0.08234(13)
Ni1E Ni 0.11779(3) 0.08006(3) 0.17630(3)
Ni1F Ni 0.58006(3) 0.38221(3) -0.07370(3)
Ni2E Ni 0.22392(3) -0.03293(2) 0.06345(2)
Ni2F Ni 0.46707(2) 1.27608(3) -0.18655(2)
Ni2F_2 Ni 0.46707(2) 0.27608(3) -0.18655(2)
O5E O 0.2378(2) 0.57517(16) 0.19618(15)
O6E O 0.27263(17) 0.61231(16) 0.08754(14)
O7F O 0.34884(16) 0.49090(15) 0.01523(16)
N1F N 0.1633(2) 0.4307(2) 0.20607(18)
O10F O 0.25650(16) 0.43941(15) 0.08234(13)
O11 O -0.1594(13) 0.2263(7) 0.2841(8)
loop_
_geom_bond_atom_site_label_1
_geom_bond_atom_site_label_2
_geom_bond_site_symmetry_1
_geom_bond_site_symmetry_2
Ni1 O4 1_555 1_555
O1 C7 1_555 1_555
C1 H1 1_555 1_555
H2 C1 1_555 1_555
Ni2 O2 1_555 1_555
O2 C7 1_555 1_555
C2 C1 1_555 1_555
O3 C13 1_555 1_555
C3 C2 1_555 1_555
H3 C3 1_555 1_555
O4 Ni2 1_555 1_555
C4 C3 1_555 1_555
H4 C4 1_555 1_555
O5 C18 1_555 1_555
C5 C2 1_555 1_555
H5 C5 1_555 1_555
O6 C18 1_555 1_555
C6 C5 1_555 1_555
H6 C6 1_555 1_555
C7 C8 1_555 1_555
O7 C17 1_555 1_555
C8 H7 1_555 1_555
H8 C8 1_555 1_555
O8 Ni1 1_555 1_555
N1 C4 1_555 1_555
C9 H9 1_555 1_555
O9 Ni1 1_555 1_555
C10 C9 1_555 1_555
C11 C10 1_555 1_555
H10 C11 1_555 1_555
C12 H11 1_555 1_555
H12 C12 1_555 1_555
N2 Ni1 1_555 1_555
C13 O4 1_555 1_555
C14 C9 1_555 1_555
C15 C14 1_555 1_555
H13 C15 1_555 1_555
C16 C11 1_555 1_555
C17 C16 1_555 1_555
C18 C14 1_555 1_555
C19 N2 1_555 1_555
H14 C19 1_555 1_555
C20 C19 1_555 1_555
H15 C20 1_555 1_555
N3 Ni2 1_555 1_555
C21 C20 1_555 1_555
C22 C21 1_555 1_555
H16 C22 1_555 1_555
C23 N2 1_555 1_555
H17 C23 1_555 1_555
C24 C21 1_555 1_555
H18 C24 1_555 1_555
H19 C24 1_555 1_555
C25 C1 1_555 1_555
H20 C25 1_555 1_555
H21 C25 1_555 1_555
O10 C17 1_555 1_555
Ni1E O6 1_555 1_555
Ni1F O7 1_555 1_555
Ni2E O5 1_555 1_555
Ni2F N1 1_555 1_555
Ni2F_2 O10 1_555 1_555
O5E Ni2 1_555 1_555
O6E Ni1 1_555 1_555
O7F Ni1 1_555 1_555
N1F Ni2 1_555 1_555
O10F Ni2 1_555 1_555
C6 N1 1_555 1_555
C8 N3 1_555 1_555
C10 N3 1_555 1_555
C12 C13 1_555 1_555
C12 N3 1_555 1_555
C15 C16 1_555 1_555
C22 C23 1_555 1_555
C24 C25 1_555 1_555

#END
