
#######################################################################
#
#                 Cambridge Crystallographic Data Centre
#                                CCDC 
#
#######################################################################
#
# If this CIF has been generated from an entry in the Cambridge 
# Structural Database, then it will include bibliographic, chemical, 
# crystal, experimental, refinement or atomic coordinate data resulting 
# from the CCDC's data processing and validation procedures.
#
#######################################################################

data_PASKAX
_symmetry_cell_setting           triclinic
_symmetry_space_group_name_H-M   'P -1'
_symmetry_Int_Tables_number      2
_space_group_name_Hall           '-P 1'
loop_
_symmetry_equiv_pos_site_id
_symmetry_equiv_pos_as_xyz
1 x,y,z
2 -x,-y,-z
_cell_length_a                   9.3610(19)
_cell_length_b                   12.7130(19)
_cell_length_c                   12.755(3)
_cell_angle_alpha                111.843(2)
_cell_angle_beta                 105.938(2)
_cell_angle_gamma                97.104(2)
_cell_volume                     1310.7
loop_
_atom_site_label
_atom_site_type_symbol
_atom_site_fract_x
_atom_site_fract_y
_atom_site_fract_z
C1 C 0.3492(9) 0.7148(6) 0.5956(6)
H1 H 0.3748 0.6474 0.5529
C2 C 0.4500(8) 0.8107(7) 0.6886(6)
H2 H 0.5560 0.8235 0.7198
C3 C 0.2175(8) 0.8322(6) 0.6538(6)
H3 H 0.1351 0.8651 0.6604
C4 C 0.4209(8) 0.9985(6) 0.8283(6)
C5 C 0.5574(8) 1.0694(6) 0.8489(6)
H4 H 0.6119 1.0436 0.7974
C6 C 0.6157(8) 1.1790(6) 0.9453(6)
H5 H 0.7091 1.2268 0.9595
C7 C 0.5309(9) 1.2159(6) 1.0202(6)
C8 C 0.3913(8) 1.1450(7) 0.9972(6)
H6 H 0.3348 1.1709 1.0471
C9 C 0.3350(8) 1.0364(6) 0.9010(6)
H7 H 0.2405 0.9891 0.8852
C10 C 0.7393(9) 1.3768(7) 1.1908(7)
H8 H 0.8181 1.3425 1.1762
C11 C 0.5106(10) 1.4044(7) 1.1732(8)
H9 H 0.4049 1.3952 1.1463
C12 C 0.6153(10) 1.4958(7) 1.2694(8)
H10 H 0.5933 1.5606 1.3208
C13 C -0.1069(8) 0.7908(6) 0.3928(7)
C14 C -0.1533(8) 0.8915(7) 0.3663(6)
H11 H -0.0640 0.9389 0.3661
H12 H -0.2294 0.8588 0.2859
C15 C -0.3671(9) 0.9271(7) 0.4314(7)
C16 C -0.4578(10) 0.8181(7) 0.3564(7)
H13 H -0.4179 0.7614 0.3114
C17 C -0.4214(7) 1.0145(7) 0.5063(7)
C18 C -0.3276(9) 1.1274(7) 0.5860(7)
H14 H -0.2252 1.1466 0.5929
C19 C -0.6125(9) 0.7909(7) 0.3467(7)
H15 H -0.6750 0.7164 0.2939
C20 C 0.1332(8) 0.4165(7) 0.3511(7)
C21 C 0.1904(9) 0.3076(6) 0.3253(6)
H16 H 0.3016 0.3288 0.3597
H17 H 0.1506 0.2622 0.3623
C22 C 0.0950(8) 0.1185(6) 0.1537(6)
C23 C 0.1177(8) 0.0578(7) 0.2227(6)
H18 H 0.1648 0.0973 0.3059
C24 C 0.0695(8) -0.0637(7) 0.1672(6)
H19 H 0.0842 -0.1055 0.2140
C25 C 0.0010(7) -0.1228(6) 0.0451(6)
H20 H -0.0290 -0.2042 0.0097
C26 C 0.0249(8) 0.0618(6) 0.0278(6)
Cd1 Cd -0.01485(6) 0.60331(5) 0.42226(5)
N1 N 0.2043(6) 0.7303(5) 0.5728(5)
N2 N 0.3626(6) 0.8857(5) 0.7276(5)
N3 N 0.5894(7) 1.3272(5) 1.1222(5)
N4 N 0.7617(7) 1.4783(5) 1.2800(5)
O1 O -0.1229(5) 0.7780(4) 0.4805(4)
O2 O -0.0510(5) 0.7256(4) 0.3224(4)
O3 O 0.1043(6) 0.4546(4) 0.4462(4)
O4 O 0.1127(7) 0.4652(5) 0.2830(5)
O5 O 0.1424(6) 0.2388(4) 0.1986(4)
O6 O -0.2137(6) 0.9654(4) 0.4470(5)
C1_2 C -0.6508(9) -0.2852(6) -0.4044(6)
H1_2 H -0.6252 -0.3526 -0.4471
C2_2 C -0.5500(8) -0.1893(7) -0.3114(6)
H2_2 H -0.4440 -0.1765 -0.2802
C3_2 C -0.7825(8) -0.1678(6) -0.3462(6)
H3_2 H -0.8649 -0.1349 -0.3396
C4_2 C -0.5791(8) -0.0015(6) -0.1717(6)
C5_2 C -0.4426(8) 0.0694(6) -0.1511(6)
H4_2 H -0.3881 0.0436 -0.2026
C6_2 C -0.3843(8) 0.1790(6) -0.0547(6)
H5_2 H -0.2909 0.2268 -0.0405
C7_2 C -0.4691(9) 0.2159(6) 0.0202(6)
C8_2 C -0.6087(8) 0.1450(7) -0.0028(6)
H6_2 H -0.6652 0.1709 0.0471
C9_2 C -0.6650(8) 0.0364(6) -0.0990(6)
H7_2 H -0.7595 -0.0109 -0.1148
C10_2 C -0.2607(9) 0.3768(7) 0.1908(7)
H8_2 H -0.1819 0.3425 0.1762
C11_2 C -0.4894(10) 0.4044(7) 0.1732(8)
H9_2 H -0.5951 0.3952 0.1463
C12_2 C -0.3847(10) 0.4958(7) 0.2694(8)
H10_2 H -0.4067 0.5606 0.3208
C13A C -0.8931(8) 1.2092(6) 0.6072(7)
C14A C -0.8467(8) 1.1085(7) 0.6337(6)
H11A H -0.9360 1.0611 0.6339
H12A H -0.7706 1.1412 0.7141
C15A C -0.6329(9) 1.0729(7) 0.5686(7)
C16A C -0.5422(10) 1.1819(7) 0.6436(7)
H13A H -0.5821 1.2386 0.6886
C17A C -0.5786(7) 0.9855(7) 0.4937(7)
C18A C -0.6724(9) 0.8726(7) 0.4140(7)
H14A H -0.7748 0.8534 0.4071
C19A C -0.3875(9) 1.2091(7) 0.6533(7)
H15A H -0.3250 1.2836 0.7061
C20A C -0.1332(8) -0.4165(7) -0.3511(7)
C21A C -0.1904(9) -0.3076(6) -0.3253(6)
H16A H -0.3016 -0.3288 -0.3597
H17A H -0.1506 -0.2622 -0.3623
C22A C -0.0950(8) -0.1185(6) -0.1537(6)
C23A C -0.1177(8) -0.0578(7) -0.2227(6)
H18A H -0.1648 -0.0973 -0.3059
C24A C -0.0695(8) 0.0637(7) -0.1672(6)
H19A H -0.0842 0.1055 -0.2140
C25A C -0.0010(7) 0.1228(6) -0.0451(6)
H20A H 0.0290 0.2042 -0.0097
C26A C -0.0249(8) -0.0618(6) -0.0278(6)
Cd1_2 Cd -1.01485(6) -0.39669(5) -0.57774(5)
Cd1_3 Cd 0.98515(6) 1.60331(5) 1.42226(5)
Cd1A Cd 0.01485(6) 0.39669(5) 0.57774(5)
Cd1A_2 Cd -0.98515(6) 1.39669(5) 0.57774(5)
Cd1A_3 Cd 0.01485(6) -0.60331(5) -0.42226(5)
Cd1_4 Cd -0.01485(6) -0.39669(5) -0.57774(5)
N1_2 N -0.7957(6) -0.2697(5) -0.4272(5)
N2_2 N -0.6374(6) -0.1143(5) -0.2724(5)
N3_2 N -0.4106(7) 0.3272(5) 0.1222(5)
N4_2 N -0.2383(7) 0.4783(5) 0.2800(5)
N4_3 N -1.2383(7) -0.5217(5) -0.7200(5)
O1A O -0.8771(5) 1.2220(4) 0.5195(4)
O1_2 O -1.1229(5) -0.2220(4) -0.5195(4)
O2A O -0.9490(5) 1.2744(4) 0.6776(4)
O2_2 O -1.0510(5) -0.2744(4) -0.6776(4)
O3A O -0.1043(6) -0.4546(4) -0.4462(4)
O3A_2 O -0.1043(6) 0.5454(4) 0.5538(4)
O3_2 O -0.8957(6) -0.5454(4) -0.5538(4)
O3A_3 O -1.1043(6) -0.4546(4) -0.4462(4)
O4A O -0.1127(7) -0.4652(5) -0.2830(5)
O4_2 O -0.8873(7) -0.5348(5) -0.7170(5)
O5A O -0.1424(6) -0.2388(4) -0.1986(4)
O6A O -0.7863(6) 1.0346(4) 0.5530(5)
O7 O 0.1888(16) 0.4829(14) 0.0950(12)
O8? O 0.995(4) 0.417(2) 0.0429(18)
O9? O 0.237(3) 0.3869(16) 0.9300(12)
O10? O 0.019(3) 0.6463(17) 0.1111(15)
loop_
_geom_bond_atom_site_label_1
_geom_bond_atom_site_label_2
_geom_bond_site_symmetry_1
_geom_bond_site_symmetry_2
C1 H1 1_555 1_555
C2 C1 1_555 1_555
H2 C2 1_555 1_555
C3 H3 1_555 1_555
C4 C5 1_555 1_555
C5 H4 1_555 1_555
C6 C5 1_555 1_555
H5 C6 1_555 1_555
C7 C6 1_555 1_555
C8 C7 1_555 1_555
H6 C8 1_555 1_555
C9 C4 1_555 1_555
H7 C9 1_555 1_555
C10 H8 1_555 1_555
C11 H9 1_555 1_555
C12 C11 1_555 1_555
H10 C12 1_555 1_555
C13 C14 1_555 1_555
C14 H11 1_555 1_555
H12 C14 1_555 1_555
C15 C16 1_555 1_555
C16 H13 1_555 1_555
C17 C15 1_555 1_555
C18 C17 1_555 1_555
H14 C18 1_555 1_555
C19 C16 1_555 1_555
H15 C19 1_555 1_555
C20 C21 1_555 1_555
C21 H16 1_555 1_555
H17 C21 1_555 1_555
C22 C23 1_555 1_555
C23 H18 1_555 1_555
C24 C23 1_555 1_555
H19 C24 1_555 1_555
C25 C24 1_555 1_555
H20 C25 1_555 1_555
C26 C22 1_555 1_555
Cd1 N1 1_555 1_555
N1 C1 1_555 1_555
N2 C2 1_555 1_555
N3 C7 1_555 1_555
N4 C10 1_555 1_555
O1 C13 1_555 1_555
O2 C13 1_555 1_555
O3 C20 1_555 1_555
O4 C20 1_555 1_555
O5 C21 1_555 1_555
O6 C14 1_555 1_555
C1_2 H1_2 1_555 1_555
C2_2 C1_2 1_555 1_555
H2_2 C2_2 1_555 1_555
C3_2 H3_2 1_555 1_555
C4_2 C5_2 1_555 1_555
C5_2 H4_2 1_555 1_555
C6_2 C5_2 1_555 1_555
H5_2 C6_2 1_555 1_555
C7_2 C6_2 1_555 1_555
C8_2 C7_2 1_555 1_555
H6_2 C8_2 1_555 1_555
C9_2 C4_2 1_555 1_555
H7_2 C9_2 1_555 1_555
C10_2 H8_2 1_555 1_555
C11_2 H9_2 1_555 1_555
C12_2 C11_2 1_555 1_555
H10_2 C12_2 1_555 1_555
C13A C14A 1_555 1_555
C14A H11A 1_555 1_555
H12A C14A 1_555 1_555
C15A C16A 1_555 1_555
C16A H13A 1_555 1_555
C17A C17 1_555 1_555
C18A C19 1_555 1_555
H14A C18A 1_555 1_555
C19A C18 1_555 1_555
H15A C19A 1_555 1_555
C20A C21A 1_555 1_555
C21A H16A 1_555 1_555
H17A C21A 1_555 1_555
C22A C23A 1_555 1_555
C23A H18A 1_555 1_555
C24A C23A 1_555 1_555
H19A C24A 1_555 1_555
C25A C26 1_555 1_555
H20A C25A 1_555 1_555
C26A C25 1_555 1_555
Cd1_2 N1_2 1_555 1_555
Cd1_3 N4 1_555 1_555
Cd1A O3 1_555 1_555
Cd1A_2 O1A 1_555 1_555
Cd1A_3 O3A 1_555 1_555
Cd1_4 O3A 1_555 1_555
N1_2 C1_2 1_555 1_555
N2_2 C2_2 1_555 1_555
N3_2 C7_2 1_555 1_555
N4_2 Cd1 1_555 1_555
N4_3 Cd1_2 1_555 1_555
O1A C13A 1_555 1_555
O1_2 Cd1_2 1_555 1_555
O2A C13A 1_555 1_555
O2_2 Cd1_2 1_555 1_555
O3A C20A 1_555 1_555
O3A_2 Cd1 1_555 1_555
O3_2 Cd1_2 1_555 1_555
O3A_3 Cd1_2 1_555 1_555
O4A C20A 1_555 1_555
O4_2 Cd1_2 1_555 1_555
O5A C21A 1_555 1_555
O6A C14A 1_555 1_555
C3 N1 1_555 1_555
C3 N2 1_555 1_555
C4 N2 1_555 1_555
C8 C9 1_555 1_555
C10 N3 1_555 1_555
C11 N3 1_555 1_555
C12 N4 1_555 1_555
C15 O6 1_555 1_555
C22 O5 1_555 1_555
C26 C26A 1_555 1_555
Cd1 O1 1_555 1_555
Cd1 O2 1_555 1_555
Cd1 O3 1_555 1_555
Cd1 O4 1_555 1_555
C3_2 N1_2 1_555 1_555
C3_2 N2_2 1_555 1_555
C4_2 N2_2 1_555 1_555
C8_2 C9_2 1_555 1_555
C10_2 N3_2 1_555 1_555
C10_2 N4_2 1_555 1_555
C11_2 N3_2 1_555 1_555
C12_2 N4_2 1_555 1_555
C15A C17A 1_555 1_555
C15A O6A 1_555 1_555
C16A C19A 1_555 1_555
C17A C18A 1_555 1_555
C22A C26A 1_555 1_555
C22A O5A 1_555 1_555
C24A C25A 1_555 1_555
Cd1A O3A_2 1_555 1_555
Cd1A_2 O2A 1_555 1_555
Cd1A_3 O4A 1_555 1_555

#END
