
#######################################################################
#
#                 Cambridge Crystallographic Data Centre
#                                CCDC 
#
#######################################################################
#
# If this CIF has been generated from an entry in the Cambridge 
# Structural Database, then it will include bibliographic, chemical, 
# crystal, experimental, refinement or atomic coordinate data resulting 
# from the CCDC's data processing and validation procedures.
#
#######################################################################

data_PATLAZ
_symmetry_cell_setting           orthorhombic
_symmetry_space_group_name_H-M   'P b c a'
_symmetry_Int_Tables_number      61
_space_group_name_Hall           '-P 2ac 2ab'
loop_
_symmetry_equiv_pos_site_id
_symmetry_equiv_pos_as_xyz
1 x,y,z
2 1/2-x,-y,1/2+z
3 1/2+x,1/2-y,-z
4 -x,1/2+y,1/2-z
5 -x,-y,-z
6 1/2+x,y,1/2-z
7 1/2-x,1/2+y,z
8 x,1/2-y,1/2+z
_cell_length_a                   8.0799(14)
_cell_length_b                   13.294(2)
_cell_length_c                   25.911(4)
_cell_angle_alpha                90
_cell_angle_beta                 90
_cell_angle_gamma                90
_cell_volume                     2783.21
loop_
_atom_site_label
_atom_site_type_symbol
_atom_site_fract_x
_atom_site_fract_y
_atom_site_fract_z
Ca1 Ca 0.22224(4) -0.08749(3) 0.166519(12)
Ca2 Ca 0.58355(4) 0.02593(3) 0.081321(12)
O1 O 0.50912(15) -0.04663(10) 0.17240(4)
O2 O 0.61696(17) -0.07454(9) 0.25001(5)
O3 O 0.68506(18) 0.08496(9) 0.32698(5)
O4 O 0.73775(19) 0.24664(10) 0.31672(5)
O5 O 0.31959(16) -0.06926(11) 0.08269(4)
O6 O 0.44165(16) -0.09174(12) 0.00797(5)
O7 O 0.00009(16) -0.14046(12) 0.11775(5)
O8 O -0.23787(16) -0.10771(11) 0.07819(5)
O9 O 0.38078(16) 0.15714(10) 0.08811(5)
H1 H 0.4158 0.2169 0.0932
H2 H 0.3156 0.1418 0.1134
N1 N 0.70667(19) 0.11565(12) 0.15718(6)
N2 N 0.78827(19) 0.22828(12) 0.21363(6)
H3 H 0.8219 0.2829 0.2262
N3 N 0.1593(2) -0.11926(13) -0.04396(6)
N4 N -0.09682(19) -0.13892(13) -0.01691(6)
H4 H -0.2039 -0.1494 -0.0182
C1 C 0.5959(2) -0.02087(13) 0.21070(6)
C2 C 0.6785(2) 0.07905(13) 0.20625(6)
C3 C 0.7279(2) 0.14932(13) 0.24230(7)
C4 C 0.7155(2) 0.16029(13) 0.29919(7)
C5 C 0.7744(2) 0.20500(15) 0.16378(7)
H5 H 0.8083 0.2466 0.1369
C6 C 0.3153(2) -0.09283(13) 0.03550(7)
C7 C 0.1560(2) -0.11598(14) 0.00946(6)
C8 C -0.0039(2) -0.12745(14) 0.02694(7)
C9 C -0.0860(2) -0.12396(14) 0.07854(7)
C10 C 0.0046(2) -0.13387(17) -0.05774(7)
H6 H -0.0303 -0.1400 -0.0918
Ca1E Ca 0.72224(4) -0.08749(3) 0.333481(12)
Ca1C Ca 0.77776(4) 0.41251(3) 0.333481(12)
Ca2D Ca 0.41645(4) -0.02593(3) -0.081321(12)
Ca2_2 Ca -0.41645(4) 0.02593(3) 0.081321(12)
O2E O 0.11696(17) -0.07454(9) 0.24999(5)
O3E O 0.18506(18) 0.08496(9) 0.17302(5)
O4C O 0.26225(19) -0.25336(10) 0.18328(5)
O6D O 0.55835(16) 0.09174(12) -0.00797(5)
O8_2 O 0.76213(16) -0.10771(11) 0.07819(5)
N3D N 0.8407(2) 0.11926(13) 0.04396(6)
loop_
_geom_bond_atom_site_label_1
_geom_bond_atom_site_label_2
_geom_bond_site_symmetry_1
_geom_bond_site_symmetry_2
Ca1 O1 1_555 1_555
Ca2 O1 1_555 1_555
O1 C1 1_555 1_555
O2 C1 1_555 1_555
O3 C4 1_555 1_555
O4 C4 1_555 1_555
O5 Ca1 1_555 1_555
O6 Ca2 1_555 1_555
O7 Ca1 1_555 1_555
O8 C9 1_555 1_555
O9 Ca2 1_555 1_555
H1 O9 1_555 1_555
H2 O9 1_555 1_555
N1 Ca2 1_555 1_555
N2 H3 1_555 1_555
N3 C7 1_555 1_555
N4 H4 1_555 1_555
C1 C2 1_555 1_555
C2 N1 1_555 1_555
C3 N2 1_555 1_555
C4 C3 1_555 1_555
C5 N1 1_555 1_555
H5 C5 1_555 1_555
C6 O5 1_555 1_555
C7 C6 1_555 1_555
C8 N4 1_555 1_555
C9 O7 1_555 1_555
C10 N3 1_555 1_555
H6 C10 1_555 1_555
Ca1E O2 1_555 1_555
Ca1C O4 1_555 1_555
Ca2D O6 1_555 1_555
Ca2_2 O8 1_555 1_555
O2E Ca1 1_555 1_555
O3E Ca1 1_555 1_555
O4C Ca1 1_555 1_555
O6D Ca2 1_555 1_555
O8_2 Ca2 1_555 1_555
N3D Ca2 1_555 1_555
Ca2 O5 1_555 1_555
O3 Ca1E 1_555 1_555
O6 C6 1_555 1_555
N2 C5 1_555 1_555
N3 Ca2D 1_555 1_555
N4 C10 1_555 1_555
C2 C3 1_555 1_555
C7 C8 1_555 1_555
C8 C9 1_555 1_555
Ca2D O6D 1_555 1_555

#END
