
#######################################################################
#
#                 Cambridge Crystallographic Data Centre
#                                CCDC 
#
#######################################################################
#
# If this CIF has been generated from an entry in the Cambridge 
# Structural Database, then it will include bibliographic, chemical, 
# crystal, experimental, refinement or atomic coordinate data resulting 
# from the CCDC's data processing and validation procedures.
#
#######################################################################

data_PATLED
_symmetry_cell_setting           monoclinic
_symmetry_space_group_name_H-M   'P 21/c'
_symmetry_Int_Tables_number      14
_space_group_name_Hall           '-P 2ybc'
loop_
_symmetry_equiv_pos_site_id
_symmetry_equiv_pos_as_xyz
1 x,y,z
2 -x,1/2+y,1/2-z
3 -x,-y,-z
4 x,1/2-y,1/2+z
_cell_length_a                   18.0131(17)
_cell_length_b                   8.6714(8)
_cell_length_c                   13.4980(13)
_cell_angle_alpha                90
_cell_angle_beta                 110.124(1)
_cell_angle_gamma                90
_cell_volume                     1979.66
loop_
_atom_site_label
_atom_site_type_symbol
_atom_site_fract_x
_atom_site_fract_y
_atom_site_fract_z
Ca1 Ca 0.76881(4) 0.79353(7) 0.76103(5)
Ca2 Ca 0.95259(4) 0.79796(7) 0.47432(5)
O1 O 0.67348(14) 0.6153(3) 0.67027(16)
O2 O 0.54448(15) 0.6338(4) 0.5774(2)
O3 O 0.78491(13) 0.7797(3) 0.59716(16)
O4 O 0.80821(13) 0.7691(3) 0.44650(16)
O5 O 0.85451(13) 0.5745(2) 0.79736(16)
O6 O 0.92542(13) 0.4309(2) 0.93263(16)
O7 O 0.97151(13) 0.1151(3) 0.91223(17)
O8 O 0.89415(13) -0.0891(2) 0.85696(17)
O9 O 1.02251(14) 0.8044(3) 0.34489(17)
H1 H 1.0455 0.8824 0.3435
H2 H 1.0555 0.7475 0.3579
O10 O 0.93723(13) 0.8750(3) 0.64402(17)
H3 H 0.8905 0.8702 0.6382
H4 H 0.9658 0.8196 0.6930
N1 N 0.57631(17) 0.5425(4) 0.3983(2)
H7 H 0.5321 0.5033 0.3968
N2 N 0.67256(17) 0.6169(4) 0.3446(2)
N3 N 0.76344(16) 0.3309(3) 0.6992(2)
H8 H 0.7426 0.4185 0.6752
N4 N 0.78017(16) 0.0800(3) 0.7148(2)
C1 C 0.61531(19) 0.6202(4) 0.5856(3)
C2 C 0.63132(19) 0.6100(4) 0.4846(2)
C3 C 0.69124(19) 0.6562(4) 0.4497(2)
C4 C 0.76598(18) 0.7410(4) 0.5021(2)
C5 C 0.6029(2) 0.5476(5) 0.3162(3)
C6 C 0.5595(3) 0.4828(8) 0.2102(3)
H9 H 0.5638 0.5579 0.1592
H10 H 0.5888 0.3925 0.2023
C7 C 0.4862(5) 0.4425(13) 0.1807(5)
H11 H 0.4787 0.3720 0.2312
H12 H 0.4714 0.3933 0.1129
H13 H 0.4539 0.5322 0.1759
C8 C 0.87343(18) 0.4452(4) 0.8429(2)
C9 C 0.83048(19) 0.3091(4) 0.7857(2)
C10 C 0.84048(19) 0.1516(4) 0.7944(2)
C11 C 0.90654(19) 0.0547(4) 0.8610(2)
C12 C 0.7358(2) 0.1912(4) 0.6580(3)
C13 C 0.6720(2) 0.1720(4) 0.5526(3)
H14 H 0.6308 0.2480 0.5449
H15 H 0.6486 0.0704 0.5481
C14 C 0.7058(3) 0.1919(6) 0.4635(3)
H16 H 0.7323 0.2895 0.4711
H17 H 0.6636 0.1883 0.3967
H18 H 0.7427 0.1104 0.4670
Ca1C Ca 0.76881(4) 0.70647(7) 0.26103(5)
Ca1_2 Ca 0.76881(4) -0.20647(7) 0.76103(5)
Ca2C Ca 0.95259(4) 0.70204(7) 0.97432(5)
Ca2A Ca 1.04741(4) 0.29796(7) 1.02568(5)
Ca2C_2 Ca 0.95259(4) -0.29796(7) 0.97432(5)
O4C O 0.80821(13) 0.7309(3) 0.94650(16)
O5C O 0.85451(13) 0.9255(2) 0.29736(16)
O6C O 0.92542(13) 1.0691(2) 0.43263(16)
O6A O 1.07458(13) 0.9309(2) 0.56737(16)
O7A O 1.02849(13) 0.6151(3) 0.58777(17)
O8_2 O 0.89415(13) 0.9109(2) 0.85696(17)
O8C O 0.89415(13) 0.5891(2) 0.35696(17)
N2C N 0.67256(17) 0.8831(4) 0.8446(2)
N4_2 N 0.78017(16) 1.0800(3) 0.7148(2)
O11 O 0.10728(19) 0.9630(3) 0.8954(3)
H5 H 0.127(2) 1.010(4) 0.855(3)
H6 H 0.0666(17) 1.005(4) 0.901(4)
loop_
_geom_bond_atom_site_label_1
_geom_bond_atom_site_label_2
_geom_bond_site_symmetry_1
_geom_bond_site_symmetry_2
Ca1 O1 1_555 1_555
Ca2 O4 1_555 1_555
O1 C1 1_555 1_555
O2 C1 1_555 1_555
O3 Ca1 1_555 1_555
O4 C4 1_555 1_555
O5 Ca1 1_555 1_555
O6 C8 1_555 1_555
O7 C11 1_555 1_555
O8 C11 1_555 1_555
O9 Ca2 1_555 1_555
H1 O9 1_555 1_555
H2 O9 1_555 1_555
O10 Ca2 1_555 1_555
H3 O10 1_555 1_555
H4 O10 1_555 1_555
O11 H5 1_555 1_555
H6 O11 1_555 1_555
N1 H7 1_555 1_555
N2 C3 1_555 1_555
N3 H8 1_555 1_555
N4 C10 1_555 1_555
C1 C2 1_555 1_555
C2 N1 1_555 1_555
C3 C2 1_555 1_555
C4 O3 1_555 1_555
C5 N1 1_555 1_555
C6 C5 1_555 1_555
H9 C6 1_555 1_555
H10 C6 1_555 1_555
C7 C6 1_555 1_555
H11 C7 1_555 1_555
H12 C7 1_555 1_555
H13 C7 1_555 1_555
C8 O5 1_555 1_555
C9 N3 1_555 1_555
C10 C9 1_555 1_555
C11 C10 1_555 1_555
C12 N3 1_555 1_555
C13 C12 1_555 1_555
H14 C13 1_555 1_555
H15 C13 1_555 1_555
C14 C13 1_555 1_555
H16 C14 1_555 1_555
H17 C14 1_555 1_555
H18 C14 1_555 1_555
Ca1C O4 1_555 1_555
Ca1_2 O8 1_555 1_555
Ca2C O5 1_555 1_555
Ca2A O6 1_555 1_555
Ca2C_2 O8 1_555 1_555
O4C Ca1 1_555 1_555
O5C Ca2 1_555 1_555
O6C Ca2 1_555 1_555
O6A Ca2 1_555 1_555
O7A Ca2 1_555 1_555
O8_2 Ca1 1_555 1_555
O8C Ca2 1_555 1_555
N2C Ca1 1_555 1_555
N4_2 Ca1 1_555 1_555
O6 Ca2C 1_555 1_555
O7 Ca2A 1_555 1_555
N2 C5 1_555 1_555
N2 Ca1C 1_555 1_555
N4 C12 1_555 1_555
N4 Ca1_2 1_555 1_555
C3 C4 1_555 1_555
C8 C9 1_555 1_555
Ca1C O5C 1_555 1_555
Ca1C O8C 1_555 1_555
Ca2C O4C 1_555 1_555
Ca2C O8_2 1_555 1_555

#END
