
#######################################################################
#
#                 Cambridge Crystallographic Data Centre
#                                CCDC 
#
#######################################################################
#
# If this CIF has been generated from an entry in the Cambridge 
# Structural Database, then it will include bibliographic, chemical, 
# crystal, experimental, refinement or atomic coordinate data resulting 
# from the CCDC's data processing and validation procedures.
#
#######################################################################

data_PEGBEK01
_symmetry_cell_setting           monoclinic
_symmetry_space_group_name_H-M   'P 21/n'
_symmetry_Int_Tables_number      14
_space_group_name_Hall           '-P 2yn'
loop_
_symmetry_equiv_pos_site_id
_symmetry_equiv_pos_as_xyz
1 x,y,z
2 1/2-x,1/2+y,1/2-z
3 -x,-y,-z
4 1/2+x,1/2-y,1/2+z
_cell_length_a                   10.680(3)
_cell_length_b                   12.356(3)
_cell_length_c                   17.104(5)
_cell_angle_alpha                90
_cell_angle_beta                 95.470(4)
_cell_angle_gamma                90
_cell_volume                     2246.8
loop_
_atom_site_label
_atom_site_type_symbol
_atom_site_fract_x
_atom_site_fract_y
_atom_site_fract_z
Zn1 Zn 0.72711(3) 0.73610(3) 0.601028(18)
Zn2 Zn 0.20707(3) 0.74485(3) 0.456995(18)
N1 N 0.8834(2) 0.7988(2) 0.56459(14)
N2 N 1.0745(2) 0.8724(2) 0.56257(16)
N3 N 1.0582(2) 0.7917(2) 0.50589(15)
N4 N 0.7447(2) 0.59006(19) 0.55066(13)
N5 N 0.8509(2) 0.47024(19) 0.48418(13)
N6 N 0.7756(2) 0.41571(19) 0.53323(14)
N7 N 0.5655(2) 0.79865(19) 0.55543(13)
N8 N 0.5684(2) 0.85863(19) 0.48684(13)
N9 N 0.3709(2) 0.80670(19) 0.50020(13)
N10 N 0.2312(2) 0.78435(19) 0.34519(13)
N11 N 0.3318(2) 0.8560(2) 0.24866(14)
N12 N 0.2408(2) 0.7828(2) 0.21742(14)
C1 C 0.0858(3) 0.6557(3) 0.26811(17)
H1 H 0.0674 0.6374 0.2125
H2 H 0.0091 0.6819 0.2890
H3 H 0.1164 0.5912 0.2973
C2 C 0.1841(3) 0.7420(2) 0.27660(16)
C3 C 0.3232(3) 0.8530(2) 0.32471(16)
C4 C 0.4055(3) 0.9199(2) 0.38222(17)
H4 H 0.4795 0.9448 0.3565
H5 H 0.3580 0.9848 0.3961
C5 C 0.4505(3) 0.8608(2) 0.45628(16)
C6 C 0.4468(3) 0.7684(2) 0.56104(17)
C7 C 0.4011(3) 0.7027(3) 0.62528(17)
H6 H 0.4723 0.6833 0.6631
H7 H 0.3610 0.6366 0.6033
H8 H 0.3399 0.7448 0.6518
C8 C 0.9447(4) 0.9478(3) 0.6612(2)
H9 H 1.0174 0.9955 0.6728
H10 H 0.9310 0.9054 0.7080
H11 H 0.8698 0.9915 0.6457
C9 C 0.9687(3) 0.8736(3) 0.59599(19)
C10 C 0.9447(3) 0.7505(2) 0.50881(17)
C11 C 0.8897(3) 0.6631(2) 0.45514(16)
H12 H 0.8261 0.6957 0.4162
H13 H 0.9572 0.6324 0.4260
C12 C 0.8295(3) 0.5734(2) 0.49657(15)
C13 C 0.7144(3) 0.4890(2) 0.57083(17)
C14 C 0.6190(3) 0.4635(3) 0.6269(2)
H14 H 0.6173 0.3852 0.6360
H15 H 0.5357 0.4877 0.6046
H16 H 0.6414 0.5009 0.6768
Zn1C Zn 0.22711(3) 0.76390(3) 0.101028(18)
Zn2_2 Zn 1.20707(3) 0.74485(3) 0.456995(18)
Zn2B Zn 0.79293(3) 0.25515(3) 0.543005(18)
N3_2 N 0.0582(2) 0.7917(2) 0.50589(15)
N6B N 0.2244(2) 0.58429(19) 0.46677(14)
N12C N 0.7408(2) 0.7172(2) 0.71742(14)
loop_
_geom_bond_atom_site_label_1
_geom_bond_atom_site_label_2
_geom_bond_site_symmetry_1
_geom_bond_site_symmetry_2
Zn1 N1 1_555 1_555
Zn2 N9 1_555 1_555
N1 C9 1_555 1_555
N2 N3 1_555 1_555
N3 C10 1_555 1_555
N4 Zn1 1_555 1_555
N5 N6 1_555 1_555
N6 C13 1_555 1_555
N7 Zn1 1_555 1_555
N8 N7 1_555 1_555
N9 C5 1_555 1_555
N10 Zn2 1_555 1_555
N11 N12 1_555 1_555
N12 C2 1_555 1_555
C1 H1 1_555 1_555
H2 C1 1_555 1_555
H3 C1 1_555 1_555
C2 N10 1_555 1_555
C3 N10 1_555 1_555
C4 C3 1_555 1_555
H4 C4 1_555 1_555
H5 C4 1_555 1_555
C5 N8 1_555 1_555
C6 N7 1_555 1_555
C7 C6 1_555 1_555
H6 C7 1_555 1_555
H7 C7 1_555 1_555
H8 C7 1_555 1_555
C8 H9 1_555 1_555
H10 C8 1_555 1_555
H11 C8 1_555 1_555
C9 N2 1_555 1_555
C10 N1 1_555 1_555
C11 C10 1_555 1_555
H12 C11 1_555 1_555
H13 C11 1_555 1_555
C12 N4 1_555 1_555
C13 N4 1_555 1_555
C14 C13 1_555 1_555
H14 C14 1_555 1_555
H15 C14 1_555 1_555
H16 C14 1_555 1_555
Zn1C N12 1_555 1_555
Zn2_2 N3 1_555 1_555
Zn2B N6 1_555 1_555
N3_2 Zn2 1_555 1_555
N6B Zn2 1_555 1_555
N12C Zn1 1_555 1_555
N5 C12 1_555 1_555
N9 C6 1_555 1_555
N11 C3 1_555 1_555
C1 C2 1_555 1_555
C4 C5 1_555 1_555
C8 C9 1_555 1_555
C11 C12 1_555 1_555

#END
