
#######################################################################
#
#                 Cambridge Crystallographic Data Centre
#                                CCDC 
#
#######################################################################
#
# If this CIF has been generated from an entry in the Cambridge 
# Structural Database, then it will include bibliographic, chemical, 
# crystal, experimental, refinement or atomic coordinate data resulting 
# from the CCDC's data processing and validation procedures.
#
#######################################################################

data_PEHBIO
_symmetry_cell_setting           cubic
_symmetry_space_group_name_H-M   'I a -3 d'
_symmetry_Int_Tables_number      230
_space_group_name_Hall           '-I 4bd 2c 3'
loop_
_symmetry_equiv_pos_site_id
_symmetry_equiv_pos_as_xyz
1 x,y,z
2 z,x,y
3 y,z,x
4 3/4+y,1/4+x,1/4-z
5 1/4+y,1/4-x,3/4+z
6 1/4-y,3/4+x,1/4+z
7 3/4+x,1/4+z,1/4-y
8 1/4-x,3/4+z,1/4+y
9 1/4+x,1/4-z,3/4+y
10 3/4+z,1/4+y,1/4-x
11 1/4+z,1/4-y,3/4+x
12 1/4-z,3/4+y,1/4+x
13 1/2+x,1/2+y,1/2+z
14 1/2+z,1/2+x,1/2+y
15 1/2+y,1/2+z,1/2+x
16 1/4+y,3/4+x,3/4-z
17 1/4-y,1/4-x,1/4-z
18 3/4+y,3/4-x,1/4+z
19 3/4-y,1/4+x,3/4+z
20 1/4+x,3/4+z,3/4-y
21 3/4-x,1/4+z,3/4+y
22 1/4-x,1/4-z,1/4-y
23 3/4+x,3/4-z,1/4+y
24 1/4+z,3/4+y,3/4-x
25 3/4+z,3/4-y,1/4+x
26 3/4-z,1/4+y,3/4+x
27 1/4-z,1/4-y,1/4-x
28 1/2-x,-y,1/2+z
29 -x,1/2+y,1/2-z
30 1/2+x,1/2-y,-z
31 1/2+z,1/2-x,-y
32 1/2-z,-x,1/2+y
33 -z,1/2+x,1/2-y
34 -y,1/2+z,1/2-x
35 1/2+y,1/2-z,-x
36 1/2-y,-z,1/2+x
37 3/4-y,3/4-x,3/4-z
38 3/4-x,3/4-z,3/4-y
39 3/4-z,3/4-y,3/4-x
40 -x,1/2-y,z
41 1/2-x,y,-z
42 x,-y,1/2-z
43 z,-x,1/2-y
44 -z,1/2-x,y
45 1/2-z,x,-y
46 1/2-y,z,-x
47 y,-z,1/2-x
48 -y,1/2-z,x
49 -x,-y,-z
50 -z,-x,-y
51 -y,-z,-x
52 1/4-y,3/4-x,3/4+z
53 3/4-y,3/4+x,1/4-z
54 3/4+y,1/4-x,3/4-z
55 1/4-x,3/4-z,3/4+y
56 3/4+x,1/4-z,3/4-y
57 3/4-x,3/4+z,1/4-y
58 1/4-z,3/4-y,3/4+x
59 3/4-z,3/4+y,1/4-x
60 3/4+z,1/4-y,3/4-x
61 1/2-x,1/2-y,1/2-z
62 1/2-z,1/2-x,1/2-y
63 1/2-y,1/2-z,1/2-x
64 3/4-y,1/4-x,1/4+z
65 3/4+y,3/4+x,3/4+z
66 1/4-y,1/4+x,3/4-z
67 1/4+y,3/4-x,1/4-z
68 3/4-x,1/4-z,1/4+y
69 1/4+x,3/4-z,1/4-y
70 3/4+x,3/4+z,3/4+y
71 1/4-x,1/4+z,3/4-y
72 3/4-z,1/4-y,1/4+x
73 1/4-z,1/4+y,3/4-x
74 1/4+z,3/4-y,1/4-x
75 3/4+z,3/4+y,3/4+x
76 1/2+x,y,1/2-z
77 x,1/2-y,1/2+z
78 1/2-x,1/2+y,z
79 1/2-z,1/2+x,y
80 1/2+z,x,1/2-y
81 z,1/2-x,1/2+y
82 y,1/2-z,1/2+x
83 1/2-y,1/2+z,x
84 1/2+y,z,1/2-x
85 1/4+y,1/4+x,1/4+z
86 1/4+x,1/4+z,1/4+y
87 1/4+z,1/4+y,1/4+x
88 x,1/2+y,-z
89 1/2+x,-y,z
90 -x,y,1/2+z
91 -z,x,1/2+y
92 z,1/2+x,-y
93 1/2+z,-x,y
94 1/2+y,-z,x
95 -y,z,1/2+x
96 y,1/2+z,-x
_cell_length_a                   34.8205(6)
_cell_length_b                   34.8205(6)
_cell_length_c                   34.8205(6)
_cell_angle_alpha                90
_cell_angle_beta                 90
_cell_angle_gamma                90
_cell_volume                     42218.7
loop_
_atom_site_label
_atom_site_type_symbol
_atom_site_fract_x
_atom_site_fract_y
_atom_site_fract_z
Rh1 Rh 0.107466(10) 0.587425(10) 0.620832(11)
Fe1 Fe 0.0000 0.5000 0.5000
O1 O 0.14417(11) 0.60351(12) 0.57836(10)
O2 O 0.14399(12) 0.54440(11) 0.63552(14)
O3 O 0.17615(12) 0.58384(12) 0.67619(11)
O4 O 0.17703(10) 0.64284(11) 0.61829(11)
N1 N 0.03617(9) 0.51731(10) 0.54140(9)
N2 N 0.05740(9) 0.49085(10) 0.56095(10)
N3 N 0.07453(12) 0.54669(12) 0.58274(12)
C1 C 0.04740(12) 0.55092(13) 0.55605(12)
H1 H 0.0372 0.5750 0.5483
C2 C 0.07961(14) 0.50918(14) 0.58520(14)
H2 H 0.0971 0.4971 0.6023
C3 C 0.1689(2) 0.5511(2) 0.66050(19)
C4 C 0.1951(3) 0.5185(3) 0.6735(2)
H3 H 0.2130 0.5120 0.6527
H4 H 0.1796 0.4959 0.6798
H5 H 0.2097 0.5266 0.6962
C5 C 0.17032(18) 0.62690(19) 0.5859(2)
C6 C 0.1971(3) 0.6385(3) 0.5539(3)
H6 H 0.2085 0.6154 0.5424
H7 H 0.2176 0.6548 0.5642
H8 H 0.1828 0.6526 0.5343
B1 B 0.05160(16) 0.44840(16) 0.55160(16)
H9 H 0.0682 0.4318 0.5682
Rh1IA Rh -0.087425(10) 0.379168(11) 0.607466(10)
Rh1DA Rh 0.120832(11) 0.392534(10) 0.412575(10)
Rh1ZB Rh -0.120832(11) 0.607466(10) 0.587425(10)
Rh1VA Rh -0.107466(10) 0.412575(10) 0.379168(11)
Rh1EC Rh 0.087425(10) 0.620832(11) 0.392534(10)
Rh1U Rh 0.142534(10) 0.629168(11) 0.662575(10)
Rh1W Rh -0.129168(11) 0.337425(10) 0.642534(10)
Rh1R Rh 0.162575(10) 0.357466(10) 0.370832(11)
O1U O 0.10583(11) 0.67164(10) 0.64649(12)
O1IA O -0.10351(12) 0.42164(10) 0.64417(11)
O1W O -0.17164(10) 0.35351(12) 0.60583(11)
O1DA O 0.07836(10) 0.35583(11) 0.39649(12)
O1R O 0.14649(12) 0.39417(11) 0.32836(10)
O2U O 0.10601(12) 0.61448(14) 0.70560(11)
O2IA O -0.04440(11) 0.36448(14) 0.64399(12)
O2W O -0.11448(14) 0.29440(11) 0.60601(12)
O2DA O 0.13552(14) 0.35601(12) 0.45560(11)
O2R O 0.20560(11) 0.39399(12) 0.38552(14)
O3U O 0.07385(12) 0.57381(11) 0.66616(12)
O3IA O -0.08384(12) 0.32381(11) 0.67615(12)
O3W O -0.07381(11) 0.33384(12) 0.57385(12)
O3DA O 0.17619(11) 0.32385(12) 0.41616(12)
O3R O 0.16616(12) 0.42615(12) 0.42619(11)
O4U O 0.07297(10) 0.63171(11) 0.60716(11)
O4IA O -0.14284(11) 0.38171(11) 0.67703(10)
O4W O -0.13171(11) 0.39284(11) 0.57297(10)
O4DA O 0.11829(11) 0.32297(10) 0.35716(11)
O4R O 0.10716(11) 0.42703(10) 0.36829(11)
N1IA N -0.01731(10) 0.45860(9) 0.53617(9)
N1DA N 0.04140(9) 0.46383(9) 0.48269(10)
N1ZB N -0.04140(9) 0.53617(9) 0.51731(10)
N1VA N -0.03617(9) 0.48269(10) 0.45860(9)
N1EC N 0.01731(10) 0.54140(9) 0.46383(9)
N2IA N 0.00915(10) 0.43905(10) 0.55740(9)
N2DA N 0.06095(10) 0.44260(9) 0.50915(10)
N2ZB N -0.06095(10) 0.55740(9) 0.49085(10)
N2VA N -0.05740(9) 0.50915(10) 0.43905(10)
N2EC N -0.00915(10) 0.56095(10) 0.44260(9)
N3IA N -0.04669(12) 0.41726(12) 0.57453(12)
N3DA N 0.08274(12) 0.42547(12) 0.45331(12)
N3ZB N -0.08274(12) 0.57453(12) 0.54669(12)
N3VA N -0.07453(12) 0.45331(12) 0.41726(12)
N3EC N 0.04669(12) 0.58274(12) 0.42547(12)
N3U N 0.17547(12) 0.66726(12) 0.70331(12)
N3W N -0.16726(12) 0.29669(12) 0.67547(12)
N3R N 0.20331(12) 0.32453(12) 0.33274(12)
C1IA C -0.05092(13) 0.44395(12) 0.54740(12)
C1DA C 0.05605(12) 0.45260(12) 0.44908(13)
C1ZB C -0.05605(12) 0.54740(12) 0.55092(13)
C1VA C -0.04740(12) 0.44908(13) 0.44395(12)
C1EC C 0.05092(13) 0.55605(12) 0.45260(12)
H1IA H -0.0750 0.4517 0.5372
H1DA H 0.0483 0.4628 0.4250
H1ZB H -0.0483 0.5372 0.5750
H1VA H -0.0372 0.4250 0.4517
H1EC H 0.0750 0.5483 0.4628
C2IA C -0.00918(14) 0.41480(14) 0.57961(14)
C2DA C 0.08520(14) 0.42039(14) 0.49082(14)
C2ZB C -0.08520(14) 0.57961(14) 0.50918(14)
C2VA C -0.07961(14) 0.49082(14) 0.41480(14)
C2EC C 0.00918(14) 0.58520(14) 0.42039(14)
H2IA H 0.0029 0.3977 0.5971
H2DA H 0.1023 0.4029 0.5029
H2ZB H -0.1023 0.5971 0.4971
H2VA H -0.0971 0.5029 0.3977
H2EC H -0.0029 0.6023 0.4029
C3U C 0.0811(2) 0.58950(19) 0.6989(2)
C3IA C -0.0511(2) 0.33950(19) 0.6689(2)
C3W C -0.08950(19) 0.3011(2) 0.5811(2)
C3DA C 0.16050(19) 0.3311(2) 0.4489(2)
C3R C 0.1989(2) 0.4189(2) 0.41050(19)
C4U C 0.0549(3) 0.5765(2) 0.7315(3)
C4IA C -0.0185(3) 0.3265(2) 0.6951(3)
C4W C -0.0765(2) 0.2685(3) 0.5549(3)
C4DA C 0.1735(2) 0.3049(3) 0.4815(3)
C4R C 0.2315(3) 0.4451(3) 0.4235(2)
H3U H 0.0370 0.5973 0.7380
H3IA H -0.0120 0.3473 0.7130
H3W H -0.0973 0.2620 0.5370
H3DA H 0.1527 0.2870 0.4880
H3R H 0.2380 0.4630 0.4027
H4U H 0.0704 0.5702 0.7541
H4IA H 0.0041 0.3202 0.6796
H4W H -0.0702 0.2459 0.5704
H4DA H 0.1798 0.3204 0.5041
H4R H 0.2541 0.4296 0.4298
H5U H 0.0403 0.5538 0.7234
H5IA H -0.0266 0.3038 0.7097
H5W H -0.0538 0.2766 0.5403
H5DA H 0.1962 0.2903 0.4734
H5R H 0.2234 0.4597 0.4462
C5U C 0.07968(18) 0.6641(2) 0.62310(19)
C5IA C -0.12690(19) 0.4141(2) 0.67032(18)
C5W C -0.1641(2) 0.37690(19) 0.57968(18)
C5DA C 0.0859(2) 0.32968(18) 0.37310(19)
C5R C 0.12310(19) 0.42032(18) 0.3359(2)
C6U C 0.0529(3) 0.6961(3) 0.6115(3)
C6IA C -0.1385(3) 0.4461(3) 0.6971(3)
C6W C -0.1961(3) 0.3885(3) 0.5529(3)
C6DA C 0.0539(3) 0.3029(3) 0.3615(3)
C6R C 0.1115(3) 0.4471(3) 0.3039(3)
H6U H 0.0415 0.7076 0.6346
H6IA H -0.1154 0.4576 0.7085
H6W H -0.2076 0.3654 0.5415
H6DA H 0.0424 0.2915 0.3846
H6R H 0.1346 0.4585 0.2924
H7U H 0.0324 0.6858 0.5952
H7IA H -0.1548 0.4358 0.7176
H7W H -0.1858 0.4048 0.5324
H7DA H 0.0642 0.2824 0.3452
H7R H 0.0952 0.4676 0.3142
H8U H 0.0672 0.7157 0.5974
H8IA H -0.1526 0.4657 0.6828
H8W H -0.2157 0.4026 0.5672
H8DA H 0.0343 0.3172 0.3474
H8R H 0.0974 0.4328 0.2843
B1ZB B -0.05160(16) 0.55160(16) 0.44840(16)
H9ZB H -0.0682 0.5682 0.4318
loop_
_geom_bond_atom_site_label_1
_geom_bond_atom_site_label_2
_geom_bond_site_symmetry_1
_geom_bond_site_symmetry_2
Rh1 O1 1_555 1_555
Fe1 N1 1_555 1_555
O1 C5 1_555 1_555
O2 Rh1 1_555 1_555
O3 C3 1_555 1_555
O4 C5 1_555 1_555
N1 N2 1_555 1_555
N2 C2 1_555 1_555
N3 Rh1 1_555 1_555
C1 N1 1_555 1_555
H1 C1 1_555 1_555
C2 N3 1_555 1_555
H2 C2 1_555 1_555
C3 O2 1_555 1_555
C4 C3 1_555 1_555
H3 C4 1_555 1_555
H4 C4 1_555 1_555
H5 C4 1_555 1_555
C5 C6 1_555 1_555
C6 H6 1_555 1_555
H7 C6 1_555 1_555
H8 C6 1_555 1_555
B1 N2 1_555 1_555
H9 B1 1_555 1_555
Rh1IA Rh1W 1_555 1_555
Rh1DA Rh1R 1_555 1_555
Rh1ZB N3ZB 1_555 1_555
Rh1VA N3VA 1_555 1_555
Rh1EC N3EC 1_555 1_555
Rh1U Rh1 1_555 1_555
Rh1W O1W 1_555 1_555
Rh1R O1R 1_555 1_555
O1U Rh1U 1_555 1_555
O1IA Rh1IA 1_555 1_555
O1W C5W 1_555 1_555
O1DA Rh1DA 1_555 1_555
O1R C5R 1_555 1_555
O2U Rh1U 1_555 1_555
O2IA Rh1IA 1_555 1_555
O2W Rh1W 1_555 1_555
O2DA Rh1DA 1_555 1_555
O2R Rh1R 1_555 1_555
O3U Rh1 1_555 1_555
O3IA Rh1W 1_555 1_555
O3W Rh1IA 1_555 1_555
O3DA Rh1R 1_555 1_555
O3R Rh1DA 1_555 1_555
O4U Rh1 1_555 1_555
O4IA Rh1W 1_555 1_555
O4W Rh1IA 1_555 1_555
O4DA Rh1R 1_555 1_555
O4R Rh1DA 1_555 1_555
N1IA Fe1 1_555 1_555
N1DA Fe1 1_555 1_555
N1ZB Fe1 1_555 1_555
N1VA Fe1 1_555 1_555
N1EC Fe1 1_555 1_555
N2IA B1 1_555 1_555
N2DA B1 1_555 1_555
N2ZB N1ZB 1_555 1_555
N2VA N1VA 1_555 1_555
N2EC N1EC 1_555 1_555
N3IA Rh1IA 1_555 1_555
N3DA Rh1DA 1_555 1_555
N3ZB C1ZB 1_555 1_555
N3VA C1VA 1_555 1_555
N3EC C1EC 1_555 1_555
N3U Rh1U 1_555 1_555
N3W Rh1W 1_555 1_555
N3R Rh1R 1_555 1_555
C1IA N1IA 1_555 1_555
C1DA N1DA 1_555 1_555
C1ZB N1ZB 1_555 1_555
C1VA N1VA 1_555 1_555
C1EC N1EC 1_555 1_555
H1IA C1IA 1_555 1_555
H1DA C1DA 1_555 1_555
H1ZB C1ZB 1_555 1_555
H1VA C1VA 1_555 1_555
H1EC C1EC 1_555 1_555
C2IA N2IA 1_555 1_555
C2DA N2DA 1_555 1_555
C2ZB N2ZB 1_555 1_555
C2VA N2VA 1_555 1_555
C2EC N2EC 1_555 1_555
H2IA C2IA 1_555 1_555
H2DA C2DA 1_555 1_555
H2ZB C2ZB 1_555 1_555
H2VA C2VA 1_555 1_555
H2EC C2EC 1_555 1_555
C3U O2U 1_555 1_555
C3IA O2IA 1_555 1_555
C3W O2W 1_555 1_555
C3DA O2DA 1_555 1_555
C3R O2R 1_555 1_555
C4U C3U 1_555 1_555
C4IA C3IA 1_555 1_555
C4W C3W 1_555 1_555
C4DA C3DA 1_555 1_555
C4R C3R 1_555 1_555
H3U C4U 1_555 1_555
H3IA C4IA 1_555 1_555
H3W C4W 1_555 1_555
H3DA C4DA 1_555 1_555
H3R C4R 1_555 1_555
H4U C4U 1_555 1_555
H4IA C4IA 1_555 1_555
H4W C4W 1_555 1_555
H4DA C4DA 1_555 1_555
H4R C4R 1_555 1_555
H5U C4U 1_555 1_555
H5IA C4IA 1_555 1_555
H5W C4W 1_555 1_555
H5DA C4DA 1_555 1_555
H5R C4R 1_555 1_555
C5U O1U 1_555 1_555
C5IA O1IA 1_555 1_555
C5W O4W 1_555 1_555
C5DA O1DA 1_555 1_555
C5R O4R 1_555 1_555
C6U C5U 1_555 1_555
C6IA C5IA 1_555 1_555
C6W C5W 1_555 1_555
C6DA C5DA 1_555 1_555
C6R C5R 1_555 1_555
H6U C6U 1_555 1_555
H6IA C6IA 1_555 1_555
H6W C6W 1_555 1_555
H6DA C6DA 1_555 1_555
H6R C6R 1_555 1_555
H7U C6U 1_555 1_555
H7IA C6IA 1_555 1_555
H7W C6W 1_555 1_555
H7DA C6DA 1_555 1_555
H7R C6R 1_555 1_555
H8U C6U 1_555 1_555
H8IA C6IA 1_555 1_555
H8W C6W 1_555 1_555
H8DA C6DA 1_555 1_555
H8R C6R 1_555 1_555
B1ZB N2ZB 1_555 1_555
H9ZB B1ZB 1_555 1_555
O3 Rh1U 1_555 1_555
O4 Rh1U 1_555 1_555
N3 C1 1_555 1_555
O3U C3U 1_555 1_555
O3IA C3IA 1_555 1_555
O3W C3W 1_555 1_555
O3DA C3DA 1_555 1_555
O3R C3R 1_555 1_555
O4U C5U 1_555 1_555
O4IA C5IA 1_555 1_555
O4DA C5DA 1_555 1_555
N1IA N2IA 1_555 1_555
N1DA N2DA 1_555 1_555
N2VA B1ZB 1_555 1_555
N2EC B1ZB 1_555 1_555
N3IA C1IA 1_555 1_555
N3IA C2IA 1_555 1_555
N3DA C1DA 1_555 1_555
N3DA C2DA 1_555 1_555
N3ZB C2ZB 1_555 1_555
N3VA C2VA 1_555 1_555
N3EC C2EC 1_555 1_555

#END
