
#######################################################################
#
#                 Cambridge Crystallographic Data Centre
#                                CCDC 
#
#######################################################################
#
# If this CIF has been generated from an entry in the Cambridge 
# Structural Database, then it will include bibliographic, chemical, 
# crystal, experimental, refinement or atomic coordinate data resulting 
# from the CCDC's data processing and validation procedures.
#
#######################################################################

data_PEHQID
_symmetry_cell_setting           orthorhombic
_symmetry_space_group_name_H-M   'C 2 2 21'
_symmetry_Int_Tables_number      20
_space_group_name_Hall           'C 2n 2'
loop_
_symmetry_equiv_pos_site_id
_symmetry_equiv_pos_as_xyz
1 x,y,z
2 -x,-y,1/2+z
3 -x,y,1/2-z
4 x,-y,-z
5 1/2+x,1/2+y,z
6 1/2-x,1/2-y,1/2+z
7 1/2-x,1/2+y,1/2-z
8 1/2+x,1/2-y,-z
_cell_length_a                   9.5774(19)
_cell_length_b                   16.913(3)
_cell_length_c                   25.396(5)
_cell_angle_alpha                90
_cell_angle_beta                 90
_cell_angle_gamma                90
_cell_volume                     4113.71
loop_
_atom_site_label
_atom_site_type_symbol
_atom_site_fract_x
_atom_site_fract_y
_atom_site_fract_z
Cl1 Cl 0.1958(2) 0.0000 0.5000
Cd1 Cd 0.97884(5) 0.08565(2) 0.607891(14)
Cd2 Cd 0.76780(15) 0.0000 0.5000
N1 N 0.9824(9) 0.0911(4) 0.6984(3)
C1 C 0.7483(14) 0.1665(7) 0.5778(5)
C2 C 0.6017(10) 0.2084(4) 0.5590(2)
H1 H 0.5999 0.2095 0.5204
C3 C 0.6049(9) 0.2969(5) 0.5797(3)
H2 H 0.6103 0.2969 0.6178
H3 H 0.6875 0.3233 0.5662
C4 C 0.4796(8) 0.3404(4) 0.5629(2)
H4 H 0.4795 0.3451 0.5244
C5 C 0.3465(6) 0.2907(3) 0.5811(2)
H5 H 0.3468 0.2889 0.6193
H6 H 0.2639 0.3198 0.5706
C6 C 0.3317(8) 0.2096(4) 0.5620(2)
H7 H 0.3295 0.2126 0.5234
C7 C 0.4759(8) 0.1656(3) 0.5775(2)
H8 H 0.4805 0.1602 0.6155
H9 H 0.4757 0.1129 0.5625
C8 C 0.4872(6) 0.4210(3) 0.5867(2)
C9 C 0.2139(7) 0.1698(4) 0.5769(3)
C10 C 0.8781(14) 0.0378(7) 0.7208(4)
H10 H 0.9034 -0.0167 0.7138
H11 H 0.7874 0.0479 0.7052
C11 C 1.1270(8) 0.0532(4) 0.7184(2)
H12 H 1.1437 0.0037 0.7001
H13 H 1.2034 0.0888 0.7103
C12 C 0.9882(17) 0.1727(5) 0.7204(3)
H14 H 0.9013 0.1998 0.7127
H15 H 1.0632 0.2017 0.7035
O1 O 0.7925(8) 0.1203(4) 0.5383(3)
O2 O 0.7729(11) 0.1607(6) 0.6230(4)
O4 O 0.4132(14) 0.4775(8) 0.5668(4)
O5 O 0.5679(12) 0.4268(6) 0.6192(3)
O6 O 0.1812(19) 0.1078(9) 0.5620(5)
O7 O 0.136(2) 0.1966(9) 0.6091(5)
O8 O 0.573(2) 0.0466(10) 0.4572(8)
C11B C 0.8730(8) 0.0532(4) 0.7816(2)
N1B N 1.0176(9) 0.0911(4) 0.8016(3)
C10B C 1.1219(14) 0.0378(7) 0.7792(4)
H10B H 1.0966 -0.0167 0.7862
H11B H 1.2126 0.0479 0.7948
C12B C 1.0118(17) 0.1727(5) 0.7796(3)
H14B H 1.0987 0.1998 0.7873
H15B H 0.9368 0.2017 0.7965
H12B H 0.8563 0.0037 0.7999
H13B H 0.7966 0.0888 0.7897
C1C C 0.7483(14) -0.1665(7) 0.4222(5)
C2C C 0.6017(10) -0.2084(4) 0.4410(2)
H1C H 0.5999 -0.2095 0.4796
C3C C 0.6049(9) -0.2969(5) 0.4203(3)
H2C H 0.6103 -0.2969 0.3822
H3C H 0.6875 -0.3233 0.4338
C4C C 0.4796(8) -0.3404(4) 0.4371(2)
H4C H 0.4795 -0.3451 0.4756
C5C C 0.3465(6) -0.2907(3) 0.4189(2)
H5C H 0.3468 -0.2889 0.3807
H6C H 0.2639 -0.3198 0.4294
C6C C 0.3317(8) -0.2096(4) 0.4380(2)
H7C H 0.3295 -0.2126 0.4766
C7C C 0.4759(8) -0.1656(3) 0.4225(2)
H8C H 0.4805 -0.1602 0.3845
H9C H 0.4757 -0.1129 0.4375
C8C C 0.4872(6) -0.4210(3) 0.4133(2)
C9C C 0.2139(7) -0.1698(4) 0.4231(3)
O1C O 0.7925(8) -0.1203(4) 0.4617(3)
O2C O 0.7729(11) -0.1607(6) 0.3770(4)
O4C O 0.4132(14) -0.4775(8) 0.4332(4)
O5C O 0.5679(12) -0.4268(6) 0.3808(3)
O6C O 0.1812(19) -0.1078(9) 0.4380(5)
O7C O 0.136(2) -0.1966(9) 0.3909(5)
O8C O 0.573(2) -0.0466(10) 0.5428(8)
Cd1C Cd 0.97884(5) -0.08565(2) 0.392109(14)
O4D O 0.9132(14) -0.0225(8) 0.5668(4)
O6_2 O 1.1812(19) 0.1078(9) 0.5620(5)
O7_2 O 1.136(2) 0.1966(9) 0.6091(5)
O4G O 0.9132(14) 0.0225(8) 0.4332(4)
Cd1D Cd 0.47884(5) 0.58565(2) 0.607891(14)
Cd2D Cd 0.26780(15) 0.5000 0.5000
Cd1_2 Cd -0.02116(5) 0.08565(2) 0.607891(14)
Cd1B Cd 1.02116(5) 0.08565(2) 0.892109(14)
Cd1G Cd 0.47884(5) -0.58565(2) 0.392109(14)
Cd2D_2 Cd 0.26780(15) -0.5000 0.5000
Cd1C_2 Cd -0.02116(5) -0.08565(2) 0.392109(14)
N1C N 0.9824(9) -0.0911(4) 0.3016(3)
O6C_2 O 1.1812(19) -0.1078(9) 0.4380(5)
O7C_2 O 1.136(2) -0.1966(9) 0.3909(5)
O3? O 0.546(2) 0.4730(10) 0.5582(6)
loop_
_geom_bond_atom_site_label_1
_geom_bond_atom_site_label_2
_geom_bond_site_symmetry_1
_geom_bond_site_symmetry_2
Cd1 N1 1_555 1_555
Cd2 O1 1_555 1_555
N1 C10 1_555 1_555
C1 C2 1_555 1_555
C2 H1 1_555 1_555
C3 C2 1_555 1_555
H2 C3 1_555 1_555
H3 C3 1_555 1_555
C4 C3 1_555 1_555
H4 C4 1_555 1_555
C5 C4 1_555 1_555
H5 C5 1_555 1_555
H6 C5 1_555 1_555
C6 C5 1_555 1_555
H7 C6 1_555 1_555
C7 C2 1_555 1_555
H8 C7 1_555 1_555
H9 C7 1_555 1_555
C8 C4 1_555 1_555
C9 C6 1_555 1_555
C10 H10 1_555 1_555
H11 C10 1_555 1_555
C11 N1 1_555 1_555
H12 C11 1_555 1_555
H13 C11 1_555 1_555
C12 N1 1_555 1_555
H14 C12 1_555 1_555
H15 C12 1_555 1_555
O1 Cd1 1_555 1_555
O2 Cd1 1_555 1_555
O4 C8 1_555 1_555
O5 C8 1_555 1_555
O6 C9 1_555 1_555
O7 C9 1_555 1_555
O8 Cd2 1_555 1_555
C11B C10 1_555 1_555
N1B C11B 1_555 1_555
C10B C11 1_555 1_555
H10B C10B 1_555 1_555
H11B C10B 1_555 1_555
C12B C12 1_555 1_555
H14B C12B 1_555 1_555
H15B C12B 1_555 1_555
H12B C11B 1_555 1_555
H13B C11B 1_555 1_555
C1C C2C 1_555 1_555
C2C H1C 1_555 1_555
C3C C2C 1_555 1_555
H2C C3C 1_555 1_555
H3C C3C 1_555 1_555
C4C C3C 1_555 1_555
H4C C4C 1_555 1_555
C5C C4C 1_555 1_555
H5C C5C 1_555 1_555
H6C C5C 1_555 1_555
C6C C5C 1_555 1_555
H7C C6C 1_555 1_555
C7C C2C 1_555 1_555
H8C C7C 1_555 1_555
H9C C7C 1_555 1_555
C8C C4C 1_555 1_555
C9C C6C 1_555 1_555
O1C Cd2 1_555 1_555
O2C C1C 1_555 1_555
O4C C8C 1_555 1_555
O5C C8C 1_555 1_555
O6C C9C 1_555 1_555
O7C C9C 1_555 1_555
O8C Cd2 1_555 1_555
Cd1C O1C 1_555 1_555
O4D Cd1 1_555 1_555
O6_2 Cd1 1_555 1_555
O7_2 Cd1 1_555 1_555
O4G Cd2 1_555 1_555
Cd1D O4 1_555 1_555
Cd2D O4 1_555 1_555
Cd1_2 O6 1_555 1_555
Cd1B N1B 1_555 1_555
Cd1G O4C 1_555 1_555
Cd2D_2 O4C 1_555 1_555
Cd1C_2 O6C 1_555 1_555
N1C Cd1C 1_555 1_555
O6C_2 Cd1C 1_555 1_555
O7C_2 Cd1C 1_555 1_555
Cd2 O4D 1_555 1_555
C1 O1 1_555 1_555
C1 O2 1_555 1_555
C6 C7 1_555 1_555
O7 Cd1_2 1_555 1_555
N1B C10B 1_555 1_555
N1B C12B 1_555 1_555
C1C O1C 1_555 1_555
C6C C7C 1_555 1_555
O2C Cd1C 1_555 1_555
O7C Cd1C_2 1_555 1_555
Cd1C O4G 1_555 1_555

#END
