
#######################################################################
#
#                 Cambridge Crystallographic Data Centre
#                                CCDC 
#
#######################################################################
#
# If this CIF has been generated from an entry in the Cambridge 
# Structural Database, then it will include bibliographic, chemical, 
# crystal, experimental, refinement or atomic coordinate data resulting 
# from the CCDC's data processing and validation procedures.
#
#######################################################################

data_PEJRON
_symmetry_cell_setting           tetragonal
_symmetry_space_group_name_H-M   'I -4 2 d'
_symmetry_Int_Tables_number      122
_space_group_name_Hall           'I -4 2bw'
loop_
_symmetry_equiv_pos_site_id
_symmetry_equiv_pos_as_xyz
1 x,y,z
2 -x,-y,z
3 y,-x,-z
4 -y,x,-z
5 1/2-x,y,3/4-z
6 1/2+x,-y,3/4-z
7 1/2-y,-x,3/4+z
8 1/2+y,x,3/4+z
9 1/2+x,1/2+y,1/2+z
10 1/2-x,1/2-y,1/2+z
11 1/2+y,1/2-x,1/2-z
12 1/2-y,1/2+x,1/2-z
13 -x,1/2+y,1/4-z
14 x,1/2-y,1/4-z
15 -y,1/2-x,1/4+z
16 y,1/2+x,1/4+z
_cell_length_a                   26.658(2)
_cell_length_b                   26.658(2)
_cell_length_c                   8.4790(6)
_cell_angle_alpha                90
_cell_angle_beta                 90
_cell_angle_gamma                90
_cell_volume                     6025.59
loop_
_atom_site_label
_atom_site_type_symbol
_atom_site_fract_x
_atom_site_fract_y
_atom_site_fract_z
Co1 Co 0.45023(4) 0.7500 0.1250
O1 O 0.5342(2) 0.5615(3) 0.8205(9)
O2 O 0.4619(3) 0.7278(2) 0.3487(8)
O3 O 0.5099(2) 0.6866(4) 0.1910(8)
C1 C 0.5000 0.5000 1.0000
C2 C 0.4957(5) 0.5507(5) 0.9080(15)
H1 H 0.4655 0.5495 0.8402
H2 H 0.4908 0.5782 0.9851
C3 C 0.5263(3) 0.5950(3) 0.7033(12)
C4 C 0.5464(3) 0.5865(3) 0.5550(11)
H3 H 0.5675 0.5582 0.5381
C5 C 0.5364(3) 0.6177(3) 0.4350(10)
H4 H 0.5490 0.6107 0.3324
C6 C 0.5071(2) 0.6610(3) 0.4619(9)
C7 C 0.4898(3) 0.6720(3) 0.6097(11)
H5 H 0.4712 0.7019 0.6269
C8 C 0.4994(3) 0.6398(4) 0.7348(11)
H6 H 0.4883 0.6475 0.8384
C9 C 0.4936(3) 0.6922(4) 0.3245(10)
C10 C 0.3762(3) 0.7988(4) 0.3411(11)
H7 H 0.3749 0.7677 0.3957
C11 C 0.3940(3) 0.8559(3) 0.1767(8)
H8 H 0.4073 0.8731 0.0879
C12 C 0.3653(3) 0.8766(3) 0.2868(10)
H9 H 0.3554 0.9107 0.2938
C13 C 0.3269(2) 0.8504(4) 0.5379(6)
C14 C 0.2799(3) 0.8728(4) 0.5299(7)
C15 C 0.2504(2) 0.8764(4) 0.6646(8)
H10 H 0.2182 0.8917 0.6592
C16 C 0.2680(2) 0.8577(4) 0.8073(6)
C17 C 0.3150(2) 0.8354(4) 0.8153(6)
H11 H 0.3270 0.8226 0.9129
C18 C 0.34446(19) 0.8317(3) 0.6806(8)
N1 N 0.4019(2) 0.8055(2) 0.2102(7)
N2 N 0.3529(2) 0.8386(3) 0.3884(9)
Co1A Co 0.54977(4) 0.2500 0.1250
Co1B Co 0.7500 0.54977(4) 1.8750
Co1C Co 0.2500 0.45023(4) 1.8750
Co1D Co 0.04977(4) 0.7500 1.6250
Co1D_2 Co 0.04977(4) 0.7500 -1.3750
O1A O 0.4658(2) 0.4385(3) 0.8205(9)
O1B O 0.5615(3) 0.4658(2) 1.1795(9)
O1C O 0.4385(3) 0.5342(2) 1.1795(9)
O2A O 0.5381(3) 0.2722(2) 0.3487(8)
O2B O 0.7278(2) 0.5381(3) 1.6513(8)
O2C O 0.2722(2) 0.4619(3) 1.6513(8)
O2M O 0.4619(3) 0.7722(2) -0.0987(8)
O2L O 0.5381(3) 0.2278(2) -0.0987(8)
O3A O 0.4901(2) 0.3134(4) 0.1910(8)
O3B O 0.6866(4) 0.4901(2) 1.8090(8)
O3C O 0.3134(4) 0.5099(2) 1.8090(8)
C2A C 0.5043(5) 0.4493(5) 0.9080(15)
C2B C 0.5507(5) 0.5043(5) 1.0920(15)
C2C C 0.4493(5) 0.4957(5) 1.0920(15)
H1A H 0.5345 0.4505 0.8402
H1B H 0.5495 0.5345 1.1598
H1C H 0.4505 0.4655 1.1598
H2A H 0.5092 0.4218 0.9851
H2B H 0.5782 0.5092 1.0149
H2C H 0.4218 0.4908 1.0149
C3A C 0.4737(3) 0.4050(3) 0.7033(12)
C3B C 0.5950(3) 0.4737(3) 1.2967(12)
C3C C 0.4050(3) 0.5263(3) 1.2967(12)
C4A C 0.4536(3) 0.4135(3) 0.5550(11)
C4B C 0.5865(3) 0.4536(3) 1.4450(11)
C4C C 0.4135(3) 0.5464(3) 1.4450(11)
H3A H 0.4325 0.4418 0.5381
H3B H 0.5582 0.4325 1.4619
H3C H 0.4418 0.5675 1.4619
C5A C 0.4636(3) 0.3823(3) 0.4350(10)
C5B C 0.6177(3) 0.4636(3) 1.5650(10)
C5C C 0.3823(3) 0.5364(3) 1.5650(10)
H4A H 0.4510 0.3893 0.3324
H4B H 0.6107 0.4510 1.6676
H4C H 0.3893 0.5490 1.6676
C6A C 0.4929(2) 0.3390(3) 0.4619(9)
C6B C 0.6610(3) 0.4929(2) 1.5381(9)
C6C C 0.3390(3) 0.5071(2) 1.5381(9)
C7A C 0.5102(3) 0.3280(3) 0.6097(11)
C7B C 0.6720(3) 0.5102(3) 1.3903(11)
C7C C 0.3280(3) 0.4898(3) 1.3903(11)
H5A H 0.5288 0.2981 0.6269
H5B H 0.7019 0.5288 1.3731
H5C H 0.2981 0.4712 1.3731
C8A C 0.5006(3) 0.3602(4) 0.7348(11)
C8B C 0.6398(4) 0.5006(3) 1.2652(11)
C8C C 0.3602(4) 0.4994(3) 1.2652(11)
H6A H 0.5117 0.3525 0.8384
H6B H 0.6475 0.5117 1.1616
H6C H 0.3525 0.4883 1.1616
C9A C 0.5064(3) 0.3078(4) 0.3245(10)
C9B C 0.6922(4) 0.5064(3) 1.6755(10)
C9C C 0.3078(4) 0.4936(3) 1.6755(10)
C10D C 0.1238(3) 0.7988(4) 1.4089(11)
C10M C 0.3762(3) 0.7012(4) -0.0911(11)
C10I C 0.1238(3) 0.7012(4) -1.1589(11)
H7D H 0.1251 0.7677 1.3543
H7M H 0.3749 0.7323 -0.1457
H7I H 0.1251 0.7323 -1.1043
C11D C 0.1060(3) 0.8559(3) 1.5733(8)
C11M C 0.3940(3) 0.6441(3) 0.0733(8)
C11I C 0.1060(3) 0.6441(3) -1.3233(8)
H8D H 0.0927 0.8731 1.6621
H8M H 0.4073 0.6269 0.1621
H8I H 0.0927 0.6269 -1.4121
C12D C 0.1347(3) 0.8766(3) 1.4632(10)
C12M C 0.3653(3) 0.6234(3) -0.0368(10)
C12I C 0.1347(3) 0.6234(3) -1.2132(10)
H9D H 0.1446 0.9107 1.4562
H9M H 0.3554 0.5893 -0.0438
H9I H 0.1446 0.5893 -1.2062
C13D C 0.1731(2) 0.8504(4) 1.2121(6)
C13M C 0.3269(2) 0.6496(4) -0.2879(6)
C13I C 0.1731(2) 0.6496(4) -0.9621(6)
C14D C 0.2201(3) 0.8728(4) 1.2201(7)
C14M C 0.2799(3) 0.6272(4) -0.2799(7)
C14I C 0.2201(3) 0.6272(4) -0.9701(7)
C15D C 0.2496(2) 0.8764(4) 1.0854(8)
C15M C 0.2504(2) 0.6236(4) -0.4146(8)
C15I C 0.2496(2) 0.6236(4) -0.8354(8)
H10D H 0.2818 0.8917 1.0908
H10M H 0.2182 0.6083 -0.4092
H10I H 0.2818 0.6083 -0.8408
C16D C 0.2320(2) 0.8577(4) 0.9427(6)
C16M C 0.2680(2) 0.6423(4) -0.5573(6)
C16I C 0.2320(2) 0.6423(4) -0.6927(6)
C17D C 0.1850(2) 0.8354(4) 0.9347(6)
C17M C 0.3150(2) 0.6646(4) -0.5653(6)
C17I C 0.1850(2) 0.6646(4) -0.6847(6)
H11D H 0.1730 0.8226 0.8371
H11M H 0.3270 0.6774 -0.6629
H11I H 0.1730 0.6774 -0.5871
C18D C 0.15554(19) 0.8317(3) 1.0694(8)
C18M C 0.34446(19) 0.6683(3) -0.4306(8)
C18I C 0.15554(19) 0.6683(3) -0.8194(8)
N1D N 0.0981(2) 0.8055(2) 1.5398(7)
N1M N 0.4019(2) 0.6945(2) 0.0398(7)
N1I N 0.0981(2) 0.6945(2) -1.2898(7)
N1A N 0.5981(2) 0.1945(2) 0.2102(7)
N1L N 0.5981(2) 0.3055(2) 0.0398(7)
N2D N 0.1471(2) 0.8386(3) 1.3616(9)
N2M N 0.3529(2) 0.6614(3) -0.1384(9)
N2I N 0.1471(2) 0.6614(3) -1.1116(9)
loop_
_geom_bond_atom_site_label_1
_geom_bond_atom_site_label_2
_geom_bond_site_symmetry_1
_geom_bond_site_symmetry_2
Co1 O2 1_555 1_555
O1 C2 1_555 1_555
O2 C9 1_555 1_555
O3 C9 1_555 1_555
C1 C2 1_555 1_555
C2 H1 1_555 1_555
H2 C2 1_555 1_555
C3 O1 1_555 1_555
C4 C3 1_555 1_555
H3 C4 1_555 1_555
C5 C4 1_555 1_555
H4 C5 1_555 1_555
C6 C5 1_555 1_555
C7 C6 1_555 1_555
H5 C7 1_555 1_555
C8 C3 1_555 1_555
H6 C8 1_555 1_555
C9 C6 1_555 1_555
C10 H7 1_555 1_555
C11 H8 1_555 1_555
C12 C11 1_555 1_555
H9 C12 1_555 1_555
C13 C14 1_555 1_555
C14 C15 1_555 1_555
C15 H10 1_555 1_555
C16 C15 1_555 1_555
C17 C16 1_555 1_555
H11 C17 1_555 1_555
C18 C13 1_555 1_555
N1 Co1 1_555 1_555
N2 C10 1_555 1_555
Co1A O2A 1_555 1_555
Co1B O2B 1_555 1_555
Co1C O2C 1_555 1_555
Co1D N1D 1_555 1_555
Co1D_2 N1I 1_555 1_555
O1A C2A 1_555 1_555
O1B C2B 1_555 1_555
O1C C2C 1_555 1_555
O2A C9A 1_555 1_555
O2B C9B 1_555 1_555
O2C C9C 1_555 1_555
O2M Co1 1_555 1_555
O2L Co1A 1_555 1_555
O3A C9A 1_555 1_555
O3B C9B 1_555 1_555
O3C C9C 1_555 1_555
C2A C1 1_555 1_555
C2B C1 1_555 1_555
C2C C1 1_555 1_555
H1A C2A 1_555 1_555
H1B C2B 1_555 1_555
H1C C2C 1_555 1_555
H2A C2A 1_555 1_555
H2B C2B 1_555 1_555
H2C C2C 1_555 1_555
C3A O1A 1_555 1_555
C3B O1B 1_555 1_555
C3C O1C 1_555 1_555
C4A C3A 1_555 1_555
C4B C3B 1_555 1_555
C4C C3C 1_555 1_555
H3A C4A 1_555 1_555
H3B C4B 1_555 1_555
H3C C4C 1_555 1_555
C5A C4A 1_555 1_555
C5B C4B 1_555 1_555
C5C C4C 1_555 1_555
H4A C5A 1_555 1_555
H4B C5B 1_555 1_555
H4C C5C 1_555 1_555
C6A C5A 1_555 1_555
C6B C5B 1_555 1_555
C6C C5C 1_555 1_555
C7A C6A 1_555 1_555
C7B C6B 1_555 1_555
C7C C6C 1_555 1_555
H5A C7A 1_555 1_555
H5B C7B 1_555 1_555
H5C C7C 1_555 1_555
C8A C3A 1_555 1_555
C8B C3B 1_555 1_555
C8C C3C 1_555 1_555
H6A C8A 1_555 1_555
H6B C8B 1_555 1_555
H6C C8C 1_555 1_555
C9A C6A 1_555 1_555
C9B C6B 1_555 1_555
C9C C6C 1_555 1_555
C10D H7D 1_555 1_555
C10M H7M 1_555 1_555
C10I H7I 1_555 1_555
C11D H8D 1_555 1_555
C11M H8M 1_555 1_555
C11I H8I 1_555 1_555
C12D C11D 1_555 1_555
C12M C11M 1_555 1_555
C12I C11I 1_555 1_555
H9D C12D 1_555 1_555
H9M C12M 1_555 1_555
H9I C12I 1_555 1_555
C13D C14D 1_555 1_555
C13M C14M 1_555 1_555
C13I C14I 1_555 1_555
C14D C15D 1_555 1_555
C14M C15M 1_555 1_555
C14I C15I 1_555 1_555
C15D H10D 1_555 1_555
C15M H10M 1_555 1_555
C15I H10I 1_555 1_555
C16D C16 1_555 1_555
C16M C15M 1_555 1_555
C16I C15I 1_555 1_555
C17D C16D 1_555 1_555
C17M C16M 1_555 1_555
C17I C16I 1_555 1_555
H11D C17D 1_555 1_555
H11M C17M 1_555 1_555
H11I C17I 1_555 1_555
C18D C13D 1_555 1_555
C18M C13M 1_555 1_555
C18I C13I 1_555 1_555
N1D C10D 1_555 1_555
N1M Co1 1_555 1_555
N1I C10I 1_555 1_555
N1A Co1A 1_555 1_555
N1L Co1A 1_555 1_555
N2D C10D 1_555 1_555
N2M C10M 1_555 1_555
N2I C10I 1_555 1_555
C7 C8 1_555 1_555
C10 N1 1_555 1_555
C11 N1 1_555 1_555
C12 N2 1_555 1_555
C13 N2 1_555 1_555
C17 C18 1_555 1_555
C7A C8A 1_555 1_555
C7B C8B 1_555 1_555
C7C C8C 1_555 1_555
C10M N1M 1_555 1_555
C11D N1D 1_555 1_555
C11M N1M 1_555 1_555
C11I N1I 1_555 1_555
C12D N2D 1_555 1_555
C12M N2M 1_555 1_555
C12I N2I 1_555 1_555
C13D N2D 1_555 1_555
C13M N2M 1_555 1_555
C13I N2I 1_555 1_555
C15D C16D 1_555 1_555
C16M C16I 1_555 1_555
C17D C18D 1_555 1_555
C17M C18M 1_555 1_555
C17I C18I 1_555 1_555

#END
