
#######################################################################
#
#                 Cambridge Crystallographic Data Centre
#                                CCDC 
#
#######################################################################
#
# If this CIF has been generated from an entry in the Cambridge 
# Structural Database, then it will include bibliographic, chemical, 
# crystal, experimental, refinement or atomic coordinate data resulting 
# from the CCDC's data processing and validation procedures.
#
#######################################################################

data_PEKVAE
_symmetry_cell_setting           monoclinic
_symmetry_space_group_name_H-M   'P 21/c'
_symmetry_Int_Tables_number      14
_space_group_name_Hall           '-P 2ybc'
loop_
_symmetry_equiv_pos_site_id
_symmetry_equiv_pos_as_xyz
1 x,y,z
2 -x,1/2+y,1/2-z
3 -x,-y,-z
4 x,1/2-y,1/2+z
_cell_length_a                   19.796(3)
_cell_length_b                   22.262(3)
_cell_length_c                   13.044(2)
_cell_angle_alpha                90
_cell_angle_beta                 99.852(2)
_cell_angle_gamma                90
_cell_volume                     5663.7
loop_
_atom_site_label
_atom_site_type_symbol
_atom_site_fract_x
_atom_site_fract_y
_atom_site_fract_z
C1 C -0.02727(12) 0.48574(11) 0.74869(18)
H1 H -0.0610 0.4589 0.7189
C2 C 0.00954(12) 0.47205(11) 0.84507(18)
H2 H 0.0003 0.4369 0.8787
C3 C 0.06076(11) 0.51106(11) 0.89224(18)
C4 C 0.06937(14) 0.56383(13) 0.8377(2)
H3 H 0.1020 0.5920 0.8662
C5 C 0.02974(14) 0.57417(12) 0.7423(2)
H4 H 0.0359 0.6100 0.7085
C6 C 0.10207(11) 0.49628(11) 0.99293(18)
C7 C 0.10453(13) 0.44272(11) 1.04548(19)
H5 H 0.0784 0.4094 1.0205
C8 C 0.15014(13) 0.44304(11) 1.14040(19)
H6 H 0.1575 0.4100 1.1844
C9 C 0.18290(11) 0.49706(11) 1.16175(18)
C10 C 0.23534(11) 0.51215(11) 1.25168(18)
C11 C 0.24574(13) 0.47645(12) 1.3394(2)
H7 H 0.2179 0.4432 1.3432
C12 C 0.29720(13) 0.48992(11) 1.4214(2)
H8 H 0.3035 0.4647 1.4791
C13 C 0.32722(13) 0.57342(12) 1.3392(2)
H9 H 0.3545 0.6074 1.3389
C14 C 0.27704(13) 0.56277(12) 1.2538(2)
H10 H 0.2711 0.5893 1.1979
C15 C 0.52083(16) 0.52833(12) 1.7545(2)
H11 H 0.4933 0.4947 1.7567
C16 C 0.57475(16) 0.53696(12) 1.8344(2)
H12 H 0.5825 0.5097 1.8893
C17 C 0.61748(12) 0.58567(10) 1.83398(18)
C18 C 0.60239(14) 0.62386(11) 1.7492(2)
H13 H 0.6298 0.6573 1.7441
C19 C 0.54726(13) 0.61258(11) 1.67295(19)
H14 H 0.5382 0.6392 1.6174
C20 C 0.67520(12) 0.59890(10) 1.91732(18)
C21 C 0.71632(13) 0.64864(11) 1.92847(19)
H15 H 0.7119 0.6798 1.8804
C22 C 0.76573(12) 0.64812(11) 2.01946(19)
H16 H 0.7975 0.6788 2.0372
C23 C 0.76276(11) 0.59830(10) 2.07954(18)
C24 C 0.80324(11) 0.58427(10) 2.18117(18)
C25 C 0.86145(12) 0.61710(11) 2.2204(2)
H17 H 0.8757 0.6481 2.1814
C26 C 0.89802(12) 0.60375(11) 2.31693(19)
H18 H 0.9367 0.6266 2.3415
C27 C 0.82422(14) 0.52873(13) 2.3403(2)
H19 H 0.8110 0.4980 2.3811
C28 C 0.78405(14) 0.53970(12) 2.2454(2)
H20 H 0.7443 0.5175 2.2242
C29 C 0.86912(12) 0.84113(11) 1.1132(2)
C30 C 0.80147(12) 0.81100(9) 1.11651(19)
C31 C 0.74624(12) 0.82078(10) 1.03775(19)
H21 H 0.7515 0.8456 0.9823
C32 C 0.68350(12) 0.79431(10) 1.04009(19)
H22 H 0.6471 0.8000 0.9856
C33 C 0.67553(11) 0.75892(9) 1.12511(19)
C34 C 0.72932(12) 0.74864(10) 1.20511(19)
H23 H 0.7234 0.7252 1.2619
C35 C 0.79282(12) 0.77403(10) 1.19920(19)
H24 H 0.8300 0.7661 1.2514
C36 C 0.59396(12) 0.70020(10) 1.20046(19)
C37 C 0.54040(12) 0.71789(10) 1.2493(2)
H25 H 0.5195 0.7551 1.2348
C38 C 0.51837(12) 0.67905(10) 1.32027(19)
H26 H 0.4818 0.6901 1.3525
C39 C 0.55011(11) 0.62411(9) 1.34366(17)
C40 C 0.60432(12) 0.60763(10) 1.29450(19)
H27 H 0.6264 0.5711 1.3106
C41 C 0.62560(12) 0.64526(10) 1.2218(2)
H28 H 0.6610 0.6336 1.1875
C42 C 0.52507(10) 0.58264(9) 1.41997(17)
C43 C 0.07769(11) 0.91976(10) 1.98374(17)
C44 C 0.11442(12) 0.86108(10) 1.98166(18)
C45 C 0.08434(14) 0.80814(12) 2.0088(3)
H29 H 0.0422 0.8096 2.0312
C46 C 0.11644(16) 0.75368(13) 2.0027(3)
H30 H 0.0961 0.7184 2.0206
C47 C 0.17832(17) 0.75189(12) 1.9702(2)
C48 C 0.21083(16) 0.80314(13) 1.9489(3)
H31 H 0.2541 0.8013 1.9302
C49 C 0.17868(14) 0.85834(12) 1.9553(2)
H32 H 0.2008 0.8936 1.9418
C50 C 0.24039(17) 0.67538(13) 1.8915(2)
C51 C 0.27862(13) 0.62415(10) 1.9147(2)
H33 H 0.2825 0.6066 1.9801
C52 C 0.31137(12) 0.59891(10) 1.83926(19)
H34 H 0.3354 0.5631 1.8533
C53 C 0.30888(13) 0.62624(11) 1.7433(2)
C54 C 0.2702(2) 0.67728(16) 1.7222(3)
H35 H 0.2683 0.6962 1.6582
C55 C 0.2340(2) 0.70125(16) 1.7948(3)
H36 H 0.2057 0.7344 1.7782
C56 C 0.34666(12) 0.59887(10) 1.66468(19)
Co1 Co 0.420790(14) 0.551450(12) 1.54967(2)
Co2 Co -0.067903(14) 0.549248(12) 0.53800(2)
N1 N -0.01743(10) 0.53541(9) 0.69509(15)
N2 N 0.33852(9) 0.53736(8) 1.42220(15)
N3 N 0.50577(10) 0.56552(8) 1.67396(15)
N4 N 0.88116(10) 0.55957(8) 2.37778(15)
O1 O 0.60943(8) 0.73833(8) 1.12304(14)
O2 O 0.20763(16) 0.69482(10) 1.97171(19)
O3 O 0.92362(10) 0.81626(10) 1.1514(2)
O4 O 0.86441(8) 0.89067(7) 1.06519(14)
O5 O 0.47002(8) 0.59718(7) 1.44948(12)
O6 O 0.56086(8) 0.53759(7) 1.45079(13)
O7 O 0.01714(8) 0.91780(8) 2.00045(14)
O8 O 0.10865(8) 0.96681(7) 1.96674(13)
O9 O 0.35731(9) 0.54284(7) 1.66835(13)
O10 O 0.36825(10) 0.63131(8) 1.59790(14)
S1 S 0.15642(3) 0.54781(3) 1.06286(5)
S2 S 0.69822(3) 0.55061(2) 2.02103(5)
Co1B Co 0.579210(14) 0.448550(12) 1.45033(2)
Co2_2 Co 0.932097(14) 0.549248(12) 2.53800(2)
Co2C Co 0.932097(14) 0.950752(12) 1.03800(2)
Co2C_2 Co -0.067903(14) 0.950752(12) 2.03800(2)
Co2A Co 0.067903(14) 1.049248(12) 1.96200(2)
N4_2 N -0.11884(10) 0.55957(8) 0.37778(15)
O4C O -0.13559(8) 0.60933(7) 0.56519(14)
O6B O 0.43914(8) 0.46241(7) 1.54921(13)
O7C O 0.01714(8) 0.58220(8) 0.50045(14)
O8A O -0.10865(8) 0.46681(7) 0.53326(13)
loop_
_geom_bond_atom_site_label_1
_geom_bond_atom_site_label_2
_geom_bond_site_symmetry_1
_geom_bond_site_symmetry_2
C1 H1 1_555 1_555
C2 C1 1_555 1_555
H2 C2 1_555 1_555
C3 C2 1_555 1_555
C4 C3 1_555 1_555
H3 C4 1_555 1_555
C5 C4 1_555 1_555
H4 C5 1_555 1_555
C6 C3 1_555 1_555
C7 C6 1_555 1_555
H5 C7 1_555 1_555
C8 C7 1_555 1_555
H6 C8 1_555 1_555
C9 C8 1_555 1_555
C10 C9 1_555 1_555
C11 C10 1_555 1_555
H7 C11 1_555 1_555
C12 C11 1_555 1_555
H8 C12 1_555 1_555
C13 H9 1_555 1_555
C14 C10 1_555 1_555
H10 C14 1_555 1_555
C15 H11 1_555 1_555
C16 C15 1_555 1_555
H12 C16 1_555 1_555
C17 C16 1_555 1_555
C18 C17 1_555 1_555
H13 C18 1_555 1_555
C19 C18 1_555 1_555
H14 C19 1_555 1_555
C20 C17 1_555 1_555
C21 C20 1_555 1_555
H15 C21 1_555 1_555
C22 C21 1_555 1_555
H16 C22 1_555 1_555
C23 C22 1_555 1_555
C24 C23 1_555 1_555
C25 C24 1_555 1_555
H17 C25 1_555 1_555
C26 C25 1_555 1_555
H18 C26 1_555 1_555
C27 H19 1_555 1_555
C28 C24 1_555 1_555
H20 C28 1_555 1_555
C29 C30 1_555 1_555
C30 C31 1_555 1_555
C31 H21 1_555 1_555
C32 C31 1_555 1_555
H22 C32 1_555 1_555
C33 C32 1_555 1_555
C34 C33 1_555 1_555
H23 C34 1_555 1_555
C35 C30 1_555 1_555
H24 C35 1_555 1_555
C36 C37 1_555 1_555
C37 H25 1_555 1_555
C38 C37 1_555 1_555
H26 C38 1_555 1_555
C39 C38 1_555 1_555
C40 C39 1_555 1_555
H27 C40 1_555 1_555
C41 C36 1_555 1_555
H28 C41 1_555 1_555
C42 C39 1_555 1_555
C43 C44 1_555 1_555
C44 C45 1_555 1_555
C45 H29 1_555 1_555
C46 C45 1_555 1_555
H30 C46 1_555 1_555
C47 C46 1_555 1_555
C48 C47 1_555 1_555
H31 C48 1_555 1_555
C49 C44 1_555 1_555
H32 C49 1_555 1_555
C50 C51 1_555 1_555
C51 H33 1_555 1_555
C52 C51 1_555 1_555
H34 C52 1_555 1_555
C53 C52 1_555 1_555
C54 C53 1_555 1_555
H35 C54 1_555 1_555
C55 C50 1_555 1_555
H36 C55 1_555 1_555
C56 C53 1_555 1_555
Co1 N2 1_555 1_555
Co2 N1 1_555 1_555
N1 C1 1_555 1_555
N2 C12 1_555 1_555
N3 C15 1_555 1_555
N4 C26 1_555 1_555
O1 C33 1_555 1_555
O2 C47 1_555 1_555
O3 C29 1_555 1_555
O4 C29 1_555 1_555
O5 C42 1_555 1_555
O6 C42 1_555 1_555
O7 C43 1_555 1_555
O8 C43 1_555 1_555
O9 C56 1_555 1_555
O10 C56 1_555 1_555
S1 C6 1_555 1_555
S2 C20 1_555 1_555
Co1B O6 1_555 1_555
Co2_2 N4 1_555 1_555
Co2C O4 1_555 1_555
Co2C_2 O7 1_555 1_555
Co2A O8 1_555 1_555
N4_2 Co2 1_555 1_555
O4C Co2 1_555 1_555
O6B Co1 1_555 1_555
O7C Co2 1_555 1_555
O8A Co2 1_555 1_555
C5 N1 1_555 1_555
C9 S1 1_555 1_555
C13 C14 1_555 1_555
C13 N2 1_555 1_555
C19 N3 1_555 1_555
C23 S2 1_555 1_555
C27 C28 1_555 1_555
C27 N4 1_555 1_555
C34 C35 1_555 1_555
C36 O1 1_555 1_555
C40 C41 1_555 1_555
C48 C49 1_555 1_555
C50 O2 1_555 1_555
C54 C55 1_555 1_555
Co1 N3 1_555 1_555
Co1 O5 1_555 1_555
Co1 O9 1_555 1_555
Co1 O10 1_555 1_555

#END
