
#######################################################################
#
#                 Cambridge Crystallographic Data Centre
#                                CCDC 
#
#######################################################################
#
# If this CIF has been generated from an entry in the Cambridge 
# Structural Database, then it will include bibliographic, chemical, 
# crystal, experimental, refinement or atomic coordinate data resulting 
# from the CCDC's data processing and validation procedures.
#
#######################################################################

data_PEKZIP
_symmetry_cell_setting           orthorhombic
_symmetry_space_group_name_H-M   'P n n n'
_symmetry_Int_Tables_number      48
_space_group_name_Hall           '-P 2ab 2bc'
loop_
_symmetry_equiv_pos_site_id
_symmetry_equiv_pos_as_xyz
1 x,y,z
2 1/2-x,1/2-y,z
3 1/2-x,y,1/2-z
4 x,1/2-y,1/2-z
5 -x,-y,-z
6 1/2+x,1/2+y,-z
7 1/2+x,-y,1/2+z
8 -x,1/2+y,1/2+z
_cell_length_a                   5.5864(18)
_cell_length_b                   12.769(4)
_cell_length_c                   15.621(5)
_cell_angle_alpha                90
_cell_angle_beta                 90
_cell_angle_gamma                90
_cell_volume                     1114.29
loop_
_atom_site_label
_atom_site_type_symbol
_atom_site_fract_x
_atom_site_fract_y
_atom_site_fract_z
Cu1 Cu 1.2500 0.7500 0.59770(5)
Cl1 Cl 1.2500 0.7500 0.7500
N1 N 0.9850(6) 0.6617(3) 0.5637(2)
C1 C 0.8453(10) 0.6142(4) 0.6211(3)
H1 H 0.8761 0.6249 0.6790
C2 C 0.6579(10) 0.5502(4) 0.5985(3)
H2 H 0.5682 0.5173 0.6408
C3 C 0.6017(7) 0.5342(3) 0.5137(3)
C4 C 0.7434(8) 0.5851(4) 0.4546(3)
H3 H 0.7126 0.5778 0.3964
C5 C 0.9314(8) 0.6471(3) 0.4821(3)
H4 H 1.0252 0.6802 0.4410
Cu1B Cu 1.2500 0.7500 0.90230(5)
Cu1E Cu -0.2500 0.2500 0.40230(5)
Cu1E_2 Cu 2.7500 1.2500 0.40230(5)
N1D N 0.0150(6) 0.3383(3) 0.4363(2)
N1A N 1.5150(6) 0.8383(3) 0.5637(2)
N1E N 2.4850(6) 1.1617(3) 0.4363(2)
N1B N 1.5150(6) 0.6617(3) 0.9363(2)
N1C N 0.9850(6) 0.8383(3) 0.9363(2)
C1D C 0.1547(10) 0.3858(4) 0.3789(3)
C1A C 1.6547(10) 0.8858(4) 0.6211(3)
C1E C 2.3453(10) 1.1142(4) 0.3789(3)
H1D H 0.1239 0.3751 0.3210
H1A H 1.6239 0.8751 0.6790
H1E H 2.3761 1.1249 0.3210
C2D C 0.3421(10) 0.4498(4) 0.4015(3)
C2A C 1.8421(10) 0.9498(4) 0.5985(3)
C2E C 2.1579(10) 1.0502(4) 0.4015(3)
H2D H 0.4318 0.4827 0.3592
H2A H 1.9318 0.9827 0.6408
H2E H 2.0682 1.0173 0.3592
C3D C 0.3983(7) 0.4658(3) 0.4863(3)
C3A C 1.8983(7) 0.9658(3) 0.5137(3)
C3E C 2.1017(7) 1.0342(3) 0.4863(3)
C4D C 0.2566(8) 0.4149(4) 0.5454(3)
C4A C 1.7566(8) 0.9149(4) 0.4546(3)
C4E C 2.2434(8) 1.0851(4) 0.5454(3)
H3D H 0.2874 0.4222 0.6036
H3A H 1.7874 0.9222 0.3964
H3E H 2.2126 1.0778 0.6036
C5D C 0.0686(8) 0.3529(3) 0.5179(3)
C5A C 1.5686(8) 0.8529(3) 0.4821(3)
C5E C 2.4314(8) 1.1471(3) 0.5179(3)
H4D H -0.0252 0.3198 0.5590
H4A H 1.4748 0.8198 0.4410
H4E H 2.5252 1.1802 0.5590
Cl2 Cl 0.2500 0.7500 0.2500
O1 O 0.143(5) 0.8129(18) 0.3132(11)
O1A O 0.357(5) 0.6871(18) 0.3132(11)
O1B O 0.357(5) 0.8129(18) 0.1868(11)
O1C O 0.143(5) 0.6871(18) 0.1868(11)
Cl3? Cl 0.2500 0.6862(12) 0.2500
O2? O 0.2500 0.7500 0.3241(6)
O3? O 0.045(4) 0.6206(19) 0.2651(12)
loop_
_geom_bond_atom_site_label_1
_geom_bond_atom_site_label_2
_geom_bond_site_symmetry_1
_geom_bond_site_symmetry_2
Cu1 Cl1 1_555 1_555
Cl1 Cu1B 1_555 1_555
N1 Cu1 1_555 1_555
C1 N1 1_555 1_555
H1 C1 1_555 1_555
C2 C1 1_555 1_555
H2 C2 1_555 1_555
C3 C2 1_555 1_555
C4 C3 1_555 1_555
H3 C4 1_555 1_555
C5 N1 1_555 1_555
H4 C5 1_555 1_555
Cl2 O1 1_555 1_555
Cu1B N1B 1_555 1_555
Cu1E N1D 1_555 1_555
Cu1E_2 N1E 1_555 1_555
N1D C1D 1_555 1_555
N1A Cu1 1_555 1_555
N1E C1E 1_555 1_555
N1C Cu1B 1_555 1_555
C1D H1D 1_555 1_555
C1A N1A 1_555 1_555
C1E H1E 1_555 1_555
H1A C1A 1_555 1_555
C2D C1D 1_555 1_555
C2A C1A 1_555 1_555
C2E C1E 1_555 1_555
H2D C2D 1_555 1_555
H2A C2A 1_555 1_555
H2E C2E 1_555 1_555
C3D C3 1_555 1_555
C3A C2A 1_555 1_555
C3E C2E 1_555 1_555
C4D C3D 1_555 1_555
C4A C3A 1_555 1_555
C4E C3E 1_555 1_555
H3D C4D 1_555 1_555
H3A C4A 1_555 1_555
H3E C4E 1_555 1_555
C5D N1D 1_555 1_555
C5A N1A 1_555 1_555
C5E N1E 1_555 1_555
H4D C5D 1_555 1_555
H4A C5A 1_555 1_555
H4E C5E 1_555 1_555
O1A Cl2 1_555 1_555
O1B Cl2 1_555 1_555
O1C Cl2 1_555 1_555
C4 C5 1_555 1_555
C2D C3D 1_555 1_555
C3A C3E 1_555 1_555
C4D C5D 1_555 1_555
C4A C5A 1_555 1_555
C4E C5E 1_555 1_555

#END
