
#######################################################################
#
#                 Cambridge Crystallographic Data Centre
#                                CCDC 
#
#######################################################################
#
# If this CIF has been generated from an entry in the Cambridge 
# Structural Database, then it will include bibliographic, chemical, 
# crystal, experimental, refinement or atomic coordinate data resulting 
# from the CCDC's data processing and validation procedures.
#
#######################################################################

data_PEMREG
_symmetry_cell_setting           monoclinic
_symmetry_space_group_name_H-M   'P 21/c'
_symmetry_Int_Tables_number      14
_space_group_name_Hall           '-P 2ybc'
loop_
_symmetry_equiv_pos_site_id
_symmetry_equiv_pos_as_xyz
1 x,y,z
2 -x,1/2+y,1/2-z
3 -x,-y,-z
4 x,1/2-y,1/2+z
_cell_length_a                   17.8372(19)
_cell_length_b                   21.164(2)
_cell_length_c                   21.721(2)
_cell_angle_alpha                90
_cell_angle_beta                 90.300(2)
_cell_angle_gamma                90
_cell_volume                     8199.71
loop_
_atom_site_label
_atom_site_type_symbol
_atom_site_fract_x
_atom_site_fract_y
_atom_site_fract_z
Cd1 Cd 0.39801(2) -0.340682(18) 0.485519(17)
Cd2 Cd 0.79964(2) 0.084147(17) 0.517109(16)
C1 C 0.6331(3) 0.0633(3) 0.4759(2)
H1 H 0.6185 0.1055 0.4914
H2 H 0.5870 0.0379 0.4707
C2 C 0.6717(3) 0.0705(3) 0.4134(3)
H3 H 0.6816 0.0279 0.3964
H4 H 0.6371 0.0925 0.3848
C3 C 0.7322(3) 0.1727(3) 0.4182(2)
H5 H 0.6872 0.1814 0.4433
H6 H 0.7216 0.1875 0.3759
C4 C 0.7969(3) 0.2105(3) 0.4439(2)
H7 H 0.7844 0.2560 0.4417
H8 H 0.8418 0.2033 0.4182
C5 C 0.7608(3) 0.2199(3) 0.5524(3)
H9 H 0.7101 0.2155 0.5343
H10 H 0.7711 0.2656 0.5575
C6 C 0.7622(4) 0.1892(3) 0.6136(3)
H11 H 0.7227 0.2085 0.6395
H12 H 0.8111 0.1981 0.6336
C7 C 0.6706(3) 0.1067(3) 0.6098(2)
H13 H 0.6461 0.1387 0.5832
H14 H 0.6499 0.1114 0.6517
C8 C 0.6507(4) 0.0420(3) 0.5859(3)
H15 H 0.5955 0.0374 0.5843
H16 H 0.6709 0.0095 0.6142
C9 C 0.4735(3) -0.2312(3) 0.5037(3)
C10 C 0.5257(3) -0.1755(2) 0.5079(3)
C11 C 0.5657(3) -0.1631(3) 0.5612(2)
H17 H 0.5566 -0.1865 0.5977
C12 C 0.6191(3) -0.1160(3) 0.5602(2)
H18 H 0.6463 -0.1076 0.5970
C13 C 0.6352(3) -0.0804(2) 0.5088(2)
C14 C 0.5926(3) -0.0929(3) 0.4567(2)
H19 H 0.5996 -0.0678 0.4209
C15 C 0.5405(3) -0.1404(3) 0.4555(3)
H20 H 0.5143 -0.1495 0.4183
C16 C 0.6986(3) -0.0363(2) 0.5095(2)
H21 H 0.7240 -0.0394 0.4692
H22 H 0.7346 -0.0511 0.5411
C17 C 0.6715(4) 0.1109(5) 0.1201(3)
C18 C 0.7070(3) 0.1032(3) 0.1840(2)
C19 C 0.7471(3) 0.1518(3) 0.2122(2)
H23 H 0.7546 0.1901 0.1904
C20 C 0.7758(3) 0.1459(3) 0.2695(2)
H24 H 0.8033 0.1800 0.2868
C21 C 0.7660(3) 0.0911(2) 0.3041(2)
C22 C 0.7289(3) 0.0388(3) 0.2763(2)
H25 H 0.7222 0.0005 0.2986
C23 C 0.7026(3) 0.0443(3) 0.2166(2)
H26 H 0.6812 0.0085 0.1968
C24 C 0.7963(3) 0.0850(2) 0.3675(2)
H27 H 0.8431 0.1101 0.3707
H28 H 0.8095 0.0402 0.3750
C25 C 1.1071(3) 0.0179(2) 0.4811(2)
C26 C 1.0549(3) 0.0713(2) 0.4913(2)
C27 C 1.0262(3) 0.0818(2) 0.5483(2)
H29 H 1.0421 0.0559 0.5816
C28 C 0.9745(3) 0.1292(2) 0.5592(2)
H30 H 0.9542 0.1346 0.5992
C29 C 0.9524(3) 0.1688(2) 0.5116(2)
C30 C 0.9839(3) 0.1598(3) 0.4523(2)
H31 H 0.9697 0.1865 0.4190
C31 C 1.0356(3) 0.1114(3) 0.4434(2)
H32 H 1.0579 0.1059 0.4041
C32 C 0.8938(3) 0.2184(2) 0.5218(3)
H33 H 0.9031 0.2545 0.4938
H34 H 0.8976 0.2341 0.5646
C33 C 0.6679(3) 0.1279(3) 0.9083(2)
C34 C 0.7011(3) 0.1151(2) 0.8459(2)
C35 C 0.7510(3) 0.1578(3) 0.8199(2)
H35 H 0.7658 0.1942 0.8426
C36 C 0.7796(3) 0.1484(3) 0.7614(2)
H36 H 0.8142 0.1779 0.7448
C37 C 0.7580(3) 0.0958(2) 0.7266(2)
C38 C 0.7106(3) 0.0532(3) 0.7531(2)
H37 H 0.6984 0.0157 0.7313
C39 C 0.6795(3) 0.0631(3) 0.8113(2)
H38 H 0.6436 0.0342 0.8271
C40 C 0.7893(3) 0.0845(2) 0.6641(2)
H39 H 0.7867 0.0387 0.6553
H40 H 0.8429 0.0967 0.6645
N1 N 0.7439(2) 0.1063(2) 0.41663(19)
N2 N 0.6831(2) 0.0322(2) 0.52158(18)
N3 N 0.8153(2) 0.19319(19) 0.5104(2)
N4 N 0.7505(2) 0.1196(2) 0.61209(17)
O1 O 0.4821(3) -0.2769(2) 0.5416(2)
O2 O 0.4264(2) -0.2331(2) 0.4664(2)
O3 O 0.6498(3) 0.0617(4) 0.0939(2)
O4 O 0.6716(3) 0.1637(3) 0.09938(19)
O5 O 1.1356(2) 0.00673(17) 0.42998(15)
O6 O 1.1247(2) -0.01488(17) 0.52874(15)
O7 O 0.6899(2) 0.1748(2) 0.93700(18)
O8 O 0.6192(2) 0.09224(18) 0.92877(17)
O9 O 0.5106(6) -0.3830(5) 0.4465(4)
Cd1A Cd 0.60199(2) 0.159318(18) 0.014481(17)
Cd1A_2 Cd 0.60199(2) 0.159318(18) 1.014481(17)
Cd2B Cd 1.20036(2) -0.084147(17) 0.482891(16)
O4A O 0.3284(3) -0.3363(3) 0.40062(19)
O5B O 0.8644(2) -0.00673(17) 0.57002(15)
O6B O 0.8753(2) 0.01488(17) 0.47126(15)
O7A O 0.3101(2) -0.3252(2) 0.56300(18)
O8A O 0.3808(2) -0.40776(18) 0.57123(17)
loop_
_geom_bond_atom_site_label_1
_geom_bond_atom_site_label_2
_geom_bond_site_symmetry_1
_geom_bond_site_symmetry_2
Cd1 O1 1_555 1_555
Cd2 N1 1_555 1_555
C1 H1 1_555 1_555
H2 C1 1_555 1_555
C2 C1 1_555 1_555
H3 C2 1_555 1_555
H4 C2 1_555 1_555
C3 H5 1_555 1_555
H6 C3 1_555 1_555
C4 C3 1_555 1_555
H7 C4 1_555 1_555
H8 C4 1_555 1_555
C5 H9 1_555 1_555
H10 C5 1_555 1_555
C6 C5 1_555 1_555
H11 C6 1_555 1_555
H12 C6 1_555 1_555
C7 H13 1_555 1_555
H14 C7 1_555 1_555
C8 C7 1_555 1_555
H15 C8 1_555 1_555
H16 C8 1_555 1_555
C9 C10 1_555 1_555
C10 C11 1_555 1_555
C11 H17 1_555 1_555
C12 C11 1_555 1_555
H18 C12 1_555 1_555
C13 C12 1_555 1_555
C14 C13 1_555 1_555
H19 C14 1_555 1_555
C15 C10 1_555 1_555
H20 C15 1_555 1_555
C16 C13 1_555 1_555
H21 C16 1_555 1_555
H22 C16 1_555 1_555
C17 C18 1_555 1_555
C18 C19 1_555 1_555
C19 H23 1_555 1_555
C20 C19 1_555 1_555
H24 C20 1_555 1_555
C21 C20 1_555 1_555
C22 C21 1_555 1_555
H25 C22 1_555 1_555
C23 C18 1_555 1_555
H26 C23 1_555 1_555
C24 C21 1_555 1_555
H27 C24 1_555 1_555
H28 C24 1_555 1_555
C25 C26 1_555 1_555
C26 C27 1_555 1_555
C27 H29 1_555 1_555
C28 C27 1_555 1_555
H30 C28 1_555 1_555
C29 C28 1_555 1_555
C30 C29 1_555 1_555
H31 C30 1_555 1_555
C31 C26 1_555 1_555
H32 C31 1_555 1_555
C32 C29 1_555 1_555
H33 C32 1_555 1_555
H34 C32 1_555 1_555
C33 C34 1_555 1_555
C34 C35 1_555 1_555
C35 H35 1_555 1_555
C36 C35 1_555 1_555
H36 C36 1_555 1_555
C37 C36 1_555 1_555
C38 C37 1_555 1_555
H37 C38 1_555 1_555
C39 C34 1_555 1_555
H38 C39 1_555 1_555
C40 C37 1_555 1_555
H39 C40 1_555 1_555
H40 C40 1_555 1_555
N1 C2 1_555 1_555
N2 Cd2 1_555 1_555
N3 Cd2 1_555 1_555
N4 Cd2 1_555 1_555
O1 C9 1_555 1_555
O2 Cd1 1_555 1_555
O3 C17 1_555 1_555
O4 C17 1_555 1_555
O5 C25 1_555 1_555
O6 C25 1_555 1_555
O7 C33 1_555 1_555
O8 C33 1_555 1_555
O9 Cd1 1_555 1_555
Cd1A O4 1_555 1_555
Cd1A_2 O7 1_555 1_555
Cd2B O5 1_555 1_555
O4A Cd1 1_555 1_555
O5B Cd2 1_555 1_555
O6B Cd2 1_555 1_555
O7A Cd1 1_555 1_555
O8A Cd1 1_555 1_555
C1 N2 1_555 1_555
C3 N1 1_555 1_555
C4 N3 1_555 1_555
C5 N3 1_555 1_555
C6 N4 1_555 1_555
C7 N4 1_555 1_555
C8 N2 1_555 1_555
C9 O2 1_555 1_555
C14 C15 1_555 1_555
C16 N2 1_555 1_555
C22 C23 1_555 1_555
C24 N1 1_555 1_555
C30 C31 1_555 1_555
C32 N3 1_555 1_555
C38 C39 1_555 1_555
C40 N4 1_555 1_555
O6 Cd2B 1_555 1_555
O8 Cd1A_2 1_555 1_555

#END
