
#######################################################################
#
#                 Cambridge Crystallographic Data Centre
#                                CCDC 
#
#######################################################################
#
# If this CIF has been generated from an entry in the Cambridge 
# Structural Database, then it will include bibliographic, chemical, 
# crystal, experimental, refinement or atomic coordinate data resulting 
# from the CCDC's data processing and validation procedures.
#
#######################################################################

data_PENZUE
_symmetry_cell_setting           orthorhombic
_symmetry_space_group_name_H-M   'P c c n'
_symmetry_Int_Tables_number      56
_space_group_name_Hall           '-P 2ab 2ac'
loop_
_symmetry_equiv_pos_site_id
_symmetry_equiv_pos_as_xyz
1 x,y,z
2 1/2-x,1/2-y,z
3 -x,1/2+y,1/2-z
4 1/2+x,-y,1/2-z
5 -x,-y,-z
6 1/2+x,1/2+y,-z
7 x,1/2-y,1/2+z
8 1/2-x,y,1/2+z
_cell_length_a                   9.6220(14)
_cell_length_b                   24.389(4)
_cell_length_c                   8.4590(11)
_cell_angle_alpha                90
_cell_angle_beta                 90
_cell_angle_gamma                90
_cell_volume                     1985.08
loop_
_atom_site_label
_atom_site_type_symbol
_atom_site_fract_x
_atom_site_fract_y
_atom_site_fract_z
Zn1 Zn 0.40448(3) 0.464931(12) 0.22659(3)
P1 P 0.60205(7) 0.56237(3) 0.13446(7)
H1 H 0.6133 0.6063 0.2207
O1 O 0.46326(19) 0.53723(7) 0.1761(2)
O2 O 0.72255(19) 0.52595(7) 0.1799(2)
O3 O 0.60863(18) 0.58164(7) -0.03790(19)
N1 N 0.5108(2) 0.41609(8) 0.3787(2)
C1 C 0.7013(3) 0.38942(11) 0.5419(3)
H2 H 0.7912 0.3975 0.5821
C2 C 0.6374(3) 0.42555(11) 0.4401(3)
H3 H 0.6845 0.4584 0.4121
C3 C 0.4457(3) 0.36947(11) 0.4199(3)
H4 H 0.3561 0.3622 0.3776
C4 C 0.5042(3) 0.33189(11) 0.5212(3)
H5 H 0.4550 0.2993 0.5470
C5 C 0.6351(3) 0.34122(11) 0.5863(3)
C6 C 0.6995(3) 0.29886(11) 0.6922(3)
H6 H 0.6302 0.2863 0.7708
H7 H 0.7787 0.3152 0.7500
C7 C 0.7500 0.2500 0.5952(4)
H8 H 0.8268 0.2624 0.5260
H9 H 0.6732 0.2376 0.5260
Zn1C Zn -0.09552(3) 0.535069(12) 0.27341(3)
Zn1C_2 Zn 0.90448(3) 0.535069(12) 0.27341(3)
Zn1D Zn 0.59552(3) 0.535069(12) -0.22659(3)
Zn1A Zn 1.09552(3) 0.035069(12) 0.22659(3)
Zn1G Zn 0.09552(3) 0.464931(12) 0.72659(3)
P1C P 0.10205(7) 0.43763(3) 0.36554(7)
H1C H 0.1133 0.3937 0.2793
O1C O -0.03674(19) 0.46277(7) 0.3239(2)
O2C O 0.22255(19) 0.47405(7) 0.3201(2)
O2_2 O -0.27745(19) 0.52595(7) 0.1799(2)
O3C O 0.10863(18) 0.41836(7) 0.53790(19)
O3D O 0.39137(18) 0.41836(7) 0.03790(19)
O3G O -0.10863(18) 0.58164(7) 0.46210(19)
N1A N 0.9892(2) 0.08391(8) 0.3787(2)
N1C N 0.0108(2) 0.58391(8) 0.1213(2)
C1A C 0.7987(3) 0.11058(11) 0.5419(3)
H2A H 0.7088 0.1025 0.5821
C2A C 0.8626(3) 0.07445(11) 0.4401(3)
H3A H 0.8155 0.0416 0.4121
C3A C 1.0543(3) 0.13053(11) 0.4199(3)
H4A H 1.1439 0.1378 0.3776
C4A C 0.9958(3) 0.16811(11) 0.5212(3)
H5A H 1.0450 0.2007 0.5470
C5A C 0.8649(3) 0.15878(11) 0.5863(3)
C6A C 0.8005(3) 0.20114(11) 0.6922(3)
H6A H 0.8698 0.2137 0.7708
H7A H 0.7213 0.1848 0.7500
O4 O 0.7500 0.7500 0.6950(3)
H10 H 0.782(8) 0.775(2) 0.751(5)
H10A H 0.718(8) 0.725(2) 0.751(5)
O5 O 0.6126(2) 0.69646(8) 0.9441(3)
H11 H 0.614(3) 0.6626(4) 0.940(3)
H12 H 0.644(4) 0.7095(18) 1.028(3)
loop_
_geom_bond_atom_site_label_1
_geom_bond_atom_site_label_2
_geom_bond_site_symmetry_1
_geom_bond_site_symmetry_2
Zn1 O1 1_555 1_555
P1 H1 1_555 1_555
O1 P1 1_555 1_555
O2 P1 1_555 1_555
O3 P1 1_555 1_555
N1 Zn1 1_555 1_555
C1 H2 1_555 1_555
C2 N1 1_555 1_555
H3 C2 1_555 1_555
C3 N1 1_555 1_555
H4 C3 1_555 1_555
C4 C3 1_555 1_555
H5 C4 1_555 1_555
C5 C1 1_555 1_555
C6 C5 1_555 1_555
H6 C6 1_555 1_555
H7 C6 1_555 1_555
C7 C6 1_555 1_555
H8 C7 1_555 1_555
H9 C7 1_555 1_555
O4 H10 1_555 1_555
O5 H11 1_555 1_555
H12 O5 1_555 1_555
Zn1C O1C 1_555 1_555
Zn1C_2 O2 1_555 1_555
Zn1D O3 1_555 1_555
Zn1A N1A 1_555 1_555
Zn1G O3C 1_555 1_555
P1C H1C 1_555 1_555
O1C P1C 1_555 1_555
O2C Zn1 1_555 1_555
O2_2 Zn1C 1_555 1_555
O3C P1C 1_555 1_555
O3D Zn1 1_555 1_555
O3G Zn1C 1_555 1_555
N1A C2A 1_555 1_555
N1C Zn1C 1_555 1_555
C1A H2A 1_555 1_555
C2A C1A 1_555 1_555
H3A C2A 1_555 1_555
C3A N1A 1_555 1_555
H4A C3A 1_555 1_555
C4A C3A 1_555 1_555
H5A C4A 1_555 1_555
C5A C1A 1_555 1_555
C6A C7 1_555 1_555
H6A C6A 1_555 1_555
H7A C6A 1_555 1_555
H10A O4 1_555 1_555
C1 C2 1_555 1_555
C4 C5 1_555 1_555
P1C O2C 1_555 1_555
C4A C5A 1_555 1_555
C5A C6A 1_555 1_555

#END
