
#######################################################################
#
#                 Cambridge Crystallographic Data Centre
#                                CCDC 
#
#######################################################################
#
# If this CIF has been generated from an entry in the Cambridge 
# Structural Database, then it will include bibliographic, chemical, 
# crystal, experimental, refinement or atomic coordinate data resulting 
# from the CCDC's data processing and validation procedures.
#
#######################################################################

data_PEQWAK
_symmetry_cell_setting           monoclinic
_symmetry_space_group_name_H-M   'P 21/a'
_symmetry_Int_Tables_number      14
_space_group_name_Hall           '-P 2yab'
loop_
_symmetry_equiv_pos_site_id
_symmetry_equiv_pos_as_xyz
1 x,y,z
2 1/2-x,1/2+y,-z
3 -x,-y,-z
4 1/2+x,1/2-y,z
_cell_length_a                   7.535(5)
_cell_length_b                   21.513(5)
_cell_length_c                   10.466(5)
_cell_angle_alpha                90.0
_cell_angle_beta                 96.666(5)
_cell_angle_gamma                90.0
_cell_volume                     1685.07
loop_
_atom_site_label
_atom_site_type_symbol
_atom_site_fract_x
_atom_site_fract_y
_atom_site_fract_z
Mn1 Mn 0.37440(4) 0.237610(17) 0.33259(3)
O1 O 0.1352(2) 0.30368(8) 0.35258(17)
O2 O 0.4016(2) 0.32851(9) 0.44552(19)
O3 O 0.3476(3) 0.19563(9) 0.52101(18)
C1 C 0.3325(4) 0.40451(13) 0.0590(3)
H1 H 0.2469 0.3746 0.0714
C2 C 0.1048(5) 0.1963(2) 0.7956(3)
H2 H 0.054 0.1594 0.8302
H3 H 0.0086 0.2186 0.7456
C3 C 0.3659(6) 0.1274(2) 0.7508(4)
H4 H 0.417 0.1352 0.8387
H5 H 0.4621 0.1281 0.6968
C4 C 0.1743(3) 0.40306(12) 0.4576(3)
C5 C 0.2409(3) 0.34209(12) 0.4169(2)
N1 N 0.2363(3) 0.17704(15) 0.7092(3)
C6 C 0.2830(4) 0.45862(14) -0.0048(3)
H6 H 0.1637 0.4648 -0.036
C7 C 0.5140(3) 0.39411(12) 0.1062(2)
C8 C 0.1800(6) 0.2361(2) 0.9034(4)
H7 H 0.2756 0.2145 0.9534
H8 H 0.0884 0.2458 0.9568
H9 H 0.2249 0.2738 0.8702
C9 C 0.4093(3) 0.50492(13) -0.0240(3)
C10 C 0.2886(4) 0.44053(14) 0.5440(3)
H10 H 0.4037 0.4269 0.5719
C11 C 0.0069(3) 0.42433(12) 0.4137(3)
H11 H -0.0668 0.4004 0.3556
C12 C 0.2312(3) 0.49591(14) 0.5860(3)
H12 H 0.3075 0.5198 0.6424
C13 C -0.0558(3) 0.48215(12) 0.4554(3)
C14 C 0.2411(4) 0.20635(15) 0.5987(3)
H13 H 0.1572 0.2375 0.5781
C15 C 0.6382(3) 0.43838(12) 0.0883(2)
H14 H 0.7573 0.4312 0.1191
O4 O 0.4484(2) 0.29393(9) 0.18095(17)
C16 C 0.2804(7) 0.0655(2) 0.7429(5)
H15 H 0.1905 0.0639 0.8008
H16 H 0.3689 0.0342 0.7662
H17 H 0.2261 0.0583 0.6566
C17 C 0.5657(3) 0.33459(12) 0.1771(2)
O5 O 0.7261(2) 0.33007(8) 0.22582(17)
Mn1B Mn -0.37440(4) 0.762390(17) 0.66741(3)
Mn1C Mn -0.12560(4) 0.262390(17) 0.33259(3)
Mn1C_2 Mn 0.87440(4) 0.262390(17) 0.33259(3)
Mn1A Mn 0.12560(4) 0.737610(17) 0.66741(3)
Mn1B_2 Mn 0.62560(4) 0.762390(17) -0.33259(3)
Mn1A_2 Mn 0.12560(4) 0.737610(17) -0.33259(3)
O1B O -0.1352(2) 0.69632(8) 0.64742(17)
O1C O 0.6352(2) 0.19632(8) 0.35258(17)
O1A O -0.6352(2) 0.80368(8) 0.64742(17)
O2B O -0.4016(2) 0.67149(9) 0.55448(19)
O3B O -0.3476(3) 0.80437(9) 0.47899(18)
C1B C 0.6675(4) 0.59549(13) -0.0590(3)
H1B H 0.7531 0.6254 -0.0714
C2B C -0.1048(5) 0.8037(2) 0.2044(3)
H2B H -0.054 0.8406 0.1698
H3B H -0.0086 0.7814 0.2544
C3B C -0.3659(6) 0.8726(2) 0.2492(4)
H4B H -0.417 0.8648 0.1613
H5B H -0.4621 0.8719 0.3032
C4B C -0.1743(3) 0.59694(12) 0.5424(3)
C5B C -0.2409(3) 0.65791(12) 0.5831(2)
N1B N -0.2363(3) 0.82296(15) 0.2908(3)
C6B C 0.7170(4) 0.54138(14) 0.0048(3)
H6B H 0.8363 0.5352 0.036
C7B C 0.4860(3) 0.60589(12) -0.1062(2)
C8B C -0.1800(6) 0.7639(2) 0.0966(4)
H7B H -0.2756 0.7855 0.0466
H8B H -0.0884 0.7542 0.0432
H9B H -0.2249 0.7262 0.1298
C9B C 0.5907(3) 0.49508(13) 0.0240(3)
C10B C -0.2886(4) 0.55947(14) 0.4560(3)
H10B H -0.4037 0.5731 0.4281
C11B C -0.0069(3) 0.57567(12) 0.5863(3)
H11B H 0.0668 0.5996 0.6444
C12B C -0.2312(3) 0.50409(14) 0.4140(3)
H12B H -0.3075 0.4802 0.3576
C13B C 0.0558(3) 0.51785(12) 0.5446(3)
C14B C -0.2411(4) 0.79365(15) 0.4013(3)
H13B H -0.1572 0.7625 0.4219
C15B C 0.3618(3) 0.56162(12) -0.0883(2)
H14B H 0.2427 0.5688 -0.1191
O4B O 0.5516(2) 0.70607(9) -0.18095(17)
O4B_2 O -0.4484(2) 0.70607(9) 0.81905(17)
C16B C -0.2804(7) 0.9345(2) 0.2571(5)
H15B H -0.1905 0.9361 0.1992
H16B H -0.3689 0.9658 0.2338
H17B H -0.2261 0.9417 0.3434
C17B C 0.4343(3) 0.66541(12) -0.1771(2)
O5B O 0.2739(2) 0.66993(8) -0.22582(17)
O5C O 0.2261(2) 0.16993(8) 0.22582(17)
O5A O -0.2261(2) 0.83007(8) 0.77418(17)
loop_
_geom_bond_atom_site_label_1
_geom_bond_atom_site_label_2
_geom_bond_site_symmetry_1
_geom_bond_site_symmetry_2
Mn1 O1 1_555 1_555
O1 C5 1_555 1_555
O2 Mn1 1_555 1_555
O3 Mn1 1_555 1_555
C1 H1 1_555 1_555
C2 H2 1_555 1_555
H3 C2 1_555 1_555
C3 H4 1_555 1_555
H5 C3 1_555 1_555
C4 C5 1_555 1_555
C5 O2 1_555 1_555
N1 C2 1_555 1_555
C6 C1 1_555 1_555
H6 C6 1_555 1_555
C7 C1 1_555 1_555
C8 C2 1_555 1_555
H7 C8 1_555 1_555
H8 C8 1_555 1_555
H9 C8 1_555 1_555
C9 C6 1_555 1_555
C10 C4 1_555 1_555
H10 C10 1_555 1_555
C11 C4 1_555 1_555
H11 C11 1_555 1_555
C12 C10 1_555 1_555
H12 C12 1_555 1_555
C13 C11 1_555 1_555
C14 O3 1_555 1_555
H13 C14 1_555 1_555
C15 C7 1_555 1_555
H14 C15 1_555 1_555
O4 Mn1 1_555 1_555
C16 C3 1_555 1_555
H15 C16 1_555 1_555
H16 C16 1_555 1_555
H17 C16 1_555 1_555
C17 C7 1_555 1_555
O5 C17 1_555 1_555
Mn1B O1B 1_555 1_555
Mn1C O1 1_555 1_555
Mn1C_2 O5 1_555 1_555
Mn1A O1B 1_555 1_555
Mn1B_2 O4B 1_555 1_555
Mn1A_2 O5B 1_555 1_555
O1B C5B 1_555 1_555
O1C Mn1 1_555 1_555
O1A Mn1B 1_555 1_555
O2B Mn1B 1_555 1_555
O3B Mn1B 1_555 1_555
C1B H1B 1_555 1_555
C2B H2B 1_555 1_555
H3B C2B 1_555 1_555
C3B H4B 1_555 1_555
H5B C3B 1_555 1_555
C4B C5B 1_555 1_555
C5B O2B 1_555 1_555
N1B C2B 1_555 1_555
C6B C1B 1_555 1_555
H6B C6B 1_555 1_555
C7B C1B 1_555 1_555
C8B C2B 1_555 1_555
H7B C8B 1_555 1_555
H8B C8B 1_555 1_555
H9B C8B 1_555 1_555
C9B C9 1_555 1_555
C10B C4B 1_555 1_555
H10B C10B 1_555 1_555
C11B C4B 1_555 1_555
H11B C11B 1_555 1_555
C12B C13 1_555 1_555
H12B C12B 1_555 1_555
C13B C12 1_555 1_555
C14B O3B 1_555 1_555
H13B C14B 1_555 1_555
C15B C9 1_555 1_555
H14B C15B 1_555 1_555
O4B C17B 1_555 1_555
O4B_2 Mn1B 1_555 1_555
C16B C3B 1_555 1_555
H15B C16B 1_555 1_555
H16B C16B 1_555 1_555
H17B C16B 1_555 1_555
C17B C7B 1_555 1_555
O5B C17B 1_555 1_555
O5C Mn1 1_555 1_555
O5A Mn1B 1_555 1_555
C3 N1 1_555 1_555
N1 C14 1_555 1_555
C13 C13B 1_555 1_555
C15 C9B 1_555 1_555
O4 C17 1_555 1_555
Mn1C_2 O1C 1_555 1_555
C3B N1B 1_555 1_555
N1B C14B 1_555 1_555
C6B C9B 1_555 1_555
C7B C15B 1_555 1_555
C10B C12B 1_555 1_555
C11B C13B 1_555 1_555

#END
