
#######################################################################
#
#                 Cambridge Crystallographic Data Centre
#                                CCDC 
#
#######################################################################
#
# If this CIF has been generated from an entry in the Cambridge 
# Structural Database, then it will include bibliographic, chemical, 
# crystal, experimental, refinement or atomic coordinate data resulting 
# from the CCDC's data processing and validation procedures.
#
#######################################################################

data_PEVLIN
_symmetry_cell_setting           monoclinic
_symmetry_space_group_name_H-M   'C c'
_symmetry_Int_Tables_number      9
_space_group_name_Hall           'C -2yc'
loop_
_symmetry_equiv_pos_site_id
_symmetry_equiv_pos_as_xyz
1 x,y,z
2 x,-y,1/2+z
3 1/2+x,1/2+y,z
4 1/2+x,1/2-y,1/2+z
_cell_length_a                   19.808(4)
_cell_length_b                   9.989(2)
_cell_length_c                   6.9059(14)
_cell_angle_alpha                90
_cell_angle_beta                 106.03(3)
_cell_angle_gamma                90
_cell_volume                     1313.29
loop_
_atom_site_label
_atom_site_type_symbol
_atom_site_fract_x
_atom_site_fract_y
_atom_site_fract_z
Nd1 Nd 0.85190(4) 0.760395(18) 0.55764(8)
C1 C 0.6788(3) 0.6582(5) 0.5742(8)
C2 C 0.6988(2) 0.5242(5) 0.5960(8)
C3 C 0.6469(2) 0.4277(5) 0.5220(7)
H1 H 0.6586 0.3375 0.5403
C4 C 0.5785(2) 0.4628(5) 0.4221(8)
H2 H 0.5453 0.3975 0.3668
C5 C 0.5602(2) 0.5977(5) 0.4058(8)
C6 C 0.6101(2) 0.6963(5) 0.4814(8)
H3 H 0.5976 0.7863 0.4700
C7 C 0.7100(2) 0.8767(4) 0.7215(8)
H4 H 0.6813 0.8603 0.8124
H5 H 0.6832 0.9306 0.6097
C8 C 0.7774(3) 0.9481(5) 0.8310(8)
C9 C 0.7726(3) 0.4768(5) 0.7020(7)
C10 C 0.4868(3) 0.6423(5) 0.2978(8)
O1 O 0.7305(2) 0.7524(3) 0.6497(6)
O2 O 0.83468(18) 0.8893(4) 0.8435(6)
O3 O 0.77042(19) 1.0594(4) 0.8998(6)
O4 O 0.82439(18) 0.5558(3) 0.7154(5)
O5 O 0.77921(18) 0.3615(3) 0.7743(5)
O6 O 0.44885(18) 0.5676(4) 0.1635(6)
O7 O 0.4650(2) 0.7533(3) 0.3402(6)
O8 O 0.89379(19) 0.8277(4) 0.2608(6)
H6 H 0.8707 0.8080 0.1418
H7 H 0.9123 0.9045 0.2672
O9 O 0.92993(18) 0.5811(3) 0.4837(6)
H8 H 0.8966 0.5337 0.4033
H9 H 0.9623 0.5284 0.5551
Nd1A Nd 0.85190(4) 0.239605(18) 1.05764(8)
Nd1A_2 Nd 0.85190(4) 1.239605(18) 1.05764(8)
Nd1C Nd 0.35190(4) 0.739605(18) 0.05764(8)
O3A O 0.77042(19) 0.9406(4) 0.3998(6)
O5A O 0.77921(18) 0.6385(3) 0.2743(5)
O6C O 0.94885(18) 0.9324(4) 0.6635(6)
O7C O 0.9650(2) 0.7467(3) 0.8402(6)
O10 O 1.0151(2) 0.3913(4) 0.7139(6)
loop_
_geom_bond_atom_site_label_1
_geom_bond_atom_site_label_2
_geom_bond_site_symmetry_1
_geom_bond_site_symmetry_2
Nd1 O1 1_555 1_555
C1 C2 1_555 1_555
C2 C3 1_555 1_555
C3 H1 1_555 1_555
C4 C3 1_555 1_555
H2 C4 1_555 1_555
C5 C4 1_555 1_555
C6 C1 1_555 1_555
H3 C6 1_555 1_555
C7 H4 1_555 1_555
H5 C7 1_555 1_555
C8 C7 1_555 1_555
C9 C2 1_555 1_555
C10 C5 1_555 1_555
O1 C1 1_555 1_555
O2 Nd1 1_555 1_555
O3 C8 1_555 1_555
O4 Nd1 1_555 1_555
O5 C9 1_555 1_555
O6 C10 1_555 1_555
O7 C10 1_555 1_555
O8 Nd1 1_555 1_555
H6 O8 1_555 1_555
H7 O8 1_555 1_555
O9 Nd1 1_555 1_555
H8 O9 1_555 1_555
H9 O9 1_555 1_555
Nd1A O5 1_555 1_555
Nd1A_2 O3 1_555 1_555
Nd1C O6 1_555 1_555
O3A Nd1 1_555 1_555
O5A Nd1 1_555 1_555
O6C Nd1 1_555 1_555
O7C Nd1 1_555 1_555
C5 C6 1_555 1_555
C7 O1 1_555 1_555
C8 O2 1_555 1_555
C9 O4 1_555 1_555
O7 Nd1C 1_555 1_555

#END
