
#######################################################################
#
#                 Cambridge Crystallographic Data Centre
#                                CCDC 
#
#######################################################################
#
# If this CIF has been generated from an entry in the Cambridge 
# Structural Database, then it will include bibliographic, chemical, 
# crystal, experimental, refinement or atomic coordinate data resulting 
# from the CCDC's data processing and validation procedures.
#
#######################################################################

data_PEVPUD
_symmetry_cell_setting           cubic
_symmetry_space_group_name_H-M   'F -4 3 m'
_symmetry_Int_Tables_number      216
_space_group_name_Hall           'F -4 2 3'
loop_
_symmetry_equiv_pos_site_id
_symmetry_equiv_pos_as_xyz
1 x,y,z
2 -x,-y,z
3 -x,y,-z
4 x,-y,-z
5 z,x,y
6 z,-x,-y
7 -z,-x,y
8 -z,x,-y
9 y,z,x
10 -y,z,-x
11 y,-z,-x
12 -y,-z,x
13 y,x,z
14 -y,-x,z
15 y,-x,-z
16 -y,x,-z
17 x,z,y
18 -x,z,-y
19 -x,-z,y
20 x,-z,-y
21 z,y,x
22 z,-y,-x
23 -z,y,-x
24 -z,-y,x
25 x,1/2+y,1/2+z
26 -x,1/2-y,1/2+z
27 -x,1/2+y,1/2-z
28 x,1/2-y,1/2-z
29 z,1/2+x,1/2+y
30 z,1/2-x,1/2-y
31 -z,1/2-x,1/2+y
32 -z,1/2+x,1/2-y
33 y,1/2+z,1/2+x
34 -y,1/2+z,1/2-x
35 y,1/2-z,1/2-x
36 -y,1/2-z,1/2+x
37 y,1/2+x,1/2+z
38 -y,1/2-x,1/2+z
39 y,1/2-x,1/2-z
40 -y,1/2+x,1/2-z
41 x,1/2+z,1/2+y
42 -x,1/2+z,1/2-y
43 -x,1/2-z,1/2+y
44 x,1/2-z,1/2-y
45 z,1/2+y,1/2+x
46 z,1/2-y,1/2-x
47 -z,1/2+y,1/2-x
48 -z,1/2-y,1/2+x
49 1/2+x,y,1/2+z
50 1/2-x,-y,1/2+z
51 1/2-x,y,1/2-z
52 1/2+x,-y,1/2-z
53 1/2+z,x,1/2+y
54 1/2+z,-x,1/2-y
55 1/2-z,-x,1/2+y
56 1/2-z,x,1/2-y
57 1/2+y,z,1/2+x
58 1/2-y,z,1/2-x
59 1/2+y,-z,1/2-x
60 1/2-y,-z,1/2+x
61 1/2+y,x,1/2+z
62 1/2-y,-x,1/2+z
63 1/2+y,-x,1/2-z
64 1/2-y,x,1/2-z
65 1/2+x,z,1/2+y
66 1/2-x,z,1/2-y
67 1/2-x,-z,1/2+y
68 1/2+x,-z,1/2-y
69 1/2+z,y,1/2+x
70 1/2+z,-y,1/2-x
71 1/2-z,y,1/2-x
72 1/2-z,-y,1/2+x
73 1/2+x,1/2+y,z
74 1/2-x,1/2-y,z
75 1/2-x,1/2+y,-z
76 1/2+x,1/2-y,-z
77 1/2+z,1/2+x,y
78 1/2+z,1/2-x,-y
79 1/2-z,1/2-x,y
80 1/2-z,1/2+x,-y
81 1/2+y,1/2+z,x
82 1/2-y,1/2+z,-x
83 1/2+y,1/2-z,-x
84 1/2-y,1/2-z,x
85 1/2+y,1/2+x,z
86 1/2-y,1/2-x,z
87 1/2+y,1/2-x,-z
88 1/2-y,1/2+x,-z
89 1/2+x,1/2+z,y
90 1/2-x,1/2+z,-y
91 1/2-x,1/2-z,y
92 1/2+x,1/2-z,-y
93 1/2+z,1/2+y,x
94 1/2+z,1/2-y,-x
95 1/2-z,1/2+y,-x
96 1/2-z,1/2-y,x
_cell_length_a                   25.741(3)
_cell_length_b                   25.741(3)
_cell_length_c                   25.741(3)
_cell_angle_alpha                90
_cell_angle_beta                 90
_cell_angle_gamma                90
_cell_volume                     17056
loop_
_atom_site_label
_atom_site_type_symbol
_atom_site_fract_x
_atom_site_fract_y
_atom_site_fract_z
Zn1 Zn 0.95662(7) 0.45662(7) 0.04338(7)
Zn2 Zn 0.95657(7) 0.45657(7) 0.45657(7)
O1 O 0.9683(5) 0.4683(5) 0.3849(5)
O2 O 1.0000 0.5000 0.5000
O3 O 0.9708(4) 0.4708(4) 0.1169(4)
O4 O 1.0000 0.5000 0.0000
C1 C 1.0000 0.5000 0.1951(11)
C2 C 0.9705(8) 0.4705(8) 0.2285(7)
C3 C 1.0000 0.5000 0.2993(12)
C4 C 0.9677(6) 0.4677(6) 0.2765(5)
H1 H 0.9455 0.4455 0.2942
C5 C 1.0000 0.5000 0.3607(16)
C6 C 1.0000 0.5000 0.1383(9)
O1A O 1.0317(5) 0.5317(5) 0.3849(5)
O3A O 1.0292(4) 0.5292(4) 0.1169(4)
C2A C 1.0295(8) 0.5295(8) 0.2285(7)
C4A C 1.0323(6) 0.5323(6) 0.2765(5)
H1A H 1.0545 0.5545 0.2942
Zn1A Zn 1.04338(7) 0.54338(7) 0.04338(7)
Zn2A Zn 1.04343(7) 0.54343(7) 0.45657(7)
Zn1B Zn 1.04338(7) 0.45662(7) -0.04338(7)
O1B O 1.0317(5) 0.4683(5) -0.3849(5)
O3B O 1.0292(4) 0.4708(4) -0.1169(4)
C1B C 1.0000 0.5000 -0.1951(11)
C2B C 1.0295(8) 0.4705(8) -0.2285(7)
C3B C 1.0000 0.5000 -0.2993(12)
C4B C 1.0323(6) 0.4677(6) -0.2765(5)
H1B H 1.0545 0.4455 -0.2942
C5B C 1.0000 0.5000 -0.3607(16)
C6B C 1.0000 0.5000 -0.1383(9)
O1C O 0.9683(5) 0.5317(5) -0.3849(5)
O3C O 0.9708(4) 0.5292(4) -0.1169(4)
C2C C 0.9705(8) 0.5295(8) -0.2285(7)
C4C C 0.9677(6) 0.5323(6) -0.2765(5)
H1C H 0.9455 0.5545 -0.2942
Zn1C Zn 0.95662(7) 0.54338(7) -0.04338(7)
O1T O 1.3849(5) 0.4683(5) -0.0317(5)
O3T O 1.1169(4) 0.4708(4) -0.0292(4)
C1T C 1.1951(11) 0.5000 0.0000
C2T C 1.2285(7) 0.4705(8) -0.0295(8)
C3T C 1.2993(12) 0.5000 0.0000
C4T C 1.2765(5) 0.4677(6) -0.0323(6)
H1T H 1.2942 0.4455 -0.0545
C5T C 1.3607(16) 0.5000 0.0000
C6T C 1.1383(9) 0.5000 0.0000
O1U O 1.3849(5) 0.5317(5) 0.0317(5)
O3U O 1.1169(4) 0.5292(4) 0.0292(4)
C2U C 1.2285(7) 0.5295(8) 0.0295(8)
C4U C 1.2765(5) 0.5323(6) 0.0323(6)
H1U H 1.2942 0.5545 0.0545
Zn2I Zn 0.54343(7) 0.45657(7) 0.04343(7)
O1V O 0.6151(5) 0.4683(5) 0.0317(5)
O3V O 0.8831(4) 0.4708(4) 0.0292(4)
C1V C 0.8049(11) 0.5000 0.0000
C2V C 0.7715(7) 0.4705(8) 0.0295(8)
C3V C 0.7007(12) 0.5000 0.0000
C4V C 0.7235(5) 0.4677(6) 0.0323(6)
H1V H 0.7058 0.4455 0.0545
C5V C 0.6393(16) 0.5000 0.0000
C6V C 0.8617(9) 0.5000 0.0000
O1W O 0.6151(5) 0.5317(5) -0.0317(5)
O3W O 0.8831(4) 0.5292(4) -0.0292(4)
C2W C 0.7715(7) 0.5295(8) -0.0295(8)
C4W C 0.7235(5) 0.5323(6) -0.0323(6)
H1W H 0.7058 0.5545 -0.0545
O1NA O 0.9683(5) 0.8849(5) -0.0317(5)
O3NA O 0.9708(4) 0.6169(4) -0.0292(4)
C1NA C 1.0000 0.6951(11) 0.0000
C2NA C 0.9705(8) 0.7285(7) -0.0295(8)
C3NA C 1.0000 0.7993(12) 0.0000
C4NA C 0.9677(6) 0.7765(5) -0.0323(6)
H1NA H 0.9455 0.7942 -0.0545
C5NA C 1.0000 0.8607(16) 0.0000
C6NA C 1.0000 0.6383(9) 0.0000
O1OA O 1.0317(5) 0.8849(5) 0.0317(5)
O3OA O 1.0292(4) 0.6169(4) 0.0292(4)
C2OA C 1.0295(8) 0.7285(7) 0.0295(8)
C4OA C 1.0323(6) 0.7765(5) 0.0323(6)
H1OA H 1.0545 0.7942 0.0545
O1PA O 1.0317(5) 0.1151(5) -0.0317(5)
O3PA O 1.0292(4) 0.3831(4) -0.0292(4)
C1PA C 1.0000 0.3049(11) 0.0000
C2PA C 1.0295(8) 0.2715(7) -0.0295(8)
C3PA C 1.0000 0.2007(12) 0.0000
C4PA C 1.0323(6) 0.2235(5) -0.0323(6)
H1PA H 1.0545 0.2058 -0.0545
C5PA C 1.0000 0.1393(16) 0.0000
C6PA C 1.0000 0.3617(9) 0.0000
O1QA O 0.9683(5) 0.1151(5) 0.0317(5)
O3QA O 0.9708(4) 0.3831(4) 0.0292(4)
C2QA C 0.9705(8) 0.2715(7) 0.0295(8)
C4QA C 0.9677(6) 0.2235(5) 0.0323(6)
H1QA H 0.9455 0.2058 0.0545
Zn2AA Zn 0.95657(7) 0.04343(7) 0.04343(7)
Zn2B Zn 1.04343(7) 0.45657(7) -0.45657(7)
Zn2B_2 Zn 1.04343(7) 0.45657(7) 0.54343(7)
Zn2C Zn 0.95657(7) 0.54343(7) -0.45657(7)
Zn2C_2 Zn 0.95657(7) 0.54343(7) 0.54343(7)
Zn2H Zn 1.45657(7) 0.45657(7) -0.04343(7)
Zn2J Zn 1.45657(7) 0.54343(7) 0.04343(7)
Zn2K Zn 0.54343(7) 0.54343(7) -0.04343(7)
Zn2X Zn 0.95657(7) 0.95657(7) -0.04343(7)
Zn2Y Zn 1.04343(7) 0.04343(7) -0.04343(7)
Zn2Z Zn 1.04343(7) 0.95657(7) 0.04343(7)
O1I O 0.5317(5) 0.3849(5) 0.0317(5)
O1P O 0.9683(5) 0.3849(5) 0.4683(5)
O1R O 1.0317(5) 0.6151(5) 0.4683(5)
O1AA O 0.9683(5) 0.0317(5) 0.1151(5)
O1MA O 0.5317(5) 0.4683(5) 0.1151(5)
O1AB O 0.8849(5) 0.0317(5) 0.0317(5)
O1PB O 0.8849(5) 0.4683(5) 0.4683(5)
O1SB O 1.1151(5) 0.5317(5) 0.4683(5)
O2H O 0.5000 0.5000 0.0000
O2X O 1.0000 0.0000 0.0000
loop_
_geom_bond_atom_site_label_1
_geom_bond_atom_site_label_2
_geom_bond_site_symmetry_1
_geom_bond_site_symmetry_2
Zn1 O3 1_555 1_555
Zn2 O1 1_555 1_555
O1 C5 1_555 1_555
O2 Zn2 1_555 1_555
O3 C6 1_555 1_555
O4 Zn1 1_555 1_555
C1 C2 1_555 1_555
C2 C4 1_555 1_555
C3 C4 1_555 1_555
C4 H1 1_555 1_555
C5 C3 1_555 1_555
C6 C1 1_555 1_555
O1A C5 1_555 1_555
O3A C6 1_555 1_555
C2A C1 1_555 1_555
C4A C3 1_555 1_555
H1A C4A 1_555 1_555
Zn1A O4 1_555 1_555
Zn2A O2 1_555 1_555
Zn1B O4 1_555 1_555
O1B C5B 1_555 1_555
O3B Zn1B 1_555 1_555
C1B C2B 1_555 1_555
C2B C4B 1_555 1_555
C3B C4B 1_555 1_555
C4B H1B 1_555 1_555
C5B C3B 1_555 1_555
C6B O3B 1_555 1_555
O1C C5B 1_555 1_555
O3C C6B 1_555 1_555
C2C C1B 1_555 1_555
C4C C3B 1_555 1_555
H1C C4C 1_555 1_555
Zn1C O4 1_555 1_555
O1T C5T 1_555 1_555
O3T Zn1B 1_555 1_555
C1T C2T 1_555 1_555
C2T C4T 1_555 1_555
C3T C4T 1_555 1_555
C4T H1T 1_555 1_555
C5T C3T 1_555 1_555
C6T O3T 1_555 1_555
O1U C5T 1_555 1_555
O3U Zn1A 1_555 1_555
C2U C1T 1_555 1_555
C4U C3T 1_555 1_555
H1U C4U 1_555 1_555
Zn2I O1V 1_555 1_555
O1V C5V 1_555 1_555
O3V Zn1 1_555 1_555
C1V C2V 1_555 1_555
C2V C4V 1_555 1_555
C3V C4V 1_555 1_555
C4V H1V 1_555 1_555
C5V C3V 1_555 1_555
C6V O3V 1_555 1_555
O1W C5V 1_555 1_555
O3W Zn1C 1_555 1_555
C2W C1V 1_555 1_555
C4W C3V 1_555 1_555
H1W C4W 1_555 1_555
O1NA C5NA 1_555 1_555
O3NA Zn1C 1_555 1_555
C1NA C2NA 1_555 1_555
C2NA C4NA 1_555 1_555
C3NA C4NA 1_555 1_555
C4NA H1NA 1_555 1_555
C5NA C3NA 1_555 1_555
C6NA O3NA 1_555 1_555
O1OA C5NA 1_555 1_555
O3OA Zn1A 1_555 1_555
C2OA C1NA 1_555 1_555
C4OA C3NA 1_555 1_555
H1OA C4OA 1_555 1_555
O1PA C5PA 1_555 1_555
O3PA Zn1B 1_555 1_555
C1PA C2PA 1_555 1_555
C2PA C4PA 1_555 1_555
C3PA C4PA 1_555 1_555
C4PA H1PA 1_555 1_555
C5PA C3PA 1_555 1_555
C6PA O3PA 1_555 1_555
O1QA C5PA 1_555 1_555
O3QA Zn1 1_555 1_555
C2QA C1PA 1_555 1_555
C4QA C3PA 1_555 1_555
H1QA C4QA 1_555 1_555
Zn2AA O1QA 1_555 1_555
Zn2B O1B 1_555 1_555
Zn2B_2 O2 1_555 1_555
Zn2C O1C 1_555 1_555
Zn2C_2 O2 1_555 1_555
Zn2H O1T 1_555 1_555
Zn2J O1U 1_555 1_555
Zn2K O1W 1_555 1_555
Zn2X O1NA 1_555 1_555
Zn2Y O1PA 1_555 1_555
Zn2Z O1OA 1_555 1_555
O1I Zn2I 1_555 1_555
O1P Zn2 1_555 1_555
O1R Zn2A 1_555 1_555
O1AA Zn2AA 1_555 1_555
O1MA Zn2I 1_555 1_555
O1AB Zn2AA 1_555 1_555
O1PB Zn2 1_555 1_555
O1SB Zn2A 1_555 1_555
O2H Zn2I 1_555 1_555
O2X Zn2AA 1_555 1_555
O1A Zn2A 1_555 1_555
O3A Zn1A 1_555 1_555
C2A C4A 1_555 1_555
C1B C6B 1_555 1_555
O3C Zn1C 1_555 1_555
C2C C4C 1_555 1_555
C1T C6T 1_555 1_555
C6T O3U 1_555 1_555
C2U C4U 1_555 1_555
C1V C6V 1_555 1_555
C6V O3W 1_555 1_555
C2W C4W 1_555 1_555
C1NA C6NA 1_555 1_555
C6NA O3OA 1_555 1_555
C2OA C4OA 1_555 1_555
C1PA C6PA 1_555 1_555
C6PA O3QA 1_555 1_555
C2QA C4QA 1_555 1_555
Zn2K O2H 1_555 1_555
Zn2Y O2X 1_555 1_555

#END
