
#######################################################################
#
#                 Cambridge Crystallographic Data Centre
#                                CCDC 
#
#######################################################################
#
# If this CIF has been generated from an entry in the Cambridge 
# Structural Database, then it will include bibliographic, chemical, 
# crystal, experimental, refinement or atomic coordinate data resulting 
# from the CCDC's data processing and validation procedures.
#
#######################################################################

data_PEVQAK
_symmetry_cell_setting           cubic
_symmetry_space_group_name_H-M   'F -4 3 m'
_symmetry_Int_Tables_number      216
_space_group_name_Hall           'F -4 2 3'
loop_
_symmetry_equiv_pos_site_id
_symmetry_equiv_pos_as_xyz
1 x,y,z
2 x,-y,-z
3 -x,-y,z
4 -x,y,-z
5 y,-x,-z
6 -y,-x,z
7 -y,x,-z
8 y,x,z
9 y,z,x
10 -y,-z,x
11 y,-z,-x
12 -y,z,-x
13 z,-y,-x
14 z,y,x
15 -z,y,-x
16 -z,-y,x
17 z,x,y
18 -z,x,-y
19 -z,-x,y
20 z,-x,-y
21 x,z,y
22 x,-z,-y
23 -x,z,-y
24 -x,-z,y
25 x,1/2+y,1/2+z
26 x,1/2-y,1/2-z
27 -x,1/2-y,1/2+z
28 -x,1/2+y,1/2-z
29 y,1/2-x,1/2-z
30 -y,1/2-x,1/2+z
31 -y,1/2+x,1/2-z
32 y,1/2+x,1/2+z
33 y,1/2+z,1/2+x
34 -y,1/2-z,1/2+x
35 y,1/2-z,1/2-x
36 -y,1/2+z,1/2-x
37 z,1/2-y,1/2-x
38 z,1/2+y,1/2+x
39 -z,1/2+y,1/2-x
40 -z,1/2-y,1/2+x
41 z,1/2+x,1/2+y
42 -z,1/2+x,1/2-y
43 -z,1/2-x,1/2+y
44 z,1/2-x,1/2-y
45 x,1/2+z,1/2+y
46 x,1/2-z,1/2-y
47 -x,1/2+z,1/2-y
48 -x,1/2-z,1/2+y
49 1/2+x,y,1/2+z
50 1/2+x,-y,1/2-z
51 1/2-x,-y,1/2+z
52 1/2-x,y,1/2-z
53 1/2+y,-x,1/2-z
54 1/2-y,-x,1/2+z
55 1/2-y,x,1/2-z
56 1/2+y,x,1/2+z
57 1/2+y,z,1/2+x
58 1/2-y,-z,1/2+x
59 1/2+y,-z,1/2-x
60 1/2-y,z,1/2-x
61 1/2+z,-y,1/2-x
62 1/2+z,y,1/2+x
63 1/2-z,y,1/2-x
64 1/2-z,-y,1/2+x
65 1/2+z,x,1/2+y
66 1/2-z,x,1/2-y
67 1/2-z,-x,1/2+y
68 1/2+z,-x,1/2-y
69 1/2+x,z,1/2+y
70 1/2+x,-z,1/2-y
71 1/2-x,z,1/2-y
72 1/2-x,-z,1/2+y
73 1/2+x,1/2+y,z
74 1/2+x,1/2-y,-z
75 1/2-x,1/2-y,z
76 1/2-x,1/2+y,-z
77 1/2+y,1/2-x,-z
78 1/2-y,1/2-x,z
79 1/2-y,1/2+x,-z
80 1/2+y,1/2+x,z
81 1/2+y,1/2+z,x
82 1/2-y,1/2-z,x
83 1/2+y,1/2-z,-x
84 1/2-y,1/2+z,-x
85 1/2+z,1/2-y,-x
86 1/2+z,1/2+y,x
87 1/2-z,1/2+y,-x
88 1/2-z,1/2-y,x
89 1/2+z,1/2+x,y
90 1/2-z,1/2+x,-y
91 1/2-z,1/2-x,y
92 1/2+z,1/2-x,-y
93 1/2+x,1/2+z,y
94 1/2+x,1/2-z,-y
95 1/2-x,1/2+z,-y
96 1/2-x,1/2-z,y
_cell_length_a                   25.6341(6)
_cell_length_b                   25.6341(6)
_cell_length_c                   25.6341(6)
_cell_angle_alpha                90
_cell_angle_beta                 90
_cell_angle_gamma                90
_cell_volume                     16844.3
loop_
_atom_site_label
_atom_site_type_symbol
_atom_site_fract_x
_atom_site_fract_y
_atom_site_fract_z
O1 O 0.0000 0.5000 0.0000
O2 O 0.0000 0.5000 0.5000
O3 O 0.0304(4) 0.4696(4) 0.3855(3)
O4 O 0.0302(3) 0.4698(3) 0.1167(4)
C1 C 0.0000 0.5000 0.3635(6)
C2 C 0.0000 0.5000 0.2995(6)
C3 C 0.0317(13) 0.4683(13) 0.2750(6)
C4 C 0.0000 0.5000 0.1416(6)
C5 C 0.0000 0.5000 0.1921(9)
C6 C 0.0306(4) 0.4694(4) 0.2244(5)
H1 H 0.0534 0.4466 0.2077
Zn1 Zn 0.04333(5) 0.45667(5) 0.45667(5)
Zn2 Zn 0.04332(5) 0.45668(5) 0.04332(5)
O3B O -0.0304(4) 0.5304(4) 0.3855(3)
O4B O -0.0302(3) 0.5302(3) 0.1167(4)
C3B C -0.0317(13) 0.5317(13) 0.2750(6)
C6B C -0.0306(4) 0.5306(4) 0.2244(5)
H1B H -0.0534 0.5534 0.2077
O3A O 0.0304(4) 0.5304(4) -0.3855(3)
O4A O 0.0302(3) 0.5302(3) -0.1167(4)
C1A C 0.0000 0.5000 -0.3635(6)
C2A C 0.0000 0.5000 -0.2995(6)
C3A C 0.0317(13) 0.5317(13) -0.2750(6)
C4A C 0.0000 0.5000 -0.1416(6)
C5A C 0.0000 0.5000 -0.1921(9)
C6A C 0.0306(4) 0.5306(4) -0.2244(5)
H1A H 0.0534 0.5534 -0.2077
Zn2A Zn 0.04332(5) 0.54332(5) -0.04332(5)
O3C O -0.0304(4) 0.4696(4) -0.3855(3)
O4C O -0.0302(3) 0.4698(3) -0.1167(4)
C3C C -0.0317(13) 0.4683(13) -0.2750(6)
C6C C -0.0306(4) 0.4694(4) -0.2244(5)
H1C H -0.0534 0.4466 -0.2077
Zn1B Zn -0.04333(5) 0.54333(5) 0.45667(5)
Zn2B Zn -0.04332(5) 0.54332(5) 0.04332(5)
Zn2C Zn -0.04332(5) 0.45668(5) -0.04332(5)
O3L O 0.3855(3) 0.5304(4) -0.0304(4)
O4L O 0.1167(4) 0.5302(3) -0.0302(3)
C1L C 0.3635(6) 0.5000 0.0000
C2L C 0.2995(6) 0.5000 0.0000
C3L C 0.2750(6) 0.5317(13) -0.0317(13)
C4L C 0.1416(6) 0.5000 0.0000
C5L C 0.1921(9) 0.5000 0.0000
C6L C 0.2244(5) 0.5306(4) -0.0306(4)
H1L H 0.2077 0.5534 -0.0534
O3M O 0.3855(3) 0.4696(4) 0.0304(4)
O4M O 0.1167(4) 0.4698(3) 0.0302(3)
C3M C 0.2750(6) 0.4683(13) 0.0317(13)
C6M C 0.2244(5) 0.4694(4) 0.0306(4)
H1M H 0.2077 0.4466 0.0534
Zn1H Zn 0.45667(5) 0.45667(5) 0.04333(5)
O3N O -0.3855(3) 0.4696(4) -0.0304(4)
O4N O -0.1167(4) 0.4698(3) -0.0302(3)
C1N C -0.3635(6) 0.5000 0.0000
C2N C -0.2995(6) 0.5000 0.0000
C3N C -0.2750(6) 0.4683(13) -0.0317(13)
C4N C -0.1416(6) 0.5000 0.0000
C5N C -0.1921(9) 0.5000 0.0000
C6N C -0.2244(5) 0.4694(4) -0.0306(4)
H1N H -0.2077 0.4466 -0.0534
O3O O -0.3855(3) 0.5304(4) 0.0304(4)
O4O O -0.1167(4) 0.5302(3) 0.0302(3)
C3O C -0.2750(6) 0.5317(13) 0.0317(13)
C6O C -0.2244(5) 0.5306(4) 0.0306(4)
H1O H -0.2077 0.5534 0.0534
O3RA O 0.0304(4) 0.8855(3) -0.0304(4)
O4RA O 0.0302(3) 0.6167(4) -0.0302(3)
C1RA C 0.0000 0.8635(6) 0.0000
C2RA C 0.0000 0.7995(6) 0.0000
C3RA C 0.0317(13) 0.7750(6) -0.0317(13)
C4RA C 0.0000 0.6416(6) 0.0000
C5RA C 0.0000 0.6921(9) 0.0000
C6RA C 0.0306(4) 0.7244(5) -0.0306(4)
H1RA H 0.0534 0.7077 -0.0534
O3TA O -0.0304(4) 0.8855(3) 0.0304(4)
O4TA O -0.0302(3) 0.6167(4) 0.0302(3)
C3TA C -0.0317(13) 0.7750(6) 0.0317(13)
C6TA C -0.0306(4) 0.7244(5) 0.0306(4)
H1TA H -0.0534 0.7077 0.0534
O3SA O 0.0304(4) 0.1145(3) 0.0304(4)
O4SA O 0.0302(3) 0.3833(4) 0.0302(3)
C1SA C 0.0000 0.1365(6) 0.0000
C2SA C 0.0000 0.2005(6) 0.0000
C3SA C 0.0317(13) 0.2250(6) 0.0317(13)
C4SA C 0.0000 0.3584(6) 0.0000
C5SA C 0.0000 0.3079(9) 0.0000
C6SA C 0.0306(4) 0.2756(5) 0.0306(4)
H1SA H 0.0534 0.2923 0.0534
Zn1Y Zn 0.04333(5) 0.04333(5) 0.04333(5)
O3UA O -0.0304(4) 0.1145(3) -0.0304(4)
O4UA O -0.0302(3) 0.3833(4) -0.0302(3)
C3UA C -0.0317(13) 0.2250(6) -0.0317(13)
C6UA C -0.0306(4) 0.2756(5) -0.0306(4)
H1UA H -0.0534 0.2923 -0.0534
O2H O 0.5000 0.5000 0.0000
O2X O 0.0000 0.0000 0.0000
O3H O 0.4696(4) 0.3855(3) 0.0304(4)
O3T O 0.0304(4) 0.3855(3) 0.4696(4)
O3W O -0.0304(4) 0.6145(3) 0.4696(4)
O3Y O 0.0304(4) 0.0304(4) 0.1145(3)
O3BA O 0.4696(4) 0.4696(4) 0.1145(3)
O3HB O -0.1145(3) 0.5304(4) 0.4696(4)
O3JB O 0.1145(3) 0.4696(4) 0.4696(4)
O3MB O 0.1145(3) 0.0304(4) 0.0304(4)
Zn1A Zn 0.04333(5) 0.54333(5) -0.45667(5)
Zn1A_2 Zn 0.04333(5) 0.54333(5) 0.54333(5)
Zn1C Zn -0.04333(5) 0.45667(5) -0.45667(5)
Zn1C_2 Zn -0.04333(5) 0.45667(5) 0.54333(5)
Zn1I Zn -0.45667(5) 0.54333(5) 0.04333(5)
Zn1J Zn 0.45667(5) 0.54333(5) -0.04333(5)
Zn1K Zn -0.45667(5) 0.45667(5) -0.04333(5)
Zn1X Zn 0.04333(5) 0.95667(5) -0.04333(5)
Zn1Z Zn -0.04333(5) 0.04333(5) -0.04333(5)
Zn1AA Zn -0.04333(5) 0.95667(5) 0.04333(5)
loop_
_geom_bond_atom_site_label_1
_geom_bond_atom_site_label_2
_geom_bond_site_symmetry_1
_geom_bond_site_symmetry_2
O1 Zn2 1_555 1_555
O2 Zn1 1_555 1_555
O3 C1 1_555 1_555
O4 C4 1_555 1_555
C1 C2 1_555 1_555
C2 C3 1_555 1_555
C3 C6 1_555 1_555
C4 C5 1_555 1_555
C5 C6 1_555 1_555
C6 H1 1_555 1_555
Zn1 O3 1_555 1_555
Zn2 O4 1_555 1_555
O3B C1 1_555 1_555
O4B C4 1_555 1_555
C3B C2 1_555 1_555
C6B C5 1_555 1_555
H1B C6B 1_555 1_555
O3A C1A 1_555 1_555
O4A C4A 1_555 1_555
C1A C2A 1_555 1_555
C2A C3A 1_555 1_555
C3A C6A 1_555 1_555
C4A C5A 1_555 1_555
C5A C6A 1_555 1_555
C6A H1A 1_555 1_555
Zn2A O1 1_555 1_555
O3C C1A 1_555 1_555
O4C C4A 1_555 1_555
C3C C2A 1_555 1_555
C6C C5A 1_555 1_555
H1C C6C 1_555 1_555
Zn1B O2 1_555 1_555
Zn2B O1 1_555 1_555
Zn2C O1 1_555 1_555
O3L C1L 1_555 1_555
O4L Zn2A 1_555 1_555
C1L C2L 1_555 1_555
C2L C3L 1_555 1_555
C3L C6L 1_555 1_555
C4L O4L 1_555 1_555
C5L C4L 1_555 1_555
C6L C5L 1_555 1_555
H1L C6L 1_555 1_555
O3M C1L 1_555 1_555
O4M Zn2 1_555 1_555
C3M C2L 1_555 1_555
C6M C5L 1_555 1_555
H1M C6M 1_555 1_555
Zn1H O3M 1_555 1_555
O3N C1N 1_555 1_555
O4N Zn2C 1_555 1_555
C1N C2N 1_555 1_555
C2N C3N 1_555 1_555
C3N C6N 1_555 1_555
C4N O4N 1_555 1_555
C5N C4N 1_555 1_555
C6N C5N 1_555 1_555
H1N C6N 1_555 1_555
O3O C1N 1_555 1_555
O4O Zn2B 1_555 1_555
C3O C2N 1_555 1_555
C6O C5N 1_555 1_555
H1O C6O 1_555 1_555
O3RA C1RA 1_555 1_555
O4RA Zn2A 1_555 1_555
C1RA C2RA 1_555 1_555
C2RA C3RA 1_555 1_555
C3RA C6RA 1_555 1_555
C4RA O4RA 1_555 1_555
C5RA C4RA 1_555 1_555
C6RA C5RA 1_555 1_555
H1RA C6RA 1_555 1_555
O3TA C1RA 1_555 1_555
O4TA Zn2B 1_555 1_555
C3TA C2RA 1_555 1_555
C6TA C5RA 1_555 1_555
H1TA C6TA 1_555 1_555
O3SA C1SA 1_555 1_555
O4SA Zn2 1_555 1_555
C1SA C2SA 1_555 1_555
C2SA C3SA 1_555 1_555
C3SA C6SA 1_555 1_555
C4SA O4SA 1_555 1_555
C5SA C4SA 1_555 1_555
C6SA C5SA 1_555 1_555
H1SA C6SA 1_555 1_555
Zn1Y O3SA 1_555 1_555
O3UA C1SA 1_555 1_555
O4UA Zn2C 1_555 1_555
C3UA C2SA 1_555 1_555
C6UA C5SA 1_555 1_555
H1UA C6UA 1_555 1_555
O2H Zn1H 1_555 1_555
O2X Zn1Y 1_555 1_555
O3H Zn1H 1_555 1_555
O3T Zn1 1_555 1_555
O3W Zn1B 1_555 1_555
O3Y Zn1Y 1_555 1_555
O3BA Zn1H 1_555 1_555
O3HB Zn1B 1_555 1_555
O3JB Zn1 1_555 1_555
O3MB Zn1Y 1_555 1_555
Zn1A O3A 1_555 1_555
Zn1A_2 O2 1_555 1_555
Zn1C O3C 1_555 1_555
Zn1C_2 O2 1_555 1_555
Zn1I O3O 1_555 1_555
Zn1J O3L 1_555 1_555
Zn1K O3N 1_555 1_555
Zn1X O3RA 1_555 1_555
Zn1Z O3UA 1_555 1_555
Zn1AA O3TA 1_555 1_555
O3B Zn1B 1_555 1_555
O4B Zn2B 1_555 1_555
C3B C6B 1_555 1_555
O4A Zn2A 1_555 1_555
O4C Zn2C 1_555 1_555
C3C C6C 1_555 1_555
C4L O4M 1_555 1_555
C3M C6M 1_555 1_555
C4N O4O 1_555 1_555
C3O C6O 1_555 1_555
C4RA O4TA 1_555 1_555
C3TA C6TA 1_555 1_555
C4SA O4UA 1_555 1_555
C3UA C6UA 1_555 1_555
O2H Zn1J 1_555 1_555
O2X Zn1Z 1_555 1_555

#END
