
#######################################################################
#
#                 Cambridge Crystallographic Data Centre
#                                CCDC 
#
#######################################################################
#
# If this CIF has been generated from an entry in the Cambridge 
# Structural Database, then it will include bibliographic, chemical, 
# crystal, experimental, refinement or atomic coordinate data resulting 
# from the CCDC's data processing and validation procedures.
#
#######################################################################

data_PEVTIU
_symmetry_cell_setting           orthorhombic
_symmetry_space_group_name_H-M   'F d d d'
_symmetry_Int_Tables_number      70
_space_group_name_Hall           '-F 2uv 2vw'
loop_
_symmetry_equiv_pos_site_id
_symmetry_equiv_pos_as_xyz
1 x,y,z
2 x,1/4-y,1/4-z
3 1/4-x,y,1/4-z
4 1/4-x,1/4-y,z
5 x,1/2+y,1/2+z
6 1/2+x,y,1/2+z
7 1/2+x,1/2+y,z
8 x,3/4-y,3/4-z
9 3/4-x,y,3/4-z
10 3/4-x,3/4-y,z
11 3/4-x,1/2+y,1/4-z
12 3/4-x,1/4-y,1/2+z
13 1/2+x,3/4-y,1/4-z
14 1/4-x,3/4-y,1/2+z
15 1/2+x,1/4-y,3/4-z
16 1/4-x,1/2+y,3/4-z
17 -x,-y,-z
18 -x,3/4+y,3/4+z
19 3/4+x,-y,3/4+z
20 3/4+x,3/4+y,-z
21 -x,1/2-y,1/2-z
22 1/2-x,-y,1/2-z
23 1/2-x,1/2-y,-z
24 -x,1/4+y,1/4+z
25 1/4+x,-y,1/4+z
26 1/4+x,1/4+y,-z
27 1/4+x,1/2-y,3/4+z
28 1/4+x,3/4+y,1/2-z
29 1/2-x,1/4+y,3/4+z
30 3/4+x,1/4+y,1/2-z
31 1/2-x,3/4+y,1/4+z
32 3/4+x,1/2-y,1/4+z
_cell_length_a                   24.091(1)
_cell_length_b                   34.462(2)
_cell_length_c                   9.0650(5)
_cell_angle_alpha                90
_cell_angle_beta                 90
_cell_angle_gamma                90
_cell_volume                     7525.98
loop_
_atom_site_label
_atom_site_type_symbol
_atom_site_fract_x
_atom_site_fract_y
_atom_site_fract_z
Cu1 Cu 0.6250 0.6250 0.6250
O1 O 0.6250 0.5526(1) 0.6250
N1 N 0.5657(1) 0.62449(8) 0.4691(3)
C1 C 0.5633(1) 0.59571(10) 0.3702(3)
C2 C 0.5176(1) 0.59031(10) 0.2790(4)
C3 C 0.4732(1) 0.61503(10) 0.2868(3)
C4 C 0.4769(1) 0.6460(1) 0.3850(4)
C5 C 0.5222(1) 0.6496(1) 0.4732(4)
C6 C 0.4229(1) 0.6102(1) 0.1881(4)
C7 C 0.6250 0.5174(1) 0.6250
C8 C 0.5726(3) 0.4952(2) 0.6066(8)
H1 H 0.5935 0.5781 0.3626
H2 H 0.5170 0.5691 0.2101
H3 H 0.4474 0.6646 0.3896
H4 H 0.5237 0.6712 0.5408
H5 H 0.4236 0.5842 0.1454
H6 H 0.3900 0.6122 0.2454
H7 H 0.5467 0.5025 0.6882
H8 H 0.5537 0.5026 0.5181
H9 H 0.5772 0.4685 0.6109
Cu1_2 Cu 0.6250 0.6250 -0.3750
Cu1_3 Cu 0.6250 0.6250 1.6250
O1A O 0.6250 0.6974(1) 0.6250
N1A N 0.5657(1) 0.62551(8) -0.2191(3)
N1A_2 N 0.5657(1) 0.62551(8) 0.7809(3)
N1_2 N 0.5657(1) 0.62449(8) 1.4691(3)
N1B N 0.6843(1) 0.62449(8) 0.7809(3)
N1C N 0.6843(1) 0.62551(8) 0.4691(3)
C1A C 0.5633(1) 0.65429(10) -0.1202(3)
C1A_2 C 0.5633(1) 0.65429(10) 0.8798(3)
C1_2 C 0.5633(1) 0.59571(10) 1.3702(3)
C2A C 0.5176(1) 0.65969(10) -0.0290(4)
C2A_2 C 0.5176(1) 0.65969(10) 0.9710(4)
C2_2 C 0.5176(1) 0.59031(10) 1.2790(4)
C3A C 0.4732(1) 0.63497(10) -0.0368(3)
C3A_2 C 0.4732(1) 0.63497(10) 0.9632(3)
C3_2 C 0.4732(1) 0.61503(10) 1.2868(3)
C4A C 0.4769(1) 0.6040(1) -0.1350(4)
C4A_2 C 0.4769(1) 0.6040(1) 0.8650(4)
C4_2 C 0.4769(1) 0.6460(1) 1.3850(4)
C5A C 0.5222(1) 0.6004(1) -0.2232(4)
C5A_2 C 0.5222(1) 0.6004(1) 0.7768(4)
C5_2 C 0.5222(1) 0.6496(1) 1.4732(4)
C6A C 0.4229(1) 0.6398(1) 0.0619(4)
C6A_2 C 0.4229(1) 0.6398(1) 1.0619(4)
C6_2 C 0.4229(1) 0.6102(1) 1.1881(4)
C7A C 0.6250 0.7326(1) 0.6250
C8B C 0.6774(3) 0.4952(2) 0.6434(8)
C8A C 0.5726(3) 0.7548(2) 0.6434(8)
C8C C 0.6774(3) 0.7548(2) 0.6066(8)
H1A H 0.5935 0.6719 -0.1126
H1A_2 H 0.5935 0.6719 0.8874
H1_2 H 0.5935 0.5781 1.3626
H2A H 0.5170 0.6809 0.0399
H2A_2 H 0.5170 0.6809 1.0399
H2_2 H 0.5170 0.5691 1.2101
H3A H 0.4474 0.5854 -0.1396
H3A_2 H 0.4474 0.5854 0.8604
H3_2 H 0.4474 0.6646 1.3896
H4A H 0.5237 0.5788 -0.2908
H4A_2 H 0.5237 0.5788 0.7092
H4_2 H 0.5237 0.6712 1.5408
H5A H 0.4236 0.6658 0.1046
H5A_2 H 0.4236 0.6658 1.1046
H5_2 H 0.4236 0.5842 1.1454
H6A H 0.3900 0.6378 0.0046
H6A_2 H 0.3900 0.6378 1.0046
H6_2 H 0.3900 0.6122 1.2454
H7B H 0.7033 0.5025 0.5618
H7A H 0.5467 0.7475 0.5618
H7C H 0.7033 0.7475 0.6882
H8B H 0.6963 0.5026 0.7319
H8A H 0.5537 0.7474 0.7319
H8C H 0.6963 0.7474 0.5181
H9B H 0.6728 0.4685 0.6391
H9A H 0.5772 0.7815 0.6391
H9C H 0.6728 0.7815 0.6109
P1 P 0.6250 0.49921(5) 0.1250
F1 F 0.5653(2) 0.4999(1) 0.2009(6)
F2 F 0.6433(2) 0.5323(2) 0.2230(9)
F3 F 0.6114(3) 0.4647(2) 0.0254(7)
F1B F 0.6847(2) 0.4999(1) 0.0491(6)
F2B F 0.6067(2) 0.5323(2) 0.0270(9)
F3B F 0.6386(3) 0.4647(2) 0.2246(7)
loop_
_geom_bond_atom_site_label_1
_geom_bond_atom_site_label_2
_geom_bond_site_symmetry_1
_geom_bond_site_symmetry_2
Cu1 O1 1_555 1_555
P1 F1 1_555 1_555
F2 P1 1_555 1_555
F3 P1 1_555 1_555
O1 C7 1_555 1_555
N1 Cu1 1_555 1_555
C1 N1 1_555 1_555
C2 C1 1_555 1_555
C3 C2 1_555 1_555
C4 C3 1_555 1_555
C5 N1 1_555 1_555
C6 C3 1_555 1_555
C7 C8 1_555 1_555
C8 H7 1_555 1_555
H1 C1 1_555 1_555
H2 C2 1_555 1_555
H3 C4 1_555 1_555
H4 C5 1_555 1_555
H5 C6 1_555 1_555
H6 C6 1_555 1_555
H8 C8 1_555 1_555
H9 C8 1_555 1_555
Cu1_2 N1A 1_555 1_555
Cu1_3 N1_2 1_555 1_555
F1B P1 1_555 1_555
F2B P1 1_555 1_555
F3B P1 1_555 1_555
O1A Cu1 1_555 1_555
N1A C1A 1_555 1_555
N1A_2 Cu1 1_555 1_555
N1_2 C1_2 1_555 1_555
N1B Cu1 1_555 1_555
N1C Cu1 1_555 1_555
C1A C2A 1_555 1_555
C1A_2 N1A_2 1_555 1_555
C1_2 C2_2 1_555 1_555
C2A C3A 1_555 1_555
C2A_2 C1A_2 1_555 1_555
C2_2 C3_2 1_555 1_555
C3A C4A 1_555 1_555
C3A_2 C2A_2 1_555 1_555
C3_2 C4_2 1_555 1_555
C4A C5A 1_555 1_555
C4A_2 C3A_2 1_555 1_555
C4_2 C5_2 1_555 1_555
C5A N1A 1_555 1_555
C5A_2 N1A_2 1_555 1_555
C5_2 N1_2 1_555 1_555
C6A C6 1_555 1_555
C6A_2 C3A_2 1_555 1_555
C6_2 C3_2 1_555 1_555
C7A O1A 1_555 1_555
C8B C7 1_555 1_555
C8A C7A 1_555 1_555
C8C C7A 1_555 1_555
H1A C1A 1_555 1_555
H1A_2 C1A_2 1_555 1_555
H1_2 C1_2 1_555 1_555
H2A C2A 1_555 1_555
H2A_2 C2A_2 1_555 1_555
H2_2 C2_2 1_555 1_555
H3A C4A 1_555 1_555
H3A_2 C4A_2 1_555 1_555
H3_2 C4_2 1_555 1_555
H4A C5A 1_555 1_555
H4A_2 C5A_2 1_555 1_555
H4_2 C5_2 1_555 1_555
H5A C6A 1_555 1_555
H5A_2 C6A_2 1_555 1_555
H5_2 C6_2 1_555 1_555
H6A C6A 1_555 1_555
H6A_2 C6A_2 1_555 1_555
H6_2 C6_2 1_555 1_555
H7B C8B 1_555 1_555
H7A C8A 1_555 1_555
H7C C8C 1_555 1_555
H8B C8B 1_555 1_555
H8A C8A 1_555 1_555
H8C C8C 1_555 1_555
H9B C8B 1_555 1_555
H9A C8A 1_555 1_555
H9C C8C 1_555 1_555
C4 C5 1_555 1_555
C3A C6A 1_555 1_555
C4A_2 C5A_2 1_555 1_555
C6A_2 C6_2 1_555 1_555

#END
