
#######################################################################
#
#                 Cambridge Crystallographic Data Centre
#                                CCDC 
#
#######################################################################
#
# If this CIF has been generated from an entry in the Cambridge 
# Structural Database, then it will include bibliographic, chemical, 
# crystal, experimental, refinement or atomic coordinate data resulting 
# from the CCDC's data processing and validation procedures.
#
#######################################################################

data_PEVVIW
_symmetry_cell_setting           orthorhombic
_symmetry_space_group_name_H-M   'P b c m'
_symmetry_Int_Tables_number      57
_space_group_name_Hall           '-P 2c 2b'
loop_
_symmetry_equiv_pos_site_id
_symmetry_equiv_pos_as_xyz
1 x,y,z
2 x,1/2-y,-z
3 -x,1/2+y,1/2-z
4 -x,-y,1/2+z
5 -x,-y,-z
6 -x,1/2+y,z
7 x,1/2-y,1/2+z
8 x,y,1/2-z
_cell_length_a                   9.3168(16)
_cell_length_b                   23.612(5)
_cell_length_c                   16.710(5)
_cell_angle_alpha                90
_cell_angle_beta                 90
_cell_angle_gamma                90
_cell_volume                     3676
loop_
_atom_site_label
_atom_site_type_symbol
_atom_site_fract_x
_atom_site_fract_y
_atom_site_fract_z
Cu1 Cu 0.73384(8) 0.2500 0.5000
O1 O 0.7203(3) 0.24207(14) 0.3539(2)
N1 N 0.5828(3) 0.18773(16) 0.5038(2)
N2 N -0.1118(3) 0.19030(16) 0.5085(2)
C1 C 0.5959(4) 0.1427(2) 0.5531(2)
C2 C 0.5049(5) 0.0971(2) 0.5504(2)
C3 C 0.3938(4) 0.09530(18) 0.4949(3)
C4 C 0.3779(4) 0.1425(2) 0.4463(3)
C5 C 0.4720(4) 0.1875(2) 0.4508(3)
C6 C 0.2961(5) 0.04487(19) 0.4885(3)
C7 C -0.0960(4) 0.1496(2) 0.4524(2)
C8 C -0.0050(5) 0.1043(2) 0.4622(3)
C9 C 0.0737(4) 0.09880(19) 0.5332(3)
C10 C 0.0609(4) 0.1420(2) 0.5887(3)
C11 C -0.0305(5) 0.1865(2) 0.5746(3)
C12 C 0.1691(5) 0.0486(2) 0.5477(3)
H1 H 0.6718 0.1427 0.5911
H2 H 0.5181 0.0665 0.5867
H3 H 0.2997 0.1441 0.4098
H4 H 0.4599 0.2188 0.4157
H5 H 0.2596 0.0426 0.4355
H6 H 0.3498 0.0117 0.5002
H7 H -0.1499 0.1525 0.4043
H8 H 0.0044 0.0767 0.4210
H9 H 0.1150 0.1407 0.6368
H10 H -0.0364 0.2160 0.6132
H11 H 0.2062 0.0510 0.6005
H12 H 0.1131 0.0151 0.5426
Cu1_2 Cu -0.26616(8) 0.2500 0.5000
O1A O 0.7203(3) 0.25793(14) 0.6461(2)
N1A N 0.5828(3) 0.31227(16) 0.4962(2)
N2A N -0.1118(3) 0.30970(16) 0.4915(2)
N2_2 N 0.8882(3) 0.19030(16) 0.5085(2)
N2A_2 N 0.8882(3) 0.30970(16) 0.4915(2)
C1A C 0.5959(4) 0.3573(2) 0.4469(2)
C2A C 0.5049(5) 0.4029(2) 0.4496(2)
C3A C 0.3938(4) 0.40470(18) 0.5051(3)
C4A C 0.3779(4) 0.3575(2) 0.5537(3)
C5A C 0.4720(4) 0.3125(2) 0.5492(3)
C6A C 0.2961(5) 0.45513(19) 0.5115(3)
C7A C -0.0960(4) 0.3504(2) 0.5476(2)
C8A C -0.0050(5) 0.3957(2) 0.5378(3)
C9A C 0.0737(4) 0.40120(19) 0.4668(3)
C10A C 0.0609(4) 0.3580(2) 0.4113(3)
C11A C -0.0305(5) 0.3135(2) 0.4254(3)
C12A C 0.1691(5) 0.4514(2) 0.4523(3)
H1A H 0.6718 0.3573 0.4089
H2A H 0.5181 0.4335 0.4133
H3A H 0.2997 0.3559 0.5902
H4A H 0.4599 0.2812 0.5843
H5A H 0.2596 0.4574 0.5645
H6A H 0.3498 0.4883 0.4998
H7A H -0.1499 0.3475 0.5957
H8A H 0.0044 0.4233 0.5790
H9A H 0.1150 0.3593 0.3632
H10A H -0.0364 0.2840 0.3868
H11A H 0.2062 0.4490 0.3995
H12A H 0.1131 0.4849 0.4574
P1 P 0.2644(2) 0.24648(10) 0.7500
F1 F 0.1226(5) 0.2096(2) 0.7500
F2 F 0.1973(5) 0.2828(2) 0.8188(3)
F3 F 0.4066(6) 0.2825(2) 0.7500
F4 F 0.3340(5) 0.2094(2) 0.8184(3)
F2G F 0.1973(5) 0.2828(2) 0.6812(3)
F4G F 0.3340(5) 0.2094(2) 0.6816(3)
P2 P 0.8251(2) 0.02583(9) 0.7500
F5 F 0.8951(9) 0.0861(2) 0.7500
F6 F 0.9298(6) 0.0028(2) 0.8167(3)
F7 F 0.7542(8) -0.0347(2) 0.7500
F8 F 0.7223(8) 0.0459(2) 0.6822(4)
F6G F 0.9298(6) 0.0028(2) 0.6833(3)
F8G F 0.7223(8) 0.0459(2) 0.8178(4)
O2 O 0.7087(5) 0.1456(2) 0.2500
C13 C 0.6163(7) 0.0968(3) 0.250000(10)
C14 C 0.6407(6) 0.0618(2) 0.1752(3)
H13 H 0.5196 0.1095 0.2500
H14 H 0.5782 0.0745 0.1341
H15 H 0.6221 0.0230 0.1862
H16 H 0.7375 0.0661 0.1584
C14G C 0.6407(6) 0.0618(2) 0.3248(3)
H14G H 0.5782 0.0745 0.3659
H15G H 0.6221 0.0230 0.3138
H16G H 0.7375 0.0661 0.3416
O3 O 0.6260(7) 0.3299(2) 0.2500
O4 O 0.9932(6) 0.1204(2) 0.2500
loop_
_geom_bond_atom_site_label_1
_geom_bond_atom_site_label_2
_geom_bond_site_symmetry_1
_geom_bond_site_symmetry_2
Cu1 O1 1_555 1_555
P1 F1 1_555 1_555
P2 F5 1_555 1_555
F2 P1 1_555 1_555
F3 P1 1_555 1_555
F4 P1 1_555 1_555
F6 P2 1_555 1_555
F7 P2 1_555 1_555
F8 P2 1_555 1_555
O2 C13 1_555 1_555
N1 Cu1 1_555 1_555
N2 C7 1_555 1_555
C1 N1 1_555 1_555
C2 C1 1_555 1_555
C3 C2 1_555 1_555
C4 C3 1_555 1_555
C5 N1 1_555 1_555
C6 C3 1_555 1_555
C7 C8 1_555 1_555
C8 C9 1_555 1_555
C9 C10 1_555 1_555
C10 C11 1_555 1_555
C11 N2 1_555 1_555
C12 C6 1_555 1_555
C13 C14 1_555 1_555
C14 H14 1_555 1_555
H1 C1 1_555 1_555
H2 C2 1_555 1_555
H3 C4 1_555 1_555
H4 C5 1_555 1_555
H5 C6 1_555 1_555
H6 C6 1_555 1_555
H7 C7 1_555 1_555
H8 C8 1_555 1_555
H9 C10 1_555 1_555
H10 C11 1_555 1_555
H11 C12 1_555 1_555
H12 C12 1_555 1_555
H13 C13 1_555 1_555
H15 C14 1_555 1_555
H16 C14 1_555 1_555
Cu1_2 N2 1_555 1_555
F2G P1 1_555 1_555
F4G P1 1_555 1_555
F6G P2 1_555 1_555
F8G P2 1_555 1_555
O1A Cu1 1_555 1_555
N1A Cu1 1_555 1_555
N2A Cu1_2 1_555 1_555
N2_2 Cu1 1_555 1_555
N2A_2 Cu1 1_555 1_555
C1A N1A 1_555 1_555
C2A C1A 1_555 1_555
C3A C2A 1_555 1_555
C4A C3A 1_555 1_555
C5A N1A 1_555 1_555
C6A C3A 1_555 1_555
C7A N2A 1_555 1_555
C8A C7A 1_555 1_555
C9A C8A 1_555 1_555
C10A C9A 1_555 1_555
C11A N2A 1_555 1_555
C12A C6A 1_555 1_555
C14G C13 1_555 1_555
H1A C1A 1_555 1_555
H2A C2A 1_555 1_555
H3A C4A 1_555 1_555
H4A C5A 1_555 1_555
H5A C6A 1_555 1_555
H6A C6A 1_555 1_555
H7A C7A 1_555 1_555
H8A C8A 1_555 1_555
H9A C10A 1_555 1_555
H10A C11A 1_555 1_555
H11A C12A 1_555 1_555
H12A C12A 1_555 1_555
H14G C14G 1_555 1_555
H15G C14G 1_555 1_555
H16G C14G 1_555 1_555
C4 C5 1_555 1_555
C9 C12 1_555 1_555
C4A C5A 1_555 1_555
C9A C12A 1_555 1_555
C10A C11A 1_555 1_555

#END
