
#######################################################################
#
#                 Cambridge Crystallographic Data Centre
#                                CCDC 
#
#######################################################################
#
# If this CIF has been generated from an entry in the Cambridge 
# Structural Database, then it will include bibliographic, chemical, 
# crystal, experimental, refinement or atomic coordinate data resulting 
# from the CCDC's data processing and validation procedures.
#
#######################################################################

data_PEYGAC
_symmetry_cell_setting           orthorhombic
_symmetry_space_group_name_H-M   'P c a 21'
_symmetry_Int_Tables_number      29
_space_group_name_Hall           'P 2c -2ac'
loop_
_symmetry_equiv_pos_site_id
_symmetry_equiv_pos_as_xyz
1 x,y,z
2 -x,-y,1/2+z
3 1/2+x,-y,z
4 1/2-x,y,1/2+z
_cell_length_a                   13.6756(8)
_cell_length_b                   7.3710(5)
_cell_length_c                   7.4200(5)
_cell_angle_alpha                90
_cell_angle_beta                 90
_cell_angle_gamma                90
_cell_volume                     747.957
loop_
_atom_site_label
_atom_site_type_symbol
_atom_site_fract_x
_atom_site_fract_y
_atom_site_fract_z
Zn1 Zn 0.424511(14) 0.23356(3) 0.72398(5)
Cl1 Cl 0.40928(4) 0.51909(9) 0.63074(11)
Cl2 Cl 0.33515(4) 0.15972(8) 0.96339(10)
C1 C 0.65364(13) 0.2735(2) 0.7454(3)
C2 C 0.58011(11) 0.0556(3) 0.9148(3)
N1 N 0.64494(13) 0.4213(3) 0.6480(3)
H1 H 0.6963 0.4784 0.6126
H2 H 0.5879 0.4611 0.6196
N2 N 0.74078(13) 0.2115(3) 0.7896(3)
H3 H 0.7924 0.2680 0.7545
H4 H 0.7460 0.1146 0.8534
N3 N 0.56986(10) 0.1852(2) 0.7959(2)
N4 N 0.58423(12) -0.0587(4) 1.0211(4)
Zn1A Zn 0.575489(14) -0.23356(3) 1.22398(5)
N4A N 0.41577(12) 0.0587(4) 0.5211(4)
loop_
_geom_bond_atom_site_label_1
_geom_bond_atom_site_label_2
_geom_bond_site_symmetry_1
_geom_bond_site_symmetry_2
Zn1 Cl1 1_555 1_555
Cl2 Zn1 1_555 1_555
C1 N1 1_555 1_555
C2 N3 1_555 1_555
N1 H1 1_555 1_555
H2 N1 1_555 1_555
N2 C1 1_555 1_555
H3 N2 1_555 1_555
H4 N2 1_555 1_555
N3 Zn1 1_555 1_555
N4 C2 1_555 1_555
Zn1A N4 1_555 1_555
N4A Zn1 1_555 1_555
C1 N3 1_555 1_555

#END
