
#######################################################################
#
#                 Cambridge Crystallographic Data Centre
#                                CCDC 
#
#######################################################################
#
# If this CIF has been generated from an entry in the Cambridge 
# Structural Database, then it will include bibliographic, chemical, 
# crystal, experimental, refinement or atomic coordinate data resulting 
# from the CCDC's data processing and validation procedures.
#
#######################################################################

data_PEYPIU
_symmetry_cell_setting           triclinic
_symmetry_space_group_name_H-M   'P -1'
_symmetry_Int_Tables_number      2
_space_group_name_Hall           '-P 1'
loop_
_symmetry_equiv_pos_site_id
_symmetry_equiv_pos_as_xyz
1 x,y,z
2 -x,-y,-z
_cell_length_a                   10.8947(6)
_cell_length_b                   10.9708(6)
_cell_length_c                   13.9891(7)
_cell_angle_alpha                81.540(2)
_cell_angle_beta                 89.016(2)
_cell_angle_gamma                87.658(2)
_cell_volume                     1652.35
loop_
_atom_site_label
_atom_site_type_symbol
_atom_site_fract_x
_atom_site_fract_y
_atom_site_fract_z
Zn1 Zn 0.27300(6) 0.33617(7) 0.39297(5)
Zn2 Zn 0.27704(6) 0.37777(7) 0.18076(5)
N1 N 0.2748(5) 0.3317(5) 0.5383(4)
O1 O 0.2674(5) 0.5245(4) 0.3558(4)
O2 O 0.0919(4) 0.3395(5) 0.3682(3)
O3 O 0.0960(4) 0.3850(5) 0.2074(3)
O4 O -0.5436(4) 0.3352(5) 0.3668(3)
O5 O -0.5417(4) 0.3598(6) 0.2077(4)
O6 O 0.2712(6) 1.1921(5) 0.2200(4)
O7 O 0.2767(5) 1.1522(4) 0.3790(4)
N2 N 0.2777(5) 0.3773(5) 1.0372(4)
O8 O 0.2826(5) 0.5586(5) 0.1954(4)
C1 C 0.2738(6) 0.5931(6) 0.2766(5)
C2 C 0.2741(6) 0.7285(6) 0.2792(5)
C3 C 0.0421(6) 0.3581(6) 0.2871(5)
C4 C 0.3106(7) 0.9396(7) 0.2083(5)
C5 C 0.2764(6) 0.3550(6) 0.8409(4)
C6 C -0.1562(6) 0.3360(6) 0.2032(5)
C7 C 0.3788(6) 0.3456(8) 0.5841(5)
H1 H 0.4517 0.3519 0.5485
C8 C 0.3828(6) 0.3510(8) 0.6809(5)
H2 H 0.4578 0.3592 0.7096
C9 C 0.2759(6) 0.3443(6) 0.7369(5)
C10 C -0.0941(6) 0.3468(6) 0.2861(5)
C11 C 0.3816(6) 0.3659(8) 0.9867(5)
H3 H 0.4557 0.3647 1.0189
C12 C 0.1690(6) 0.3705(8) 0.8929(5)
H4 H 0.0934 0.3737 0.8626
C13 C 0.1719(6) 0.3241(7) 0.5917(5)
H5 H 0.0982 0.3159 0.5611
C14 C 0.2410(7) 0.7764(7) 0.3624(5)
H6 H 0.2176 0.7227 0.4167
C15 C 0.3851(6) 0.3558(8) 0.8917(5)
H7 H 0.4603 0.3494 0.8600
C16 C 0.3100(6) 0.8137(7) 0.2017(5)
O9 O -0.1136(4) 0.3312(5) 0.1123(3)
O10 O -0.3241(4) 0.3260(5) 0.1120(3)
O11 O 0.3515(5) 1.0013(5) 0.1215(4)
C17 C -0.2846(6) 0.3315(7) 0.2038(5)
O12 O 0.3473(5) 0.7932(5) 0.1112(4)
C18 C -0.1645(6) 0.3502(7) 0.3705(5)
H8 H -0.1252 0.3554 0.4282
C19 C -0.4897(6) 0.3451(6) 0.2864(5)
C20 C -0.3556(6) 0.3386(7) 0.2851(5)
C21 C 0.2748(6) 0.9877(7) 0.2913(5)
C22 C 0.1691(6) 0.3277(7) 0.6891(5)
H9 H 0.0951 0.3190 0.7232
C23 C 0.2415(7) 0.9008(7) 0.3677(5)
H10 H 0.2182 0.9273 0.4258
C24 C 0.1742(6) 0.3809(7) 0.9886(5)
H11 H 0.1007 0.3912 1.0217
C25 C -0.2882(6) 0.3462(6) 0.3698(5)
H12 H -0.3313 0.3485 0.4275
C26 C 0.2748(6) 1.1221(7) 0.2974(5)
C27 C -0.2149(6) 0.2967(7) 0.0589(5)
H13 H -0.2089 0.2093 0.0543
H14 H -0.2160 0.3426 -0.0059
C28 C 0.3965(9) 0.9077(8) 0.0661(6)
H15 H 0.3694 0.9270 -0.0003
H16 H 0.4856 0.9022 0.0663
Zn1_2 Zn -0.72700(6) 0.33617(7) 0.39297(5)
Zn1_3 Zn 0.27300(6) 1.33617(7) 0.39297(5)
Zn2_2 Zn -0.72296(6) 0.37777(7) 0.18076(5)
Zn2_3 Zn 0.27704(6) 0.37777(7) 1.18076(5)
Zn2_4 Zn 0.27704(6) 1.37777(7) 0.18076(5)
O4_2 O 0.4564(4) 0.3352(5) 0.3668(3)
O5_2 O 0.4583(4) 0.3598(6) 0.2077(4)
O6_2 O 0.2712(6) 0.1921(5) 0.2200(4)
O7_2 O 0.2767(5) 0.1522(4) 0.3790(4)
N2_2 N 0.2777(5) 0.3773(5) 0.0372(4)
O13 O 0.2873(9) 0.0060(9) 0.8402(6)
N3 N 0.3061(10) -0.0022(8) 0.6816(6)
C29 C 0.1779(10) -0.0076(9) 0.6605(9)
H17 H 0.1680 -0.0045 0.5922
H18 H 0.1337 0.0613 0.6817
H19 H 0.1465 -0.0830 0.6937
C30 C 0.3960(11) -0.0127(11) 0.6010(9)
H20 H 0.3525 -0.0111 0.5417
H21 H 0.4433 -0.0889 0.6147
H22 H 0.4499 0.0551 0.5949
C31 C 0.3422(18) 0.0013(15) 0.7687(10)
H23 H 0.4271 -0.0001 0.7753
loop_
_geom_bond_atom_site_label_1
_geom_bond_atom_site_label_2
_geom_bond_site_symmetry_1
_geom_bond_site_symmetry_2
Zn1 N1 1_555 1_555
Zn2 O3 1_555 1_555
N1 C7 1_555 1_555
O1 Zn1 1_555 1_555
O2 Zn1 1_555 1_555
O3 C3 1_555 1_555
O4 C19 1_555 1_555
O5 C19 1_555 1_555
O6 C26 1_555 1_555
O7 C26 1_555 1_555
N2 C11 1_555 1_555
O8 Zn2 1_555 1_555
C1 O1 1_555 1_555
C2 C1 1_555 1_555
C3 O2 1_555 1_555
C4 C16 1_555 1_555
C5 C9 1_555 1_555
C6 C10 1_555 1_555
C7 H1 1_555 1_555
C8 C7 1_555 1_555
H2 C8 1_555 1_555
C9 C8 1_555 1_555
C10 C3 1_555 1_555
C11 H3 1_555 1_555
C12 C5 1_555 1_555
H4 C12 1_555 1_555
C13 N1 1_555 1_555
H5 C13 1_555 1_555
C14 C2 1_555 1_555
H6 C14 1_555 1_555
C15 C5 1_555 1_555
H7 C15 1_555 1_555
C16 C2 1_555 1_555
O9 C6 1_555 1_555
O10 C17 1_555 1_555
O11 C4 1_555 1_555
C17 C6 1_555 1_555
O12 C16 1_555 1_555
C18 C10 1_555 1_555
H8 C18 1_555 1_555
C19 C20 1_555 1_555
C20 C17 1_555 1_555
C21 C4 1_555 1_555
C22 C9 1_555 1_555
H9 C22 1_555 1_555
C23 C14 1_555 1_555
H10 C23 1_555 1_555
C24 N2 1_555 1_555
H11 C24 1_555 1_555
C25 C18 1_555 1_555
H12 C25 1_555 1_555
C26 C21 1_555 1_555
C27 O9 1_555 1_555
H13 C27 1_555 1_555
H14 C27 1_555 1_555
C28 O11 1_555 1_555
H15 C28 1_555 1_555
H16 C28 1_555 1_555
O13 C31 1_555 1_555
N3 C29 1_555 1_555
C29 H17 1_555 1_555
H18 C29 1_555 1_555
H19 C29 1_555 1_555
C30 N3 1_555 1_555
H20 C30 1_555 1_555
H21 C30 1_555 1_555
H22 C30 1_555 1_555
C31 N3 1_555 1_555
H23 C31 1_555 1_555
Zn1_2 O4 1_555 1_555
Zn1_3 O7 1_555 1_555
Zn2_2 O5 1_555 1_555
Zn2_3 N2 1_555 1_555
Zn2_4 O6 1_555 1_555
O4_2 Zn1 1_555 1_555
O5_2 Zn2 1_555 1_555
O6_2 Zn2 1_555 1_555
O7_2 Zn1 1_555 1_555
N2_2 Zn2 1_555 1_555
O8 C1 1_555 1_555
C11 C15 1_555 1_555
C12 C24 1_555 1_555
C13 C22 1_555 1_555
O10 C27 1_555 1_555
O12 C28 1_555 1_555
C20 C25 1_555 1_555
C21 C23 1_555 1_555

#END
