
#######################################################################
#
#                 Cambridge Crystallographic Data Centre
#                                CCDC 
#
#######################################################################
#
# If this CIF has been generated from an entry in the Cambridge 
# Structural Database, then it will include bibliographic, chemical, 
# crystal, experimental, refinement or atomic coordinate data resulting 
# from the CCDC's data processing and validation procedures.
#
#######################################################################

data_PEYVEV
_symmetry_cell_setting           hexagonal
_symmetry_space_group_name_H-M   'P 63/m m c'
_symmetry_Int_Tables_number      194
_space_group_name_Hall           "-P 6c 2'c"
loop_
_symmetry_equiv_pos_site_id
_symmetry_equiv_pos_as_xyz
1 x,y,z
2 -y,x-y,z
3 -x+y,-x,z
4 y,-x+y,1/2+z
5 x-y,x,1/2+z
6 y,x,-z
7 -x+y,y,1/2-z
8 x,x-y,1/2-z
9 -x,-y,1/2+z
10 x-y,-y,-z
11 -x,-x+y,-z
12 -y,-x,1/2-z
13 -x,-y,-z
14 y,-x+y,-z
15 x-y,x,-z
16 -y,x-y,1/2-z
17 -x+y,-x,1/2-z
18 -y,-x,z
19 x-y,-y,1/2+z
20 -x,-x+y,1/2+z
21 x,y,1/2-z
22 -x+y,y,z
23 x,x-y,z
24 y,x,1/2+z
_cell_length_a                   15.32130(10)
_cell_length_b                   15.32130(10)
_cell_length_c                   32.5710(3)
_cell_angle_alpha                90
_cell_angle_beta                 90
_cell_angle_gamma                120
_cell_volume                     6621.45
loop_
_atom_site_label
_atom_site_type_symbol
_atom_site_fract_x
_atom_site_fract_y
_atom_site_fract_z
In1 In 0.57965(2) 0.42035(2) 0.59211(2)
In2 In 0.5000 0.5000 0.5000
In3 In 0.92274(4) 1.07726(4) 0.7500
O1 O 0.8432(4) 1.1568(4) 0.7500
O2 O 1.0000 1.0000 0.7500
O3 O 0.8169(4) 0.9819(4) 0.70285(17)
O4 O 0.5713(3) 0.4287(3) 0.5273(2)
O5 O 0.5289(6) 0.2645(3) 0.5938(3)
O6 O 0.6201(4) 0.5784(5) 0.59851(18)
O7 O 0.5763(4) 0.4237(4) 0.6593(3)
O8 O 0.5723(4) 0.6264(5) 0.54178(19)
C1 C 0.7936(8) 0.8968(4) 0.6888(3)
C2 C 0.6089(6) 0.6407(6) 0.5773(2)
C3 C 0.7264(8) 0.8632(4) 0.6506(3)
C4 C 0.6128(4) 0.8064(9) 0.5785(3)
H1 H 0.5754 0.7877 0.5544
C5 C 0.6412(6) 0.7406(6) 0.5969(2)
C6 C 0.6980(6) 0.7701(5) 0.6327(2)
H2 H 0.7172 0.7274 0.6448
In1E In 0.42035(2) 0.57965(2) 0.40789(2)
In1A In 0.57965(2) 1.15930(3) 0.59211(2)
In1N In 1.15930(3) 0.57965(2) 0.40789(2)
In1M In 0.42035(2) -0.15930(3) 0.40789(2)
In1B In -0.15930(3) 0.42035(2) 0.59211(2)
In1A_2 In 0.57965(2) 0.15930(3) 0.59211(2)
In1B_2 In 0.84070(3) 0.42035(2) 0.59211(2)
In1T In 0.57965(2) 0.42035(2) 0.90789(2)
In1G In 0.57965(2) 1.15930(3) 0.90789(2)
In1_2 In 1.57965(2) 1.42035(2) 0.59211(2)
In1B_3 In 0.84070(3) 1.42035(2) 0.59211(2)
In1M_2 In 0.42035(2) 0.84070(3) 0.40789(2)
In1N_2 In 0.15930(3) 0.57965(2) 0.40789(2)
In1_3 In 0.57965(2) 1.42035(2) 0.59211(2)
In2A In 0.5000 1.0000 0.5000
In2B In 1.0000 0.5000 0.5000
In2A_2 In 0.5000 0.0000 0.5000
In2B_2 In 0.0000 0.5000 0.5000
In2T In 0.5000 0.5000 1.0000
In2C In 0.5000 1.0000 1.0000
In2_2 In 1.5000 1.5000 0.5000
In2B_3 In 1.0000 1.5000 0.5000
In3A In 0.92274(4) 0.84548(6) 0.7500
In3E In 1.07726(4) 0.92274(4) 0.2500
In3B In 1.15452(6) 1.07726(4) 0.7500
In3D In 0.84548(6) 0.92274(4) 0.2500
In3E_2 In 0.07726(4) -0.07726(4) 0.2500
In3C In 0.07726(4) 0.15452(6) 0.2500
In3_2 In -0.07726(4) 0.07726(4) 0.7500
In3B_2 In 0.15452(6) 0.07726(4) 0.7500
O1A O 0.8432(4) 0.6864(6) 0.7500
O1E O 1.1568(4) 0.8432(4) 0.2500
O2C O 1.0000 1.0000 0.2500
O3V O 0.8169(4) 0.8350(6) 0.70285(17)
O3E O 0.9819(4) 0.8169(4) 0.29715(17)
O3N O 0.8350(6) 0.8169(4) 0.29715(17)
O3L O 0.1831(4) 0.0181(4) 0.29715(17)
O3J O 0.1831(4) 0.1650(6) 0.29715(17)
O3Q O 0.0181(4) 0.1831(4) 0.70285(17)
O3B O 0.1650(6) 0.1831(4) 0.70285(17)
O3T O 0.8169(4) 0.9819(4) 0.79715(17)
O3G O 0.8169(4) 0.8350(6) 0.79715(17)
O3Q_2 O 1.0181(4) 1.1831(4) 0.70285(17)
O3B_2 O 1.1650(6) 1.1831(4) 0.70285(17)
O3K O 1.0181(4) 1.1831(4) 0.79715(17)
O3A O 1.0181(4) 0.8350(6) 0.70285(17)
O3O O 1.0181(4) 0.8350(6) 0.79715(17)
O3W O 0.9819(4) 0.8169(4) 0.20285(17)
O3L_2 O 1.1831(4) 1.0181(4) 0.29715(17)
O3H O 1.1831(4) 1.0181(4) 0.20285(17)
O4E O 0.4287(3) 0.5713(3) 0.4727(2)
O4A O 0.5713(3) 1.1426(4) 0.5273(2)
O4M O 0.4287(3) 0.8574(4) 0.4727(2)
O4N O 1.1426(4) 0.5713(3) 0.4727(2)
O4B O 0.8574(4) 0.4287(3) 0.5273(2)
O4M_2 O 0.4287(3) -0.1426(4) 0.4727(2)
O4B_2 O -0.1426(4) 0.4287(3) 0.5273(2)
O5B O 0.7356(7) 0.4711(6) 0.5938(3)
O5E O 0.2645(3) 0.5289(6) 0.4062(3)
O5J O 0.4711(6) 0.7356(7) 0.4062(3)
O5V O 0.5289(6) 1.2644(7) 0.5938(3)
O5U O 0.7356(7) 1.2645(3) 0.5938(3)
O5E_2 O 1.2645(3) 0.5289(6) 0.4062(3)
O5M O 1.2645(3) 0.7356(7) 0.4062(3)
O5L O 0.4711(6) -0.2645(3) 0.4062(3)
O5M_2 O 0.2645(3) -0.2644(7) 0.4062(3)
O5A O -0.2645(3) 0.2644(7) 0.5938(3)
O5B_2 O -0.2644(7) 0.4711(6) 0.5938(3)
O6V O 0.6201(4) 1.0417(6) 0.59851(18)
O6E O 0.5784(5) 0.6201(4) 0.40149(18)
O6N O 1.0417(6) 0.6201(4) 0.40149(18)
O6L O 0.3799(4) 0.4216(5) 0.40149(18)
O6J O 0.3799(4) -0.0417(6) 0.40149(18)
O6Q O 0.4216(5) 0.3799(4) 0.59851(18)
O6B O -0.0417(6) 0.3799(4) 0.59851(18)
O6T O 0.6201(4) 0.5784(5) 0.90149(18)
O6G O 0.6201(4) 1.0417(6) 0.90149(18)
O6Q_2 O 1.4216(5) 1.3799(4) 0.59851(18)
O6B_2 O 0.9583(6) 1.3799(4) 0.59851(18)
O6A O 0.4216(5) 1.0417(6) 0.59851(18)
O6I O 1.0417(6) 0.4216(5) 0.40149(18)
O6M O 0.5784(5) -0.0417(6) 0.40149(18)
O6U O -0.0417(6) 0.5784(5) 0.59851(18)
O7E O 0.4237(4) 0.5763(4) 0.3407(3)
O7A O 0.5763(4) 1.1526(6) 0.6593(3)
O7N O 1.1526(6) 0.5763(4) 0.3407(3)
O7M O 0.4237(4) -0.1526(6) 0.3407(3)
O7B O -0.1526(6) 0.4237(4) 0.6593(3)
O8V O 0.5723(4) 0.9459(6) 0.54178(19)
O8E O 0.6264(5) 0.5723(4) 0.45822(19)
O8N O 0.9459(6) 0.5723(4) 0.45822(19)
O8L O 0.4277(4) 0.3736(5) 0.45822(19)
O8J O 0.4277(4) 0.0541(6) 0.45822(19)
O8Q O 0.3736(5) 0.4277(4) 0.54178(19)
O8B O 0.0541(6) 0.4277(4) 0.54178(19)
O8T O 0.5723(4) 0.6264(5) 0.95822(19)
O8G O 0.5723(4) 0.9459(6) 0.95822(19)
O8Q_2 O 1.3736(5) 1.4277(4) 0.54178(19)
O8B_2 O 1.0541(6) 1.4277(4) 0.54178(19)
O8A O 0.3736(5) 0.9459(6) 0.54178(19)
O8M O 0.6264(5) 1.0541(6) 0.45822(19)
O8J_2 O 0.4277(4) 1.0541(6) 0.45822(19)
O8B_3 O 1.0541(6) 0.4277(4) 0.54178(19)
O8U O 1.0541(6) 0.6264(5) 0.54178(19)
O8I O 0.9459(6) 0.3736(5) 0.45822(19)
C1E C 0.8968(4) 0.7936(8) 0.3112(3)
C1L C 0.2064(8) 0.1032(4) 0.3112(3)
C1B C 0.1032(9) 0.2064(8) 0.6888(3)
C1G C 0.7936(8) 0.8968(9) 0.8112(3)
C1B_2 C 1.1032(9) 1.2064(8) 0.6888(3)
C2V C 0.6089(6) 0.9682(8) 0.5773(2)
C2E C 0.6407(6) 0.6089(6) 0.4227(2)
C2N C 0.9682(8) 0.6089(6) 0.4227(2)
C2L C 0.3911(6) 0.3593(6) 0.4227(2)
C2J C 0.3911(6) 0.0318(8) 0.4227(2)
C2Q C 0.3593(6) 0.3911(6) 0.5773(2)
C2B C 0.0318(8) 0.3911(6) 0.5773(2)
C2T C 0.6089(6) 0.6407(6) 0.9227(2)
C2G C 0.6089(6) 0.9682(8) 0.9227(2)
C2Q_2 C 1.3593(6) 1.3911(6) 0.5773(2)
C2B_2 C 1.0318(8) 1.3911(6) 0.5773(2)
C3E C 0.8632(4) 0.7264(8) 0.3494(3)
C3L C 0.2736(8) 0.1368(4) 0.3494(3)
C3B C 0.1368(9) 0.2736(8) 0.6506(3)
C3G C 0.7264(8) 0.8632(9) 0.8494(3)
C3B_2 C 1.1368(9) 1.2736(8) 0.6506(3)
C4E C 0.8064(9) 0.6128(4) 0.4215(3)
C4L C 0.3872(4) 0.1936(9) 0.4215(3)
C4B C 0.1936(10) 0.3872(4) 0.5785(3)
C4G C 0.6128(4) 0.8064(10) 0.9215(3)
C4B_2 C 1.1936(10) 1.3872(4) 0.5785(3)
H1E H 0.7877 0.5754 0.4456
H1L H 0.4246 0.2123 0.4456
H1B H 0.2123 0.4246 0.5544
H1G H 0.5754 0.7877 0.9456
H1B_2 H 1.2123 1.4246 0.5544
C5V C 0.6412(6) 0.9006(8) 0.5969(2)
C5E C 0.7406(6) 0.6412(6) 0.4031(2)
C5N C 0.9006(8) 0.6412(6) 0.4031(2)
C5L C 0.3588(6) 0.2594(6) 0.4031(2)
C5J C 0.3588(6) 0.0994(8) 0.4031(2)
C5Q C 0.2594(6) 0.3588(6) 0.5969(2)
C5B C 0.0994(8) 0.3588(6) 0.5969(2)
C5T C 0.6412(6) 0.7406(6) 0.9031(2)
C5G C 0.6412(6) 0.9006(8) 0.9031(2)
C5Q_2 C 1.2594(6) 1.3588(6) 0.5969(2)
C5B_2 C 1.0994(8) 1.3588(6) 0.5969(2)
C6V C 0.6980(6) 0.9279(8) 0.6327(2)
C6E C 0.7701(5) 0.6980(6) 0.3673(2)
C6N C 0.9279(8) 0.6980(6) 0.3673(2)
C6L C 0.3020(6) 0.2299(5) 0.3673(2)
C6J C 0.3020(6) 0.0721(8) 0.3673(2)
C6Q C 0.2299(5) 0.3020(6) 0.6327(2)
C6B C 0.0721(8) 0.3020(6) 0.6327(2)
C6T C 0.6980(6) 0.7701(5) 0.8673(2)
C6G C 0.6980(6) 0.9279(8) 0.8673(2)
C6Q_2 C 1.2299(5) 1.3020(6) 0.6327(2)
C6B_2 C 1.0721(8) 1.3020(6) 0.6327(2)
H2V H 0.7172 0.9898 0.6448
H2E H 0.7274 0.7172 0.3552
H2N H 0.9898 0.7172 0.3552
H2L H 0.2828 0.2726 0.3552
H2J H 0.2828 0.0102 0.3552
H2Q H 0.2726 0.2828 0.6448
H2B H 0.0102 0.2828 0.6448
H2T H 0.7172 0.7274 0.8552
H2G H 0.7172 0.9898 0.8552
H2Q_2 H 1.2726 1.2828 0.6448
H2B_2 H 1.0102 1.2828 0.6448
O9 O 0.6667 0.3333 0.4850(5)
O10 O 0.3745(18) 0.1873(9) 0.5294(6)
O11 O 0.4860(13) 0.5140(13) 0.6940(10)
O12 O 0.7835(14) 0.2165(14) 0.6837(10)
O13 O 1.025(3) 0.377(2) 0.7500
loop_
_geom_bond_atom_site_label_1
_geom_bond_atom_site_label_2
_geom_bond_site_symmetry_1
_geom_bond_site_symmetry_2
In1 O4 1_555 1_555
In2 O4 1_555 1_555
In3 O1 1_555 1_555
O2 In3 1_555 1_555
O3 In3 1_555 1_555
O5 In1 1_555 1_555
O6 In1 1_555 1_555
O7 In1 1_555 1_555
O8 In2 1_555 1_555
C1 O3 1_555 1_555
C2 O6 1_555 1_555
C3 C1 1_555 1_555
C4 H1 1_555 1_555
C5 C2 1_555 1_555
C6 C3 1_555 1_555
H2 C6 1_555 1_555
In1E O4E 1_555 1_555
In1A O4A 1_555 1_555
In1N O4N 1_555 1_555
In1M O4M_2 1_555 1_555
In1B O4B_2 1_555 1_555
In1A_2 O5 1_555 1_555
In1B_2 O4B 1_555 1_555
In1T O6T 1_555 1_555
In1G O6G 1_555 1_555
In1_2 O6Q_2 1_555 1_555
In1B_3 O5U 1_555 1_555
In1M_2 O4M 1_555 1_555
In1N_2 O5E 1_555 1_555
In1_3 O5V 1_555 1_555
In2A O4A 1_555 1_555
In2B O4N 1_555 1_555
In2A_2 O4M_2 1_555 1_555
In2B_2 O4B_2 1_555 1_555
In2T O8T 1_555 1_555
In2C O8G 1_555 1_555
In2_2 O8Q_2 1_555 1_555
In2B_3 O8B_2 1_555 1_555
In3A O2 1_555 1_555
In3E O1E 1_555 1_555
In3B O2 1_555 1_555
In3D O2C 1_555 1_555
In3E_2 O3L 1_555 1_555
In3C O3J 1_555 1_555
In3_2 O3Q 1_555 1_555
In3B_2 O3B 1_555 1_555
O1A In3A 1_555 1_555
O2C In3E 1_555 1_555
O3V C1 1_555 1_555
O3E In3E 1_555 1_555
O3N In3D 1_555 1_555
O3L C1L 1_555 1_555
O3J C1L 1_555 1_555
O3Q C1B 1_555 1_555
O3B C1B 1_555 1_555
O3T In3 1_555 1_555
O3G In3A 1_555 1_555
O3Q_2 In3 1_555 1_555
O3B_2 In3B 1_555 1_555
O3K In3 1_555 1_555
O3A In3A 1_555 1_555
O3O In3A 1_555 1_555
O3W In3E 1_555 1_555
O3L_2 In3E 1_555 1_555
O3H In3E 1_555 1_555
O4E In2 1_555 1_555
O4M In2A 1_555 1_555
O4B In2B 1_555 1_555
O5B In1 1_555 1_555
O5E In1E 1_555 1_555
O5J In1E 1_555 1_555
O5V In1A 1_555 1_555
O5U In1A 1_555 1_555
O5E_2 In1N 1_555 1_555
O5M In1N 1_555 1_555
O5L In1M 1_555 1_555
O5M_2 In1M 1_555 1_555
O5A In1B 1_555 1_555
O5B_2 In1B 1_555 1_555
O6V In1A 1_555 1_555
O6E In1E 1_555 1_555
O6N In1N 1_555 1_555
O6L In1E 1_555 1_555
O6J In1M 1_555 1_555
O6Q In1 1_555 1_555
O6B In1B 1_555 1_555
O6T C2T 1_555 1_555
O6G C2G 1_555 1_555
O6Q_2 C2Q_2 1_555 1_555
O6B_2 In1B_3 1_555 1_555
O6A In1A 1_555 1_555
O6I In1N 1_555 1_555
O6M In1M 1_555 1_555
O6U In1B 1_555 1_555
O7E In1E 1_555 1_555
O7A In1A 1_555 1_555
O7N In1N 1_555 1_555
O7M In1M 1_555 1_555
O7B In1B 1_555 1_555
O8V In2A 1_555 1_555
O8E In2 1_555 1_555
O8N In2B 1_555 1_555
O8L In2 1_555 1_555
O8J In2A_2 1_555 1_555
O8Q In2 1_555 1_555
O8B In2B_2 1_555 1_555
O8T C2T 1_555 1_555
O8G C2G 1_555 1_555
O8Q_2 C2Q_2 1_555 1_555
O8B_2 C2B_2 1_555 1_555
O8A In2A 1_555 1_555
O8M In2A 1_555 1_555
O8J_2 In2A 1_555 1_555
O8B_3 In2B 1_555 1_555
O8U In2B 1_555 1_555
O8I In2B 1_555 1_555
C1E O3E 1_555 1_555
C1L C3L 1_555 1_555
C1B C3B 1_555 1_555
C1G O3T 1_555 1_555
C1B_2 O3Q_2 1_555 1_555
C2V O6V 1_555 1_555
C2E O6E 1_555 1_555
C2N O6N 1_555 1_555
C2L O6L 1_555 1_555
C2J O6J 1_555 1_555
C2Q O6Q 1_555 1_555
C2B O6B 1_555 1_555
C2T C5T 1_555 1_555
C2G C5G 1_555 1_555
C2Q_2 C5Q_2 1_555 1_555
C2B_2 O6B_2 1_555 1_555
C3E C1E 1_555 1_555
C3L C6L 1_555 1_555
C3B C6Q 1_555 1_555
C3G C1G 1_555 1_555
C3B_2 C1B_2 1_555 1_555
C4E H1E 1_555 1_555
C4L H1L 1_555 1_555
C4B H1B 1_555 1_555
C4G H1G 1_555 1_555
C4B_2 H1B_2 1_555 1_555
C5V C4 1_555 1_555
C5E C2E 1_555 1_555
C5N C2N 1_555 1_555
C5L C2L 1_555 1_555
C5J C2J 1_555 1_555
C5Q C2Q 1_555 1_555
C5B C2B 1_555 1_555
C5T C4G 1_555 1_555
C5G C4G 1_555 1_555
C5Q_2 C4B_2 1_555 1_555
C5B_2 C2B_2 1_555 1_555
C6V C3 1_555 1_555
C6E C3E 1_555 1_555
C6N C3E 1_555 1_555
C6L C5L 1_555 1_555
C6J C3L 1_555 1_555
C6Q C5Q 1_555 1_555
C6B C3B 1_555 1_555
C6T C3G 1_555 1_555
C6G C3G 1_555 1_555
C6Q_2 C3B_2 1_555 1_555
C6B_2 C3B_2 1_555 1_555
H2V C6V 1_555 1_555
H2E C6E 1_555 1_555
H2N C6N 1_555 1_555
H2L C6L 1_555 1_555
H2J C6J 1_555 1_555
H2Q C6Q 1_555 1_555
H2B C6B 1_555 1_555
H2T C6T 1_555 1_555
H2G C6G 1_555 1_555
H2Q_2 C6Q_2 1_555 1_555
H2B_2 C6B_2 1_555 1_555
O8 C2 1_555 1_555
C4 C5 1_555 1_555
C5 C6 1_555 1_555
In1B_2 O5B 1_555 1_555
In1M_2 O5J 1_555 1_555
In3A O3V 1_555 1_555
O3N C1E 1_555 1_555
O3G C1G 1_555 1_555
O3B_2 C1B_2 1_555 1_555
O8V C2V 1_555 1_555
O8E C2E 1_555 1_555
O8N C2N 1_555 1_555
O8L C2L 1_555 1_555
O8J C2J 1_555 1_555
O8Q C2Q 1_555 1_555
O8B C2B 1_555 1_555
C2V C5V 1_555 1_555
C4E C5E 1_555 1_555
C4E C5N 1_555 1_555
C4L C5L 1_555 1_555
C4L C5J 1_555 1_555
C4B C5Q 1_555 1_555
C4B C5B 1_555 1_555
C4B_2 C5B_2 1_555 1_555
C5V C6V 1_555 1_555
C5E C6E 1_555 1_555
C5N C6N 1_555 1_555
C5J C6J 1_555 1_555
C5B C6B 1_555 1_555
C5T C6T 1_555 1_555
C5G C6G 1_555 1_555
C5Q_2 C6Q_2 1_555 1_555
C5B_2 C6B_2 1_555 1_555

#END
