
#######################################################################
#
#                 Cambridge Crystallographic Data Centre
#                                CCDC 
#
#######################################################################
#
# If this CIF has been generated from an entry in the Cambridge 
# Structural Database, then it will include bibliographic, chemical, 
# crystal, experimental, refinement or atomic coordinate data resulting 
# from the CCDC's data processing and validation procedures.
#
#######################################################################

data_PIBFEM
_symmetry_cell_setting           monoclinic
_symmetry_space_group_name_H-M   'P 21/n'
_symmetry_Int_Tables_number      14
_space_group_name_Hall           '-P 2yn'
loop_
_symmetry_equiv_pos_site_id
_symmetry_equiv_pos_as_xyz
1 x,y,z
2 1/2-x,1/2+y,1/2-z
3 -x,-y,-z
4 1/2+x,1/2-y,1/2+z
_cell_length_a                   9.0082(10)
_cell_length_b                   12.6973(14)
_cell_length_c                   11.2557(13)
_cell_angle_alpha                90
_cell_angle_beta                 103.031(2)
_cell_angle_gamma                90
_cell_volume                     1254.27
loop_
_atom_site_label
_atom_site_type_symbol
_atom_site_fract_x
_atom_site_fract_y
_atom_site_fract_z
Co1 Co 0.0000 1.0000 0.5000
S1 S 0.43082(10) 1.02842(10) 0.68464(8)
O1 O 0.4283(2) 1.15422(19) 0.4948(2)
O2 O 0.1238(3) 0.9022(2) 0.6376(2)
H1 H 0.2192 0.9109 0.6629
H2 H 0.0785 0.8537 0.6678
N1 N 0.2042(3) 1.0857(2) 0.4912(2)
N2 N 0.1935(3) 1.1479(2) 0.3867(3)
N3 N 0.4492(3) 1.3906(2) 0.1343(2)
C1 C 0.3462(3) 1.0895(2) 0.5539(3)
C2 C 0.3260(4) 1.1862(3) 0.3940(3)
C3 C 0.3720(4) 1.2552(3) 0.3044(3)
C4 C 0.2615(4) 1.2957(3) 0.2109(3)
H9 H 0.1597 1.2781 0.2037
C5 C 0.3036(4) 1.3630(3) 0.1277(3)
H10 H 0.2282 1.3902 0.0648
C6 C 0.5555(4) 1.3504(3) 0.2260(3)
H11 H 0.6568 1.3687 0.2315
C7 C 0.5223(4) 1.2839(3) 0.3116(3)
H12 H 0.5995 1.2582 0.3741
Co1C Co 0.5000 1.5000 0.0000
Co1C_2 Co -0.5000 0.5000 1.0000
S1B S -0.43082(10) 0.97158(10) 0.31536(8)
O1B O -0.4283(2) 0.84578(19) 0.5052(2)
O2B O -0.1238(3) 1.0978(2) 0.3624(2)
H1B H -0.2192 1.0891 0.3371
H2B H -0.0785 1.1463 0.3322
N1B N -0.2042(3) 0.9143(2) 0.5088(2)
N2B N -0.1935(3) 0.8521(2) 0.6133(3)
N3B N -0.4492(3) 0.6094(2) 0.8657(2)
N3C N -0.0508(3) 1.1094(2) 0.6343(2)
N3A N 0.0508(3) 0.8906(2) 0.3657(2)
C1B C -0.3462(3) 0.9105(2) 0.4461(3)
C2B C -0.3260(4) 0.8138(3) 0.6060(3)
C3B C -0.3720(4) 0.7448(3) 0.6956(3)
C4B C -0.2615(4) 0.7043(3) 0.7891(3)
H9B H -0.1597 0.7219 0.7963
C5B C -0.3036(4) 0.6370(3) 0.8723(3)
H10B H -0.2282 0.6098 0.9352
C6B C -0.5555(4) 0.6496(3) 0.7740(3)
H11B H -0.6568 0.6313 0.7685
C7B C -0.5223(4) 0.7161(3) 0.6884(3)
H12B H -0.5995 0.7418 0.6259
O3 O 0.076(3) 0.6935(12) 0.586(2)
H3 H 0.0919 0.6721 0.6591
H4 H 0.0416 0.6512 0.5275
O4 O 0.004(4) 1.0739(14) 0.0961(8)
H5 H -0.0144 1.0130 0.0648
H6 H 0.0182 1.1255 0.0519
O5 O 0.277(4) 1.431(2) 0.5346(14)
H7 H 0.3096 1.4601 0.6034
H8 H 0.2683 1.4660 0.4693
loop_
_geom_bond_atom_site_label_1
_geom_bond_atom_site_label_2
_geom_bond_site_symmetry_1
_geom_bond_site_symmetry_2
Co1 O2 1_555 1_555
S1 C1 1_555 1_555
O1 C1 1_555 1_555
O2 H1 1_555 1_555
H2 O2 1_555 1_555
O3 H3 1_555 1_555
H4 O3 1_555 1_555
O4 H5 1_555 1_555
H6 O4 1_555 1_555
O5 H7 1_555 1_555
H8 O5 1_555 1_555
N1 Co1 1_555 1_555
N2 N1 1_555 1_555
N3 C5 1_555 1_555
C1 N1 1_555 1_555
C2 O1 1_555 1_555
C3 C2 1_555 1_555
C4 C3 1_555 1_555
H9 C4 1_555 1_555
C5 C4 1_555 1_555
H10 C5 1_555 1_555
C6 N3 1_555 1_555
H11 C6 1_555 1_555
C7 C3 1_555 1_555
H12 C7 1_555 1_555
Co1C N3 1_555 1_555
Co1C_2 N3B 1_555 1_555
S1B C1B 1_555 1_555
O1B C1B 1_555 1_555
O2B Co1 1_555 1_555
H1B O2B 1_555 1_555
H2B O2B 1_555 1_555
N1B Co1 1_555 1_555
N2B N1B 1_555 1_555
N3B C5B 1_555 1_555
N3C Co1 1_555 1_555
N3A Co1 1_555 1_555
C1B N1B 1_555 1_555
C2B O1B 1_555 1_555
C3B C2B 1_555 1_555
C4B C3B 1_555 1_555
H9B C4B 1_555 1_555
C5B C4B 1_555 1_555
H10B C5B 1_555 1_555
C6B N3B 1_555 1_555
H11B C6B 1_555 1_555
C7B C3B 1_555 1_555
H12B C7B 1_555 1_555
N2 C2 1_555 1_555
C6 C7 1_555 1_555
N2B C2B 1_555 1_555
C6B C7B 1_555 1_555

#END
