
#######################################################################
#
#                 Cambridge Crystallographic Data Centre
#                                CCDC 
#
#######################################################################
#
# If this CIF has been generated from an entry in the Cambridge 
# Structural Database, then it will include bibliographic, chemical, 
# crystal, experimental, refinement or atomic coordinate data resulting 
# from the CCDC's data processing and validation procedures.
#
#######################################################################

data_PIBFIQ
_symmetry_cell_setting           triclinic
_symmetry_space_group_name_H-M   'P -1'
_symmetry_Int_Tables_number      2
_space_group_name_Hall           '-P 1'
loop_
_symmetry_equiv_pos_site_id
_symmetry_equiv_pos_as_xyz
1 x,y,z
2 -x,-y,-z
_cell_length_a                   9.8952(13)
_cell_length_b                   10.4155(14)
_cell_length_c                   16.092(2)
_cell_angle_alpha                94.363(2)
_cell_angle_beta                 103.852(2)
_cell_angle_gamma                90.173(2)
_cell_volume                     1605.21
loop_
_atom_site_label
_atom_site_type_symbol
_atom_site_fract_x
_atom_site_fract_y
_atom_site_fract_z
Cd1 Cd 0.17469(4) 0.13683(4) 0.18938(3)
Cd2 Cd -0.32226(4) 0.29079(4) 0.19471(3)
S1 S -0.10156(17) 0.32539(14) 0.31165(9)
S2 S -0.18001(16) -0.77460(14) 0.06647(9)
S3 S 0.39168(17) 0.13194(14) 0.30995(9)
S4 S 0.32695(17) 0.16839(15) 0.06419(10)
O1 O -0.1129(4) 0.0929(4) 0.3685(2)
O2 O -0.0662(4) -0.5354(4) 0.0892(2)
O3 O 0.3810(4) 0.3776(4) 0.3672(2)
O4 O 0.4422(4) -0.0630(4) 0.0899(3)
C1 C -0.0584(6) 0.1676(6) 0.3169(3)
C2 C -0.0554(6) -0.0245(5) 0.3585(4)
C3 C -0.0893(6) -0.1310(6) 0.4054(4)
C4 C -0.0329(7) -0.2508(6) 0.3929(4)
H1 H 0.0265 -0.2638 0.3563
C5 C -0.0680(8) -0.3505(7) 0.4368(4)
H2 H -0.0307 -0.4308 0.4282
C6 C -0.2020(8) -0.2234(8) 0.5018(4)
H3 H -0.259(6) -0.213(6) 0.536(4)
C7 C -0.1749(7) -0.1166(6) 0.4607(4)
H4 H -0.2139 -0.0375 0.4706
C8 C 0.2272(7) -0.1576(5) 0.1891(4)
H5 H 0.310(8) -0.127(8) 0.227(5)
C9 C 0.2066(6) -0.2883(6) 0.1826(4)
H6 H 0.2761 -0.3408 0.2104
C10 C 0.0818(6) -0.3418(5) 0.1342(3)
C11 C -0.0175(6) -0.2614(5) 0.0928(4)
H7 H -0.1023 -0.2942 0.0594
C12 C 0.0120(6) -0.1287(6) 0.1021(4)
H8 H -0.0552 -0.0739 0.0744
C13 C 0.0615(6) -0.4818(5) 0.1297(3)
C14 C -0.0489(6) -0.6653(5) 0.1020(3)
C15 C 0.4360(6) 0.2918(6) 0.3162(3)
C16 C 0.4411(6) 0.4923(5) 0.3590(4)
C17 C 0.4073(6) 0.6097(6) 0.4049(4)
C18 C 0.3253(7) 0.6074(7) 0.4627(4)
H9 H 0.2883 0.5302 0.4738
C19 C 0.2987(8) 0.7237(8) 0.5042(4)
H10 H 0.2429 0.7216 0.5430
C20 C 0.4274(8) 0.8383(7) 0.4358(5)
H11 H 0.4613 0.9172 0.4251
C21 C 0.4627(7) 0.7271(6) 0.3918(4)
H12 H 0.5217 0.7316 0.3549
C22 C 0.4586(6) 0.0695(5) 0.1032(3)
C23 C 0.5671(6) -0.1064(5) 0.1341(4)
C24 C 0.5888(6) -0.2432(5) 0.1390(4)
C25 C 0.7136(6) -0.2848(5) 0.1903(4)
H13 H 0.7820 -0.2257 0.2200
C26 C 0.7323(7) -0.4123(6) 0.1956(4)
H14 H 0.8159 -0.4384 0.2296
C27 C 0.5205(7) -0.4644(6) 0.1078(4)
H15 H 0.4540 -0.5266 0.0800
C28 C 0.4902(7) -0.3361(5) 0.0971(4)
H16 H 0.405(6) -0.305(5) 0.064(3)
N1 N 0.0217(5) 0.0978(5) 0.2789(3)
N2 N 0.0244(6) -0.0269(5) 0.3065(3)
N3 N -0.1507(7) -0.3387(6) 0.4899(4)
N4 N 0.1323(5) -0.0779(5) 0.1489(3)
N5 N 0.1510(5) -0.5643(5) 0.1620(3)
N6 N 0.0789(5) -0.6840(4) 0.1430(3)
N7 N 0.5204(6) 0.3510(5) 0.2801(3)
N8 N 0.5232(6) 0.4820(5) 0.3087(3)
N9 N 0.3487(7) 0.8377(6) 0.4915(4)
N10 N 0.5814(5) 0.0989(4) 0.1496(3)
N11 N 0.6528(5) -0.0137(5) 0.1704(3)
N12 N 0.6404(5) -0.5032(4) 0.1559(3)
Cd1_2 Cd 0.17469(4) -0.86317(4) 0.18938(3)
Cd2_2 Cd -0.32226(4) -0.70921(4) 0.19471(3)
Cd2_3 Cd 0.67774(4) 0.29079(4) 0.19471(3)
Cd2_4 Cd 0.67774(4) -0.70921(4) 0.19471(3)
S2_2 S -0.18001(16) 0.22540(14) 0.06647(9)
N6_2 N 0.0789(5) 0.3160(4) 0.1430(3)
N7_2 N -0.4796(6) 0.3510(5) 0.2801(3)
N10_2 N -0.4186(5) 0.0989(4) 0.1496(3)
N12_2 N -0.3596(5) 0.4968(4) 0.1559(3)
loop_
_geom_bond_atom_site_label_1
_geom_bond_atom_site_label_2
_geom_bond_site_symmetry_1
_geom_bond_site_symmetry_2
Cd1 S3 1_555 1_555
Cd2 S1 1_555 1_555
S1 C1 1_555 1_555
S2 C14 1_555 1_555
S3 C15 1_555 1_555
S4 Cd1 1_555 1_555
O1 C1 1_555 1_555
O2 C13 1_555 1_555
O3 C15 1_555 1_555
O4 C22 1_555 1_555
C1 N1 1_555 1_555
C2 O1 1_555 1_555
C3 C2 1_555 1_555
C4 C3 1_555 1_555
H1 C4 1_555 1_555
C5 C4 1_555 1_555
H2 C5 1_555 1_555
C6 H3 1_555 1_555
C7 C3 1_555 1_555
H4 C7 1_555 1_555
C8 H5 1_555 1_555
C9 C8 1_555 1_555
H6 C9 1_555 1_555
C10 C9 1_555 1_555
C11 C10 1_555 1_555
H7 C11 1_555 1_555
C12 C11 1_555 1_555
H8 C12 1_555 1_555
C13 C10 1_555 1_555
C14 O2 1_555 1_555
C15 N7 1_555 1_555
C16 O3 1_555 1_555
C17 C16 1_555 1_555
C18 C17 1_555 1_555
H9 C18 1_555 1_555
C19 C18 1_555 1_555
H10 C19 1_555 1_555
C20 H11 1_555 1_555
C21 C17 1_555 1_555
H12 C21 1_555 1_555
C22 S4 1_555 1_555
C23 O4 1_555 1_555
C24 C23 1_555 1_555
C25 C24 1_555 1_555
H13 C25 1_555 1_555
C26 C25 1_555 1_555
H14 C26 1_555 1_555
C27 H15 1_555 1_555
C28 C24 1_555 1_555
H16 C28 1_555 1_555
N1 Cd1 1_555 1_555
N2 C2 1_555 1_555
N3 C5 1_555 1_555
N4 Cd1 1_555 1_555
N5 C13 1_555 1_555
N6 C14 1_555 1_555
N7 N8 1_555 1_555
N8 C16 1_555 1_555
N9 C19 1_555 1_555
N10 C22 1_555 1_555
N11 C23 1_555 1_555
N12 C26 1_555 1_555
Cd1_2 N6 1_555 1_555
Cd2_2 S2 1_555 1_555
Cd2_3 N7 1_555 1_555
Cd2_4 N12 1_555 1_555
S2_2 Cd2 1_555 1_555
N6_2 Cd1 1_555 1_555
N7_2 Cd2 1_555 1_555
N10_2 Cd2 1_555 1_555
N12_2 Cd2 1_555 1_555
C6 C7 1_555 1_555
C6 N3 1_555 1_555
C8 N4 1_555 1_555
C12 N4 1_555 1_555
C20 C21 1_555 1_555
C20 N9 1_555 1_555
C27 C28 1_555 1_555
C27 N12 1_555 1_555
N1 N2 1_555 1_555
N5 N6 1_555 1_555
N10 N11 1_555 1_555
N10 Cd2_3 1_555 1_555

#END
