
#######################################################################
#
#                 Cambridge Crystallographic Data Centre
#                                CCDC 
#
#######################################################################
#
# If this CIF has been generated from an entry in the Cambridge 
# Structural Database, then it will include bibliographic, chemical, 
# crystal, experimental, refinement or atomic coordinate data resulting 
# from the CCDC's data processing and validation procedures.
#
#######################################################################

data_PIBLUJ
_symmetry_cell_setting           monoclinic
_symmetry_space_group_name_H-M   'P 21/c'
_symmetry_Int_Tables_number      14
_space_group_name_Hall           '-P 2ybc'
loop_
_symmetry_equiv_pos_site_id
_symmetry_equiv_pos_as_xyz
1 x,y,z
2 -x,1/2+y,1/2-z
3 -x,-y,-z
4 x,1/2-y,1/2+z
_cell_length_a                   20.1818(3)
_cell_length_b                   30.2868(5)
_cell_length_c                   19.7451(3)
_cell_angle_alpha                90
_cell_angle_beta                 90.6880(6)
_cell_angle_gamma                90
_cell_volume                     12068.2
loop_
_atom_site_label
_atom_site_type_symbol
_atom_site_fract_x
_atom_site_fract_y
_atom_site_fract_z
Zn1 Zn -0.27222(5) 1.17882(3) 0.44768(5)
Zn2 Zn -0.31892(5) 1.07406(3) 0.54814(4)
Zn3 Zn -0.33908(5) 0.92652(3) 0.04890(4)
Zn4 Zn -0.38718(5) 0.82354(3) -0.05530(5)
O1 O -0.2659(3) 1.1983(2) 0.5445(3)
O2 O -0.3110(4) 1.1363(2) 0.5832(3)
O3 O -0.2594(3) 1.2863(2) 0.8648(3)
O4 O -0.2803(4) 1.2214(3) 0.9118(3)
O5 O -0.2758(3) 1.1209(2) 0.3985(3)
O6 O -0.3188(3) 1.0608(2) 0.4485(3)
O7 O -0.3333(3) 0.9512(2) 0.1426(3)
O8 O -0.3188(4) 1.0130(3) 0.0857(3)
O9 O -0.3331(3) 0.9431(2) -0.0495(3)
O10 O -0.3797(3) 0.8834(2) -0.0979(3)
O11 O -0.3188(3) 1.0475(2) -0.3588(3)
O12 O -0.3417(3) 0.9853(2) -0.4141(3)
O13 O -0.3913(3) 0.7932(2) -0.1443(3)
O14 O -0.3877(4) 0.7280(3) -0.0935(3)
O15 O -0.3420(4) 0.6357(2) -0.4161(4)
O16 O -0.3858(3) 0.6973(2) -0.4594(3)
O17 O 0.0756(4) 1.1868(3) 0.5512(4)
O18 O 0.3813(3) 1.1478(2) 0.3704(4)
O19 O 0.0260(4) 1.0519(3) 0.4526(4)
O20 O 0.3353(3) 1.0984(2) 0.6332(3)
O21 O 0.0072(4) 0.9481(4) -0.0432(4)
O22 O 0.3165(3) 0.9031(2) 0.1360(4)
O23 O -0.0388(4) 0.7942(3) 0.0343(4)
O24 O 0.2648(3) 0.8487(2) -0.1442(4)
N1 N -0.2108(4) 1.0666(2) 0.5475(4)
N2 N -0.0024(4) 1.0669(3) 0.5575(5)
H1 H 0.0134 1.0739 0.5978
N3 N 0.3667(4) 1.0693(2) 0.5322(4)
H2 H 0.3521 1.0578 0.4939
N4 N 0.5760(3) 1.0770(2) 0.5426(4)
N5 N -0.1640(4) 1.1700(3) 0.4552(4)
N6 N 0.0442(4) 1.1705(3) 0.4436(4)
H3 H 0.0592 1.1661 0.4024
N7 N 0.4139(4) 1.1832(2) 0.4675(4)
H4 H 0.3995 1.1953 0.5051
N8 N 0.6214(3) 1.1827(2) 0.4506(3)
N9 N -0.2315(4) 0.9218(3) 0.0469(3)
N10 N -0.0243(4) 0.9171(4) 0.0548(5)
H5 H -0.0083 0.9049 0.0919
N11 N 0.3470(4) 0.9337(3) 0.0340(4)
H6 H 0.3316 0.9445 -0.0044
N12 N 0.5532(4) 0.9317(3) 0.0459(4)
N13 N -0.2786(3) 0.8179(2) -0.0549(3)
N14 N -0.0710(4) 0.8162(4) -0.0690(5)
H7 H -0.0559 0.8246 -0.1087
N15 N 0.2986(3) 0.8234(3) -0.0422(5)
H8 H 0.2845 0.8133 -0.0031
N16 N 0.5062(4) 0.8293(2) -0.0490(4)
C1 C -0.2768(4) 1.1900(3) 0.6616(4)
C2 C -0.2576(5) 1.2336(3) 0.6717(5)
H9 H -0.2463 1.2512 0.6338
C3 C -0.2546(5) 1.2517(3) 0.7361(4)
H10 H -0.2421 1.2817 0.7421
C4 C -0.2699(4) 1.2259(3) 0.7918(4)
C5 C -0.2876(5) 1.1819(3) 0.7821(5)
H11 H -0.2967 1.1638 0.8202
C6 C -0.2922(5) 1.1641(3) 0.7174(5)
H12 H -0.3058 1.1343 0.7113
C7 C -0.2849(4) 1.1732(3) 0.5911(4)
C8 C -0.2692(4) 1.2453(3) 0.8628(4)
C9 C -0.3025(4) 1.0596(3) 0.3307(4)
C10 C -0.2949(5) 1.0830(3) 0.2702(5)
H13 H -0.2863 1.1138 0.2708
C11 C -0.3004(5) 1.0601(3) 0.2091(5)
H14 H -0.2950 1.0758 0.1679
C12 C -0.3130(4) 1.0163(3) 0.2066(4)
C13 C -0.3188(4) 0.9925(3) 0.2660(4)
H15 H -0.3250 0.9614 0.2645
C14 C -0.3156(4) 1.0143(3) 0.3280(4)
H16 H -0.3223 0.9983 0.3687
C15 C -0.2994(4) 1.0820(3) 0.3979(4)
C16 C -0.3217(4) 0.9932(4) 0.1391(4)
C17 C -0.3435(4) 0.9415(3) -0.1680(4)
C18 C -0.3567(4) 0.9180(3) -0.2281(4)
H17 H -0.3693 0.8878 -0.2264
C19 C -0.3510(5) 0.9393(3) -0.2897(5)
H18 H -0.3604 0.9236 -0.3304
C20 C -0.3319(4) 0.9834(3) -0.2930(4)
C21 C -0.3182(5) 1.0063(3) -0.2345(4)
H19 H -0.3055 1.0365 -0.2367
C22 C -0.3229(5) 0.9857(3) -0.1726(4)
H20 H -0.3121 1.0015 -0.1324
C23 C -0.3515(4) 0.9212(3) -0.0998(5)
C24 C -0.3306(4) 1.0065(3) -0.3617(4)
C25 C -0.3774(4) 0.7314(3) -0.2131(4)
C26 C -0.3830(5) 0.7577(3) -0.2715(5)
H21 H -0.3888 0.7887 -0.2675
C27 C -0.3801(5) 0.7382(3) -0.3349(4)
H22 H -0.3864 0.7556 -0.3744
C28 C -0.3680(4) 0.6934(3) -0.3407(4)
C29 C -0.3595(4) 0.6673(3) -0.2833(5)
H23 H -0.3496 0.6368 -0.2875
C30 C -0.3657(4) 0.6863(3) -0.2200(4)
H24 H -0.3620 0.6684 -0.1807
C31 C -0.3856(4) 0.7518(3) -0.1445(5)
C32 C -0.3654(4) 0.6733(3) -0.4104(4)
C33 C -0.1742(4) 1.0546(3) 0.4954(5)
H25 H -0.1968 1.0460 0.4550
C34 C -0.1059(5) 1.0534(3) 0.4952(5)
H26 H -0.0827 1.0447 0.4558
C35 C -0.0722(5) 1.0652(3) 0.5529(5)
C36 C -0.1100(5) 1.0786(4) 0.6088(6)
H27 H -0.0885 1.0872 0.6497
C37 C -0.1771(5) 1.0792(4) 0.6042(5)
H28 H -0.2015 1.0888 0.6423
C38 C 0.0423(4) 1.0599(3) 0.5119(5)
C39 C 0.1136(5) 1.0634(3) 0.5311(6)
C40 C 0.1350(5) 1.0744(4) 0.5947(6)
H29 H 0.1033 1.0792 0.6291
C41 C 0.2025(5) 1.0788(4) 0.6105(6)
H30 H 0.2169 1.0851 0.6554
C42 C 0.2497(5) 1.0734(3) 0.5568(6)
C43 C 0.2272(5) 1.0632(4) 0.4949(5)
H31 H 0.2579 1.0590 0.4594
C44 C 0.1598(5) 1.0586(4) 0.4812(6)
H32 H 0.1454 1.0520 0.4364
C45 C 0.3199(5) 1.0820(3) 0.5799(5)
C46 C 0.5388(5) 1.0939(3) 0.5921(5)
H33 H 0.5611 1.1069 0.6298
C47 C 0.4711(5) 1.0938(3) 0.5922(5)
H34 H 0.4478 1.1078 0.6278
C48 C 0.4374(4) 1.0737(3) 0.5414(4)
C49 C 0.4737(5) 1.0554(4) 0.4877(5)
H35 H 0.4517 1.0422 0.4500
C50 C 0.5409(5) 1.0573(4) 0.4911(5)
H36 H 0.5651 1.0440 0.4555
C51 C -0.1304(5) 1.1572(4) 0.4003(5)
H37 H -0.1554 1.1481 0.3616
C52 C -0.0641(5) 1.1564(4) 0.3960(5)
H38 H -0.0439 1.1473 0.3552
C53 C -0.0245(4) 1.1689(3) 0.4518(5)
C54 C -0.0582(5) 1.1806(4) 0.5088(5)
H39 H -0.0347 1.1888 0.5489
C55 C -0.1269(5) 1.1803(4) 0.5078(5)
H40 H -0.1488 1.1883 0.5484
C56 C 0.0904(5) 1.1783(3) 0.4936(5)
C57 C 0.1603(5) 1.1766(3) 0.4728(5)
C58 C 0.2088(5) 1.1831(3) 0.5235(5)
H41 H 0.1956 1.1892 0.5686
C59 C 0.2760(5) 1.1808(3) 0.5087(5)
H42 H 0.3080 1.1853 0.5437
C60 C 0.2964(4) 1.1722(3) 0.4446(4)
C61 C 0.2513(5) 1.1645(4) 0.3942(5)
H43 H 0.2655 1.1568 0.3500
C62 C 0.1831(5) 1.1680(4) 0.4088(6)
H44 H 0.1517 1.1643 0.3729
C63 C 0.3683(4) 1.1658(3) 0.4226(5)
C64 C 0.5841(4) 1.1643(3) 0.4014(4)
H45 H 0.6058 1.1522 0.3632
C65 C 0.5145(4) 1.1621(3) 0.4034(5)
H46 H 0.4902 1.1470 0.3692
C66 C 0.4825(4) 1.1825(3) 0.4561(5)
C67 C 0.5216(5) 1.2049(3) 0.5050(5)
H47 H 0.5013 1.2200 0.5415
C68 C 0.5896(4) 1.2045(3) 0.4990(4)
H48 H 0.6152 1.2207 0.5312
C69 C -0.1943(12) 0.9106(9) 0.1039(13)
H49 H -0.2167 0.9030 0.1443
C70 C -0.1302(13) 0.9101(10) 0.1040(14)
H50 H -0.1086 0.9037 0.1458
C71 C -0.0916(4) 0.9178(4) 0.0512(5)
C72 C -0.1243(11) 0.9260(8) -0.0059(12)
H51 H -0.1007 0.9298 -0.0468
C73 C -0.1929(11) 0.9291(8) -0.0062(12)
H52 H -0.2141 0.9371 -0.0477
C74 C 0.0225(5) 0.9317(4) 0.0123(5)
C75 C 0.0925(5) 0.9276(4) 0.0296(5)
C76 C 0.1417(10) 0.9310(7) -0.0156(11)
H53 H 0.1289 0.9348 -0.0617
C77 C 0.2071(10) 0.9294(7) -0.0021(10)
H54 H 0.2375 0.9332 -0.0380
C78 C 0.2293(5) 0.9230(3) 0.0577(5)
C79 C 0.1838(10) 0.9164(7) 0.1150(11)
H55 H 0.1995 0.9118 0.1600
C80 C 0.1163(10) 0.9175(7) 0.0986(11)
H56 H 0.0849 0.9117 0.1329
C81 C 0.3012(5) 0.9185(3) 0.0818(5)
C82 C 0.5198(4) 0.9451(3) -0.0085(4)
H57 H 0.5442 0.9542 -0.0470
C83 C 0.4521(5) 0.9464(3) -0.0122(4)
H58 H 0.4304 0.9565 -0.0523
C84 C 0.4146(5) 0.9327(3) 0.0440(4)
C85 C 0.4502(5) 0.9186(3) 0.1014(4)
H59 H 0.4274 0.9090 0.1406
C86 C 0.5178(5) 0.9189(3) 0.1007(4)
H60 H 0.5412 0.9097 0.1403
C87 C -0.2408(5) 0.8003(3) -0.0077(5)
H61 H -0.2621 0.7875 0.0302
C88 C -0.1725(5) 0.7987(4) -0.0087(5)
H62 H -0.1486 0.7863 0.0284
C89 C -0.1397(5) 0.8150(4) -0.0632(6)
C90 C -0.1785(10) 0.8236(7) -0.1239(11)
H63 H -0.1625 0.8202 -0.1686
C91 C -0.2473(10) 0.8387(8) -0.1073(10)
H64 H -0.2683 0.8618 -0.1321
C92 C -0.0251(5) 0.8063(4) -0.0219(5)
C93 C 0.0465(5) 0.8110(4) -0.0440(7)
C94 C 0.0932(12) 0.8039(9) 0.0030(13)
H65 H 0.0812 0.7941 0.0469
C95 C 0.1609(13) 0.8110(9) -0.0124(13)
H66 H 0.1930 0.8050 0.0220
C96 C 0.1812(5) 0.8248(3) -0.0693(5)
C97 C 0.1319(10) 0.8314(8) -0.1231(11)
H67 H 0.1455 0.8390 -0.1675
C98 C 0.0658(10) 0.8266(7) -0.1091(11)
H68 H 0.0332 0.8335 -0.1425
C99 C 0.2520(4) 0.8335(3) -0.0899(5)
C100 C 0.4702(4) 0.8396(3) -0.1043(4)
H69 H 0.4930 0.8476 -0.1443
C101 C 0.3998(5) 0.8392(3) -0.1061(5)
H70 H 0.3761 0.8468 -0.1463
C102 C 0.3676(5) 0.8277(3) -0.0499(5)
C103 C 0.4051(4) 0.8177(3) 0.0098(4)
H71 H 0.3834 0.8102 0.0507
C104 C 0.4729(4) 0.8189(3) 0.0073(4)
H72 H 0.4975 0.8121 0.0472
Zn1_2 Zn 0.72778(5) 1.17882(3) 0.44768(5)
Zn1C Zn -0.27222(5) 1.32118(3) 0.94768(5)
Zn2_2 Zn -0.31892(5) 1.07406(3) -0.45186(4)
Zn2_3 Zn 0.68108(5) 1.07406(3) 0.54814(4)
Zn3_2 Zn 0.66092(5) 0.92652(3) 0.04890(4)
Zn3C Zn -0.33908(5) 0.57348(3) -0.45110(4)
Zn4_2 Zn 0.61282(5) 0.82354(3) -0.05530(5)
Zn4C Zn -0.38718(5) 0.67646(3) -0.55530(5)
O3C O -0.2594(3) 1.2137(2) 0.3648(3)
O11_2 O -0.3188(3) 1.0475(2) 0.6412(3)
O15C O -0.3420(4) 0.8643(2) 0.0839(4)
O16C O -0.3858(3) 0.8027(2) 0.0406(3)
N4_2 N -0.4240(3) 1.0770(2) 0.5426(4)
N8_2 N -0.3786(3) 1.1827(2) 0.4506(3)
N12_2 N -0.4468(4) 0.9317(3) 0.0459(4)
N16_2 N -0.4938(4) 0.8293(2) -0.0490(4)
O25 O 0.5335(5) 0.3911(3) 0.7572(4)
N17 N 0.5166(5) 0.4663(3) 0.7564(4)
C105 C 0.5257(7) 0.4283(6) 0.7875(8)
H73 H 0.5267 0.4283 0.8356
C106 C 0.5115(7) 0.4713(7) 0.6870(7)
H74 H 0.5182 0.4427 0.6650
H75 H 0.5453 0.4922 0.6717
H76 H 0.4674 0.4827 0.6751
C107 C 0.5079(8) 0.5055(6) 0.7965(9)
H77 H 0.4643 0.5183 0.7868
H78 H 0.5425 0.5270 0.7854
H79 H 0.5112 0.4980 0.8447
O26 O 0.4723(5) 0.6373(3) 0.7518(4)
N18 N 0.4535(5) 0.7117(4) 0.7465(4)
C108 C 0.4639(8) 0.6695(7) 0.7207(9)
H80 H 0.4641 0.6668 0.6728
C109 C 0.4436(9) 0.7451(12) 0.7000(13)
H81 H 0.4755 0.7690 0.7088
H82 H 0.3985 0.7566 0.7041
H83 H 0.4500 0.7336 0.6542
C110 C 0.4522(8) 0.7197(9) 0.8160(8)
H84 H 0.4399 0.7506 0.8241
H85 H 0.4961 0.7140 0.8359
H86 H 0.4196 0.7003 0.8371
O27 O 0.0348(8) 0.9027(5) 0.7552(7)
N19 N 0.0975(7) 0.9658(4) 0.7638(8)
C111 C 0.0588(11) 0.9351(6) 0.7889(12)
H87 H 0.0480 0.9371 0.8355
C112 C 0.1184(14) 0.9652(9) 0.6973(10)
H88 H 0.1393 0.9935 0.6864
H89 H 0.0803 0.9604 0.6670
H90 H 0.1506 0.9413 0.6914
C113 C 0.1154(10) 1.0023(6) 0.8053(11)
H91 H 0.0808 1.0250 0.8023
H92 H 0.1575 1.0147 0.7900
H93 H 0.1201 0.9925 0.8524
O28 O 0.0011(9) 1.1390(6) 0.8142(9)
N20 N -0.0611(9) 1.2043(6) 0.7843(9)
C114 C -0.0198(12) 1.1804(8) 0.8276(13)
H94 H -0.0057 1.1939 0.8687
C115 C -0.0610(16) 1.2514(11) 0.7954(17)
H95 H -0.1009 1.2598 0.8199
H96 H -0.0603 1.2667 0.7517
H97 H -0.0216 1.2596 0.8221
C116 C -0.0943(19) 1.1872(12) 0.7263(18)
H98 H -0.0633 1.1853 0.6886
H99 H -0.1311 1.2068 0.7137
H100 H -0.1115 1.1577 0.7364
O29 O -0.0648(9) 0.7691(6) -0.2154(9)
N21 N -0.1461(7) 0.7121(5) -0.2401(7)
C117 C -0.0951(13) 0.7318(9) -0.2070(15)
H101 H -0.0780 0.7150 -0.1702
C118 C -0.1457(14) 0.6681(7) -0.2215(14)
H102 H -0.1074 0.6534 -0.2415
H103 H -0.1866 0.6540 -0.2377
H104 H -0.1429 0.6658 -0.1720
C119 C -0.1731(16) 0.7188(10) -0.3052(12)
H105 H -0.2015 0.6937 -0.3175
H106 H -0.1372 0.7214 -0.3380
H107 H -0.1995 0.7460 -0.3056
O30 O -0.0667(7) 0.8413(5) -0.2942(7)
O31 O 0.0217(7) 1.0842(4) 0.7082(7)
O32 O -0.1174(11) 0.9616(7) 0.7583(11)
C120? C -0.1991(9) 0.8976(7) 0.0929(10)
H108? H -0.2246 0.8811 0.1242
C121? C -0.1309(10) 0.8948(8) 0.0984(10)
H109? H -0.1107 0.8777 0.1333
C122? C -0.1265(11) 0.9491(8) 0.0030(11)
H110? H -0.1031 0.9682 -0.0266
C123? C -0.1943(9) 0.9478(7) 0.0052(10)
H111? H -0.2178 0.9667 -0.0251
C124? C 0.1414(11) 0.9576(8) -0.0042(11)
H112? H 0.1264 0.9795 -0.0352
C125? C 0.2050(11) 0.9535(8) 0.0094(11)
H113? H 0.2356 0.9715 -0.0141
C126? C 0.1843(10) 0.8961(7) 0.0893(11)
H114? H 0.1995 0.8752 0.1218
C127? C 0.1165(10) 0.8991(7) 0.0742(11)
H115? H 0.0867 0.8799 0.0967
C128? C -0.1795(10) 0.8407(8) -0.1093(11)
H116? H -0.1642 0.8657 -0.1336
C129? C -0.2467(11) 0.8231(8) -0.1135(12)
H117? H -0.2669 0.8157 -0.1557
C130? C 0.0946(9) 0.7898(7) -0.0061(9)
H118? H 0.0812 0.7705 0.0291
C131? C 0.1606(9) 0.7952(7) -0.0172(9)
H119? H 0.1925 0.7796 0.0093
C132? C 0.1317(10) 0.8503(7) -0.1049(10)
H120? H 0.1444 0.8711 -0.1383
C133? C 0.0654(10) 0.8443(8) -0.0901(11)
H121? H 0.0327 0.8626 -0.1109
loop_
_geom_bond_atom_site_label_1
_geom_bond_atom_site_label_2
_geom_bond_site_symmetry_1
_geom_bond_site_symmetry_2
Zn1 O1 1_555 1_555
Zn2 O2 1_555 1_555
Zn3 O7 1_555 1_555
Zn4 O10 1_555 1_555
O1 C7 1_555 1_555
O2 C7 1_555 1_555
O3 C8 1_555 1_555
O4 C8 1_555 1_555
O5 Zn1 1_555 1_555
O6 Zn2 1_555 1_555
O7 C16 1_555 1_555
O8 C16 1_555 1_555
O9 Zn3 1_555 1_555
O10 C23 1_555 1_555
O11 C24 1_555 1_555
O12 C24 1_555 1_555
O13 Zn4 1_555 1_555
O14 C31 1_555 1_555
O15 C32 1_555 1_555
O16 C32 1_555 1_555
O17 C56 1_555 1_555
O18 C63 1_555 1_555
O19 C38 1_555 1_555
O20 C45 1_555 1_555
O21 C74 1_555 1_555
O22 C81 1_555 1_555
O23 C92 1_555 1_555
O24 C99 1_555 1_555
N1 Zn2 1_555 1_555
N2 H1 1_555 1_555
N3 H2 1_555 1_555
N4 C46 1_555 1_555
N5 Zn1 1_555 1_555
N6 H3 1_555 1_555
N7 H4 1_555 1_555
N8 C64 1_555 1_555
N9 Zn3 1_555 1_555
N10 H5 1_555 1_555
N11 H6 1_555 1_555
N12 C82 1_555 1_555
N13 Zn4 1_555 1_555
N14 H7 1_555 1_555
N15 H8 1_555 1_555
N16 C100 1_555 1_555
C1 C2 1_555 1_555
C2 H9 1_555 1_555
C3 C2 1_555 1_555
H10 C3 1_555 1_555
C4 C3 1_555 1_555
C5 C4 1_555 1_555
H11 C5 1_555 1_555
C6 C1 1_555 1_555
H12 C6 1_555 1_555
C7 C1 1_555 1_555
C8 C4 1_555 1_555
C9 C10 1_555 1_555
C10 H13 1_555 1_555
C11 C10 1_555 1_555
H14 C11 1_555 1_555
C12 C11 1_555 1_555
C13 C12 1_555 1_555
H15 C13 1_555 1_555
C14 C9 1_555 1_555
H16 C14 1_555 1_555
C15 O5 1_555 1_555
C16 C12 1_555 1_555
C17 C18 1_555 1_555
C18 H17 1_555 1_555
C19 C18 1_555 1_555
H18 C19 1_555 1_555
C20 C19 1_555 1_555
C21 C20 1_555 1_555
H19 C21 1_555 1_555
C22 C17 1_555 1_555
H20 C22 1_555 1_555
C23 O9 1_555 1_555
C24 C20 1_555 1_555
C25 C26 1_555 1_555
C26 H21 1_555 1_555
C27 C26 1_555 1_555
H22 C27 1_555 1_555
C28 C27 1_555 1_555
C29 C28 1_555 1_555
H23 C29 1_555 1_555
C30 C25 1_555 1_555
H24 C30 1_555 1_555
C31 O13 1_555 1_555
C32 C28 1_555 1_555
C33 N1 1_555 1_555
H25 C33 1_555 1_555
C34 C33 1_555 1_555
H26 C34 1_555 1_555
C35 N2 1_555 1_555
C36 C35 1_555 1_555
H27 C36 1_555 1_555
C37 N1 1_555 1_555
H28 C37 1_555 1_555
C38 N2 1_555 1_555
C39 C38 1_555 1_555
C40 C39 1_555 1_555
H29 C40 1_555 1_555
C41 C40 1_555 1_555
H30 C41 1_555 1_555
C42 C41 1_555 1_555
C43 C42 1_555 1_555
H31 C43 1_555 1_555
C44 C39 1_555 1_555
H32 C44 1_555 1_555
C45 N3 1_555 1_555
C46 H33 1_555 1_555
C47 C46 1_555 1_555
H34 C47 1_555 1_555
C48 N3 1_555 1_555
C49 C48 1_555 1_555
H35 C49 1_555 1_555
C50 N4 1_555 1_555
H36 C50 1_555 1_555
C51 N5 1_555 1_555
H37 C51 1_555 1_555
C52 C51 1_555 1_555
H38 C52 1_555 1_555
C53 N6 1_555 1_555
C54 C53 1_555 1_555
H39 C54 1_555 1_555
C55 N5 1_555 1_555
H40 C55 1_555 1_555
C56 N6 1_555 1_555
C57 C56 1_555 1_555
C58 C57 1_555 1_555
H41 C58 1_555 1_555
C59 C58 1_555 1_555
H42 C59 1_555 1_555
C60 C59 1_555 1_555
C61 C60 1_555 1_555
H43 C61 1_555 1_555
C62 C57 1_555 1_555
H44 C62 1_555 1_555
C63 N7 1_555 1_555
C64 H45 1_555 1_555
C65 C64 1_555 1_555
H46 C65 1_555 1_555
C66 N7 1_555 1_555
C67 C66 1_555 1_555
H47 C67 1_555 1_555
C68 N8 1_555 1_555
H48 C68 1_555 1_555
C69 N9 1_555 1_555
H49 C69 1_555 1_555
C70 C69 1_555 1_555
H50 C70 1_555 1_555
C71 N10 1_555 1_555
C72 C71 1_555 1_555
H51 C72 1_555 1_555
C73 N9 1_555 1_555
H52 C73 1_555 1_555
C74 N10 1_555 1_555
C75 C74 1_555 1_555
C76 C75 1_555 1_555
H53 C76 1_555 1_555
C77 C76 1_555 1_555
H54 C77 1_555 1_555
C78 C77 1_555 1_555
C79 C78 1_555 1_555
H55 C79 1_555 1_555
C80 C75 1_555 1_555
H56 C80 1_555 1_555
C81 N11 1_555 1_555
C82 H57 1_555 1_555
C83 C82 1_555 1_555
H58 C83 1_555 1_555
C84 N11 1_555 1_555
C85 C84 1_555 1_555
H59 C85 1_555 1_555
C86 N12 1_555 1_555
H60 C86 1_555 1_555
C87 N13 1_555 1_555
H61 C87 1_555 1_555
C88 C87 1_555 1_555
H62 C88 1_555 1_555
C89 N14 1_555 1_555
C90 C89 1_555 1_555
H63 C90 1_555 1_555
C91 N13 1_555 1_555
H64 C91 1_555 1_555
C92 N14 1_555 1_555
C93 C92 1_555 1_555
C94 C93 1_555 1_555
H65 C94 1_555 1_555
C95 C94 1_555 1_555
H66 C95 1_555 1_555
C96 C95 1_555 1_555
C97 C96 1_555 1_555
H67 C97 1_555 1_555
C98 C93 1_555 1_555
H68 C98 1_555 1_555
C99 N15 1_555 1_555
C100 H69 1_555 1_555
C101 C100 1_555 1_555
H70 C101 1_555 1_555
C102 N15 1_555 1_555
C103 C102 1_555 1_555
H71 C103 1_555 1_555
C104 N16 1_555 1_555
H72 C104 1_555 1_555
O25 C105 1_555 1_555
N17 C105 1_555 1_555
C105 H73 1_555 1_555
C106 N17 1_555 1_555
H74 C106 1_555 1_555
H75 C106 1_555 1_555
H76 C106 1_555 1_555
C107 N17 1_555 1_555
H77 C107 1_555 1_555
H78 C107 1_555 1_555
H79 C107 1_555 1_555
O26 C108 1_555 1_555
N18 C108 1_555 1_555
C108 H80 1_555 1_555
C109 N18 1_555 1_555
H81 C109 1_555 1_555
H82 C109 1_555 1_555
H83 C109 1_555 1_555
C110 N18 1_555 1_555
H84 C110 1_555 1_555
H85 C110 1_555 1_555
H86 C110 1_555 1_555
O27 C111 1_555 1_555
N19 C111 1_555 1_555
C111 H87 1_555 1_555
C112 N19 1_555 1_555
H88 C112 1_555 1_555
H89 C112 1_555 1_555
H90 C112 1_555 1_555
C113 N19 1_555 1_555
H91 C113 1_555 1_555
H92 C113 1_555 1_555
H93 C113 1_555 1_555
O28 C114 1_555 1_555
N20 C114 1_555 1_555
C114 H94 1_555 1_555
C115 N20 1_555 1_555
H95 C115 1_555 1_555
H96 C115 1_555 1_555
H97 C115 1_555 1_555
C116 N20 1_555 1_555
H98 C116 1_555 1_555
H99 C116 1_555 1_555
H100 C116 1_555 1_555
O29 C117 1_555 1_555
N21 C117 1_555 1_555
C117 H101 1_555 1_555
C118 N21 1_555 1_555
H102 C118 1_555 1_555
H103 C118 1_555 1_555
H104 C118 1_555 1_555
C119 N21 1_555 1_555
H105 C119 1_555 1_555
H106 C119 1_555 1_555
H107 C119 1_555 1_555
Zn1_2 N8 1_555 1_555
Zn1C O3 1_555 1_555
Zn2_2 O11 1_555 1_555
Zn2_3 N4 1_555 1_555
Zn3_2 N12 1_555 1_555
Zn3C O15 1_555 1_555
Zn4_2 N16 1_555 1_555
Zn4C O16 1_555 1_555
O3C Zn1 1_555 1_555
O11_2 Zn2 1_555 1_555
O15C Zn3 1_555 1_555
O16C Zn4 1_555 1_555
N4_2 Zn2 1_555 1_555
N8_2 Zn1 1_555 1_555
N12_2 Zn3 1_555 1_555
N16_2 Zn4 1_555 1_555
O6 C15 1_555 1_555
C5 C6 1_555 1_555
C9 C15 1_555 1_555
C13 C14 1_555 1_555
C17 C23 1_555 1_555
C21 C22 1_555 1_555
C25 C31 1_555 1_555
C29 C30 1_555 1_555
C34 C35 1_555 1_555
C36 C37 1_555 1_555
C42 C45 1_555 1_555
C43 C44 1_555 1_555
C47 C48 1_555 1_555
C49 C50 1_555 1_555
C52 C53 1_555 1_555
C54 C55 1_555 1_555
C60 C63 1_555 1_555
C61 C62 1_555 1_555
C65 C66 1_555 1_555
C67 C68 1_555 1_555
C70 C71 1_555 1_555
C72 C73 1_555 1_555
C78 C81 1_555 1_555
C79 C80 1_555 1_555
C83 C84 1_555 1_555
C85 C86 1_555 1_555
C88 C89 1_555 1_555
C90 C91 1_555 1_555
C96 C99 1_555 1_555
C97 C98 1_555 1_555
C101 C102 1_555 1_555
C103 C104 1_555 1_555

#END
