
#######################################################################
#
#                 Cambridge Crystallographic Data Centre
#                                CCDC 
#
#######################################################################
#
# If this CIF has been generated from an entry in the Cambridge 
# Structural Database, then it will include bibliographic, chemical, 
# crystal, experimental, refinement or atomic coordinate data resulting 
# from the CCDC's data processing and validation procedures.
#
#######################################################################

data_PIBPAS01
_symmetry_cell_setting           tetragonal
_symmetry_space_group_name_H-M   'P 41 2 2'
_symmetry_Int_Tables_number      91
_space_group_name_Hall           'P 4w 2c'
loop_
_symmetry_equiv_pos_site_id
_symmetry_equiv_pos_as_xyz
1 x,y,z
2 -x,-y,1/2+z
3 -y,x,1/4+z
4 y,-x,3/4+z
5 -x,y,-z
6 x,-y,1/2-z
7 y,x,3/4-z
8 -y,-x,1/4-z
_cell_length_a                   17.9980(3)
_cell_length_b                   17.9980(3)
_cell_length_c                   25.9577(9)
_cell_angle_alpha                90
_cell_angle_beta                 90
_cell_angle_gamma                90
_cell_volume                     8408.43
loop_
_atom_site_label
_atom_site_type_symbol
_atom_site_fract_x
_atom_site_fract_y
_atom_site_fract_z
O9 O 0.7603(18) 0.8490(17) 0.0766(12)
O10 O 0.5471(17) 0.1240(17) -0.2920(12)
O11 O 0.5115(19) 0.0860(19) -0.3288(13)
C1 C 0.3336(3) 0.6099(3) -0.05120(17)
C2 C 0.2269(9) 0.8126(8) 0.1408(6)
C3 C 0.3878(3) 0.5700(3) -0.07659(19)
C4 C 0.3688(3) 0.5229(3) -0.11642(19)
C5 C 0.2941(3) 0.5150(3) -0.1309(2)
C6 C 0.2401(3) 0.5567(3) -0.1060(2)
H1 H 0.1897 0.5532 -0.1165
C7 C 0.2594(3) 0.6031(3) -0.0661(2)
H2 H 0.2221 0.6306 -0.0487
C8 C 0.3549(3) 0.6610(3) -0.00829(17)
C9 C 0.2740(3) 0.4656(3) -0.1749(2)
C10 C 0.4684(3) 0.3041(3) -0.34483(18)
C11 C 0.3954(3) 0.2801(3) -0.3470(2)
C12 C 0.3442(3) 0.3084(3) -0.3131(2)
C13 C 0.3636(3) 0.3597(3) -0.2755(2)
C14 C 0.4370(3) 0.3829(3) -0.2724(2)
H3 H 0.4515 0.4171 -0.2464
C15 C 0.4893(3) 0.3563(3) -0.3072(2)
H4 H 0.5392 0.3734 -0.3056
C16 C 0.5217(3) 0.2767(3) -0.38420(17)
C17 C 0.3059(3) 0.3918(3) -0.2419(2)
C18 C -0.0427(3) 0.3871(3) -0.2606(2)
C19 C -0.0224(3) 0.4212(3) -0.2143(2)
C20 C 0.0506(3) 0.4276(4) -0.2021(2)
H5 H 0.0645 0.4508 -0.1706
C21 C 0.1060(3) 0.4005(4) -0.2353(2)
C22 C 0.0836(3) 0.3666(4) -0.2809(2)
H6 H 0.1202 0.3482 -0.3040
C23 C 0.0105(3) 0.3593(3) -0.2932(2)
H7 H -0.0037 0.3350 -0.3242
C24 C -0.1249(3) 0.3842(3) -0.27356(19)
C25 C 0.1856(3) 0.4120(3) -0.2234(2)
N1 N 0.2356(2) 0.3784(3) -0.25310(18)
N2 N 0.2019(2) 0.4548(3) -0.18354(18)
N3 N 0.3289(2) 0.4359(3) -0.20242(16)
O1 O 0.42265(19) 0.66643(17) 0.00216(12)
O2 O 0.30332(19) 0.69392(19) 0.01581(12)
O3 O 0.59067(19) 0.29020(19) -0.37651(13)
O4 O 0.49712(19) 0.24045(18) -0.42076(11)
O5 O -0.14237(18) 0.3464(2) -0.31381(13)
O6 O -0.16866(17) 0.41616(19) -0.24506(12)
O7 O 0.25149(17) 0.74851(17) 0.1250
O8 O 0.1860(10) 0.8234(7) 0.1777(6)
Zn1 Zn 0.5000 0.75194(4) 0.0000
Zn2 Zn 0.33706(3) 0.75018(3) 0.075408(18)
H8 H 0.443(3) 0.577(3) -0.0664(18)
H9 H 0.376(3) 0.247(3) -0.3804(18)
H10 H 0.424(4) 0.499(4) -0.132(3)
H11 H -0.060(3) 0.440(3) -0.1870(19)
H12 H 0.307(4) 0.294(4) -0.318(3)
C1D C 0.6664(3) 0.6099(3) 0.05120(17)
C2G C 0.1874(8) 0.7731(9) 0.1092(6)
C3D C 0.6122(3) 0.5700(3) 0.07659(19)
C4D C 0.6312(3) 0.5229(3) 0.11642(19)
C5D C 0.7059(3) 0.5150(3) 0.1309(2)
C6D C 0.7599(3) 0.5567(3) 0.1060(2)
H1D H 0.8103 0.5532 0.1165
C7D C 0.7406(3) 0.6031(3) 0.0661(2)
H2D H 0.7779 0.6306 0.0487
C8D C 0.6451(3) 0.6610(3) 0.00829(17)
C9D C 0.7260(3) 0.4656(3) 0.1749(2)
C10D C 0.5316(3) 0.3041(3) 0.34483(18)
C11D C 0.6046(3) 0.2801(3) 0.3470(2)
C12D C 0.6558(3) 0.3084(3) 0.3131(2)
C13D C 0.6364(3) 0.3597(3) 0.2755(2)
C14D C 0.5630(3) 0.3829(3) 0.2724(2)
H3D H 0.5485 0.4171 0.2464
C15D C 0.5107(3) 0.3563(3) 0.3072(2)
H4D H 0.4608 0.3734 0.3056
C16D C 0.4783(3) 0.2767(3) 0.38420(17)
C17D C 0.6941(3) 0.3918(3) 0.2419(2)
C18D C 1.0427(3) 0.3871(3) 0.2606(2)
C19D C 1.0224(3) 0.4212(3) 0.2143(2)
C20D C 0.9494(3) 0.4276(4) 0.2021(2)
H5D H 0.9355 0.4508 0.1706
C21D C 0.8940(3) 0.4005(4) 0.2353(2)
C22D C 0.9164(3) 0.3666(4) 0.2809(2)
H6D H 0.8798 0.3482 0.3040
C23D C 0.9895(3) 0.3593(3) 0.2932(2)
H7D H 1.0037 0.3350 0.3242
C24D C 1.1249(3) 0.3842(3) 0.27356(19)
C25D C 0.8144(3) 0.4120(3) 0.2234(2)
N1D N 0.7644(2) 0.3784(3) 0.25310(18)
N2D N 0.7981(2) 0.4548(3) 0.18354(18)
N3D N 0.6711(2) 0.4359(3) 0.20242(16)
O1D O 0.57735(19) 0.66643(17) -0.00216(12)
O2D O 0.69668(19) 0.69392(19) -0.01581(12)
O3D O 0.40933(19) 0.29020(19) 0.37651(13)
O3A O 0.40933(19) 0.70980(19) 0.12349(13)
O3E O 0.59067(19) 0.70980(19) -0.12349(13)
O4D O 0.50288(19) 0.24045(18) 0.42076(11)
O4A O 0.50288(19) 0.75955(18) 0.07924(11)
O4E O 0.49712(19) 0.75955(18) -0.07924(11)
O5D O 1.14237(18) 0.3464(2) 0.31381(13)
O5F O 0.3464(2) 0.85763(18) 0.06381(13)
O5B O 0.6536(2) 0.85763(18) -0.06381(13)
O6D O 1.16866(17) 0.41616(19) 0.24506(12)
O6B O 0.58384(19) 0.83134(17) 0.00494(12)
O6F O 0.41616(19) 0.83134(17) -0.00494(12)
O7C O 0.74851(17) 0.74851(17) -0.1250
O8G O 0.1766(7) 0.8140(10) 0.0723(6)
Zn1A Zn 0.5000 0.24806(4) -0.5000
Zn1C Zn -0.24806(4) 0.5000 -0.2500
Zn1A_2 Zn 0.5000 0.24806(4) 0.5000
Zn1B Zn 1.24806(4) 0.5000 0.2500
Zn2D Zn 0.66294(3) 0.75018(3) -0.075408(18)
Zn2A Zn 0.66294(3) 0.24982(3) -0.424592(18)
Zn2F Zn -0.24982(3) 0.33706(3) -0.325408(18)
Zn2G Zn 0.24982(3) 0.66294(3) 0.174592(18)
Zn2E Zn 0.33706(3) 0.24982(3) 0.424592(18)
Zn2B Zn 1.24982(3) 0.33706(3) 0.325408(18)
H8D H 0.557(3) 0.577(3) 0.0664(18)
H9D H 0.624(3) 0.247(3) 0.3804(18)
H10D H 0.576(4) 0.499(4) 0.132(3)
H11D H 1.060(3) 0.440(3) 0.1870(19)
H12D H 0.693(4) 0.294(4) 0.318(3)
loop_
_geom_bond_atom_site_label_1
_geom_bond_atom_site_label_2
_geom_bond_site_symmetry_1
_geom_bond_site_symmetry_2
C1 C3 1_555 1_555
C2 O7 1_555 1_555
C3 C4 1_555 1_555
C4 C5 1_555 1_555
C5 C6 1_555 1_555
C6 H1 1_555 1_555
C7 C1 1_555 1_555
H2 C7 1_555 1_555
C8 C1 1_555 1_555
C9 C5 1_555 1_555
C10 C11 1_555 1_555
C11 C12 1_555 1_555
C12 C13 1_555 1_555
C13 C14 1_555 1_555
C14 H3 1_555 1_555
C15 C10 1_555 1_555
H4 C15 1_555 1_555
C16 C10 1_555 1_555
C17 C13 1_555 1_555
C18 C19 1_555 1_555
C19 C20 1_555 1_555
C20 H5 1_555 1_555
C21 C20 1_555 1_555
C22 C21 1_555 1_555
H6 C22 1_555 1_555
C23 C18 1_555 1_555
H7 C23 1_555 1_555
C24 C18 1_555 1_555
C25 C21 1_555 1_555
N1 C17 1_555 1_555
N2 C9 1_555 1_555
N3 C9 1_555 1_555
O1 C8 1_555 1_555
O2 C8 1_555 1_555
O3 C16 1_555 1_555
O4 C16 1_555 1_555
O5 C24 1_555 1_555
O6 C24 1_555 1_555
O7 Zn2 1_555 1_555
O8 C2 1_555 1_555
Zn1 O1 1_555 1_555
Zn2 O2 1_555 1_555
H8 C3 1_555 1_555
H9 C11 1_555 1_555
H10 C4 1_555 1_555
H11 C19 1_555 1_555
H12 C12 1_555 1_555
O10 O11 1_555 1_555
C1D C3D 1_555 1_555
C2G C2 1_555 1_555
C3D C4D 1_555 1_555
C4D C5D 1_555 1_555
C5D C6D 1_555 1_555
C6D H1D 1_555 1_555
C7D C1D 1_555 1_555
H2D C7D 1_555 1_555
C8D C1D 1_555 1_555
C9D C5D 1_555 1_555
C10D C11D 1_555 1_555
C11D C12D 1_555 1_555
C12D C13D 1_555 1_555
C13D C14D 1_555 1_555
C14D H3D 1_555 1_555
C15D C10D 1_555 1_555
H4D C15D 1_555 1_555
C16D C10D 1_555 1_555
C17D C13D 1_555 1_555
C18D C19D 1_555 1_555
C19D C20D 1_555 1_555
C20D H5D 1_555 1_555
C21D C20D 1_555 1_555
C22D C21D 1_555 1_555
H6D C22D 1_555 1_555
C23D C18D 1_555 1_555
H7D C23D 1_555 1_555
C24D C18D 1_555 1_555
C25D C21D 1_555 1_555
N1D C17D 1_555 1_555
N2D C9D 1_555 1_555
N3D C9D 1_555 1_555
O1D Zn1 1_555 1_555
O2D C8D 1_555 1_555
O3D C16D 1_555 1_555
O3A Zn2 1_555 1_555
O3E Zn2D 1_555 1_555
O4D C16D 1_555 1_555
O4A Zn1 1_555 1_555
O4E Zn1 1_555 1_555
O5D C24D 1_555 1_555
O5F Zn2 1_555 1_555
O5B Zn2D 1_555 1_555
O6D C24D 1_555 1_555
O6B Zn1 1_555 1_555
O6F Zn1 1_555 1_555
O7C Zn2D 1_555 1_555
O8G C2G 1_555 1_555
Zn1A O4 1_555 1_555
Zn1C O6 1_555 1_555
Zn1A_2 O4D 1_555 1_555
Zn1B O6D 1_555 1_555
Zn2D O2D 1_555 1_555
Zn2A O3 1_555 1_555
Zn2F O5 1_555 1_555
Zn2G O7 1_555 1_555
Zn2E O3D 1_555 1_555
Zn2B O5D 1_555 1_555
H8D C3D 1_555 1_555
H9D C11D 1_555 1_555
H10D C4D 1_555 1_555
H11D C19D 1_555 1_555
H12D C12D 1_555 1_555
C6 C7 1_555 1_555
C14 C15 1_555 1_555
C17 N3 1_555 1_555
C22 C23 1_555 1_555
C25 N1 1_555 1_555
C25 N2 1_555 1_555
O7 C2G 1_555 1_555
C6D C7D 1_555 1_555
C8D O1D 1_555 1_555
C14D C15D 1_555 1_555
C17D N3D 1_555 1_555
C22D C23D 1_555 1_555
C25D N1D 1_555 1_555
C25D N2D 1_555 1_555

#END
