
#######################################################################
#
#                 Cambridge Crystallographic Data Centre
#                                CCDC 
#
#######################################################################
#
# If this CIF has been generated from an entry in the Cambridge 
# Structural Database, then it will include bibliographic, chemical, 
# crystal, experimental, refinement or atomic coordinate data resulting 
# from the CCDC's data processing and validation procedures.
#
#######################################################################

data_PICLET
_symmetry_cell_setting           monoclinic
_symmetry_space_group_name_H-M   'P 21/c'
_symmetry_Int_Tables_number      14
_space_group_name_Hall           '-P 2ybc'
loop_
_symmetry_equiv_pos_site_id
_symmetry_equiv_pos_as_xyz
1 x,y,z
2 -x,1/2+y,1/2-z
3 -x,-y,-z
4 x,1/2-y,1/2+z
_cell_length_a                   10.9685(19)
_cell_length_b                   11.308(2)
_cell_length_c                   38.405(7)
_cell_angle_alpha                90
_cell_angle_beta                 96.781(3)
_cell_angle_gamma                90
_cell_volume                     4730.12
loop_
_atom_site_label
_atom_site_type_symbol
_atom_site_fract_x
_atom_site_fract_y
_atom_site_fract_z
Ni1 Ni 0.38752(8) 0.07304(8) 0.09379(2)
Ni2 Ni 0.53278(8) 0.85942(8) 0.07019(2)
Ni3 Ni 0.36312(8) 0.00897(8) 0.00131(2)
Ni4 Ni 0.23224(9) 0.23454(9) 0.02567(2)
O1 O 0.3728(4) 0.1263(4) 0.04301(12)
H1 H 0.4477 0.1736 0.0412
O2 O -0.2166(4) -0.1205(4) 0.01922(12)
O3 O 0.2154(5) 0.1069(5) 0.10180(13)
O4 O 0.5059(4) 0.8986(4) 0.02006(12)
H2 H 0.4941 0.8232 0.0070
O5 O 0.5051(5) 0.6713(4) 0.07745(13)
O6 O 0.5482(4) 0.7950(4) 0.12031(12)
O7 O 0.4122(5) -0.0091(5) 0.14221(13)
H3 H 0.450(5) -0.073(3) 0.139(2)
H4 H 0.458(5) 0.046(4) 0.1515(19)
C1 C -0.2023(7) -0.1618(6) 0.05099(19)
C2 C 0.5524(7) 0.6228(7) 0.1715(2)
H5 H 0.5694 0.7019 0.1779
C3 C -0.0001(7) 0.1216(7) 0.10068(19)
C4 C 0.1167(7) 0.1262(7) 0.0825(2)
O8 O 0.2662(6) 0.3506(5) 0.06719(15)
H6 H 0.331(4) 0.341(7) 0.0813(17)
H7 H 0.222(6) 0.409(5) 0.0720(19)
O9 O 0.1056(5) 0.1488(5) 0.05004(13)
O10 O 0.0879(7) 0.3479(6) 0.00681(19)
H8 H 0.029(7) 0.373(7) -0.008(2)
H9 H 0.117(8) 0.401(5) 0.021(2)
C5 C -0.0757(7) -0.1882(7) 0.0673(2)
O11 O 0.3573(7) 0.3376(6) -0.00072(17)
H10 H 0.350(9) 0.351(7) -0.0227(5)
H11 H 0.396(8) 0.391(6) 0.0117(16)
C6 C -0.0581(7) -0.2436(7) 0.10006(19)
H12 H -0.1273 -0.2697 0.1102
C7 C 0.5523(7) 0.5383(7) 0.19772(19)
C8 C 0.5280(6) 0.5939(7) 0.13614(18)
C9 C 0.5276(6) 0.6906(7) 0.11015(19)
C10 C 0.0255(6) -0.1507(6) 0.05143(18)
H13 H 0.0152 -0.1150 0.0292
C11 C 0.5055(7) 0.4779(7) 0.12631(19)
H14 H 0.4896 0.4576 0.1025
C12 C -0.1120(6) 0.1092(6) 0.08036(19)
H15 H -0.1160 0.1062 0.0558
C13 C 0.0066(7) 0.1288(9) 0.1366(2)
H16 H 0.0834 0.1365 0.1501
C14 C 0.5066(7) 0.3917(7) 0.15191(19)
C15 C 0.0569(7) -0.2615(9) 0.1182(2)
C16 C 0.5296(7) 0.4231(7) 0.1871(2)
H17 H 0.5297 0.3637 0.2042
C17 C 0.5738(9) 0.5701(7) 0.2367(2)
C18 C -0.1001(7) 0.1246(10) 0.1530(2)
C19 C 0.6329(13) 0.6902(10) 0.2432(3)
H18 H 0.5823 0.7499 0.2303
H19 H 0.7137 0.6897 0.2352
H20 H 0.6408 0.7080 0.2680
C20 C -0.0937(9) 0.1425(16) 0.1933(3)
C21 C -0.1726(16) 0.242(2) 0.2017(4)
H21 H -0.1398 0.3157 0.1937
H22 H -0.1744 0.2461 0.2269
H23 H -0.2552 0.2305 0.1902
C22 C 0.4837(7) 0.2620(7) 0.1429(2)
O12 O 0.4398(5) 0.2383(4) 0.11112(12)
O13 O 0.5073(6) 0.1885(5) 0.16624(14)
C23 C 0.1428(7) -0.1675(6) 0.06933(18)
C24 C 0.2511(6) -0.1189(6) 0.05420(18)
O14 O 0.2410(4) -0.0958(4) 0.02224(13)
O15 O 0.3497(4) -0.1025(4) 0.07549(12)
C25 C -0.2179(7) 0.1011(6) 0.09645(18)
C26 C -0.2103(7) 0.1080(8) 0.1325(2)
H24 H -0.2825 0.1012 0.1433
C27 C -0.3363(6) 0.0772(6) 0.07423(17)
O16 O -0.3453(4) 0.1073(4) 0.04254(13)
O17 O -0.4237(4) 0.0287(4) 0.08879(12)
C28 C 0.1570(7) -0.2202(8) 0.1023(2)
H25 H 0.2364 -0.2283 0.1143
C29 C 0.6557(12) 0.4784(10) 0.2574(3)
H26 H 0.6189 0.4007 0.2539
H27 H 0.6638 0.4981 0.2822
H28 H 0.7361 0.4783 0.2493
C30 C 0.0761(9) -0.3195(14) 0.1545(3)
C31 C 0.4478(12) 0.5711(15) 0.2495(3)
H29 H 0.3963 0.6294 0.2364
H30 H 0.4562 0.5911 0.2742
H31 H 0.4106 0.4936 0.2461
C32 C -0.0369(13) -0.3586(19) 0.1676(4)
H32 H -0.0796 -0.4136 0.1510
H33 H -0.0171 -0.3974 0.1900
H34 H -0.0890 -0.2907 0.1703
C33 C 0.145(2) -0.232(2) 0.1804(4)
H35 H 0.1576 -0.2678 0.2035
H36 H 0.2237 -0.2132 0.1727
H37 H 0.0968 -0.1605 0.1813
C34 C 0.0341(12) 0.151(2) 0.2104(3)
H38 H 0.0738 0.2191 0.2014
H39 H 0.0786 0.0797 0.2055
H40 H 0.0337 0.1589 0.2355
C35 C 0.1600(19) -0.4218(18) 0.1535(5)
H41 H 0.1224 -0.4807 0.1374
H42 H 0.2367 -0.3957 0.1458
H43 H 0.1760 -0.4559 0.1768
C36 C -0.1587(17) 0.031(2) 0.2080(4)
H44 H -0.1575 0.0388 0.2332
H45 H -0.1153 -0.0401 0.2027
H46 H -0.2430 0.0269 0.1972
O20 O -0.2870(4) -0.1802(5) 0.06897(13)
Ni1_2 Ni -0.61248(8) 0.07304(8) 0.09379(2)
Ni2_2 Ni 0.53278(8) -0.14058(8) 0.07019(2)
Ni2_3 Ni -0.46722(8) -0.14058(8) 0.07019(2)
Ni3B Ni -0.36312(8) -0.00897(8) -0.00131(2)
Ni3_2 Ni 0.36312(8) 1.00897(8) 0.00131(2)
Ni3B_2 Ni 0.63688(8) 0.99103(8) -0.00131(2)
Ni4B Ni -0.23224(9) -0.23454(9) -0.02567(2)
O2B O 0.2166(4) 0.1205(4) -0.01922(12)
O4_2 O 0.5059(4) -0.1014(4) 0.02006(12)
O4B O 0.4941(4) 0.1014(4) -0.02006(12)
H2_2 H 0.4941 -0.1768 0.0070
H2B H 0.5059 0.1768 -0.0070
O15_2 O 0.3497(4) 0.8975(4) 0.07549(12)
O16B O 0.3453(4) -0.1073(4) -0.04254(13)
O17_2 O 0.5763(4) 0.0287(4) 0.08879(12)
O17_3 O 0.5763(4) 1.0287(4) 0.08879(12)
O20_2 O 0.7130(4) 0.8198(5) 0.06897(13)
O18 O -0.1795(13) 0.3098(8) 0.0151(3)
H47 H -0.175(16) 0.353(9) -0.003(2)
H48 H -0.193(16) 0.348(10) 0.034(2)
O19 O 0.3387(13) -0.4467(10) 0.0325(4)
H49 H 0.390(12) -0.420(16) 0.049(3)
H50 H 0.353(16) -0.425(19) 0.0121(16)
O21 O 0.023(3) 0.502(3) -0.0524(10)
loop_
_geom_bond_atom_site_label_1
_geom_bond_atom_site_label_2
_geom_bond_site_symmetry_1
_geom_bond_site_symmetry_2
Ni1 O1 1_555 1_555
Ni2 O4 1_555 1_555
Ni3 O1 1_555 1_555
Ni4 O1 1_555 1_555
O1 H1 1_555 1_555
O2 C1 1_555 1_555
O3 Ni1 1_555 1_555
O4 H2 1_555 1_555
O5 Ni2 1_555 1_555
O6 Ni2 1_555 1_555
O7 Ni1 1_555 1_555
H3 O7 1_555 1_555
H4 O7 1_555 1_555
C1 C5 1_555 1_555
C2 H5 1_555 1_555
C3 C4 1_555 1_555
C4 O3 1_555 1_555
O8 Ni4 1_555 1_555
H6 O8 1_555 1_555
H7 O8 1_555 1_555
O9 Ni4 1_555 1_555
O10 Ni4 1_555 1_555
H8 O10 1_555 1_555
H9 O10 1_555 1_555
C5 C6 1_555 1_555
O11 Ni4 1_555 1_555
H10 O11 1_555 1_555
H11 O11 1_555 1_555
C6 H12 1_555 1_555
C7 C2 1_555 1_555
C8 C2 1_555 1_555
C9 O5 1_555 1_555
C10 C5 1_555 1_555
H13 C10 1_555 1_555
C11 C8 1_555 1_555
H14 C11 1_555 1_555
C12 C3 1_555 1_555
H15 C12 1_555 1_555
C13 C3 1_555 1_555
H16 C13 1_555 1_555
C14 C11 1_555 1_555
C15 C6 1_555 1_555
C16 C7 1_555 1_555
H17 C16 1_555 1_555
C17 C7 1_555 1_555
C18 C13 1_555 1_555
C19 C17 1_555 1_555
H18 C19 1_555 1_555
H19 C19 1_555 1_555
H20 C19 1_555 1_555
C20 C18 1_555 1_555
C21 C20 1_555 1_555
H21 C21 1_555 1_555
H22 C21 1_555 1_555
H23 C21 1_555 1_555
C22 C14 1_555 1_555
O12 Ni1 1_555 1_555
O13 C22 1_555 1_555
C23 C10 1_555 1_555
C24 C23 1_555 1_555
O14 Ni3 1_555 1_555
O15 Ni1 1_555 1_555
C25 C12 1_555 1_555
C26 C18 1_555 1_555
H24 C26 1_555 1_555
C27 C25 1_555 1_555
O16 C27 1_555 1_555
O17 C27 1_555 1_555
C28 C15 1_555 1_555
H25 C28 1_555 1_555
C29 C17 1_555 1_555
H26 C29 1_555 1_555
H27 C29 1_555 1_555
H28 C29 1_555 1_555
C30 C15 1_555 1_555
C31 C17 1_555 1_555
H29 C31 1_555 1_555
H30 C31 1_555 1_555
H31 C31 1_555 1_555
C32 C30 1_555 1_555
H32 C32 1_555 1_555
H33 C32 1_555 1_555
H34 C32 1_555 1_555
C33 C30 1_555 1_555
H35 C33 1_555 1_555
H36 C33 1_555 1_555
H37 C33 1_555 1_555
C34 C20 1_555 1_555
H38 C34 1_555 1_555
H39 C34 1_555 1_555
H40 C34 1_555 1_555
C35 C30 1_555 1_555
H41 C35 1_555 1_555
H42 C35 1_555 1_555
H43 C35 1_555 1_555
C36 C20 1_555 1_555
H44 C36 1_555 1_555
H45 C36 1_555 1_555
H46 C36 1_555 1_555
O18 H47 1_555 1_555
H48 O18 1_555 1_555
O19 H49 1_555 1_555
H50 O19 1_555 1_555
O20 C1 1_555 1_555
Ni1_2 O17 1_555 1_555
Ni2_2 O15 1_555 1_555
Ni2_3 O17 1_555 1_555
Ni3B O2 1_555 1_555
Ni3_2 O4 1_555 1_555
Ni3B_2 O4 1_555 1_555
Ni4B O2 1_555 1_555
O2B Ni3 1_555 1_555
O4_2 Ni3 1_555 1_555
O4B Ni3 1_555 1_555
H2_2 O4_2 1_555 1_555
H2B O4B 1_555 1_555
O15_2 Ni2 1_555 1_555
O16B Ni3 1_555 1_555
O17_2 Ni1 1_555 1_555
O17_3 Ni2 1_555 1_555
O20_2 Ni2 1_555 1_555
Ni4 O2B 1_555 1_555
O6 C9 1_555 1_555
C4 O9 1_555 1_555
C8 C9 1_555 1_555
C14 C16 1_555 1_555
C22 O12 1_555 1_555
C23 C28 1_555 1_555
C24 O14 1_555 1_555
C24 O15 1_555 1_555
C25 C26 1_555 1_555
O16 Ni3B 1_555 1_555
O20 Ni2_3 1_555 1_555
Ni2_2 O4_2 1_555 1_555
Ni2_2 O17_2 1_555 1_555

#END
