
#######################################################################
#
#                 Cambridge Crystallographic Data Centre
#                                CCDC 
#
#######################################################################
#
# If this CIF has been generated from an entry in the Cambridge 
# Structural Database, then it will include bibliographic, chemical, 
# crystal, experimental, refinement or atomic coordinate data resulting 
# from the CCDC's data processing and validation procedures.
#
#######################################################################

data_PICTIG
_symmetry_cell_setting           monoclinic
_symmetry_space_group_name_H-M   'C 2/c'
_symmetry_Int_Tables_number      15
_space_group_name_Hall           '-C 2yn'
loop_
_symmetry_equiv_pos_site_id
_symmetry_equiv_pos_as_xyz
1 x,y,z
2 -x,y,1/2-z
3 1/2+x,1/2+y,z
4 1/2-x,1/2+y,1/2-z
5 -x,-y,-z
6 x,-y,1/2+z
7 1/2-x,1/2-y,-z
8 1/2+x,1/2-y,1/2+z
_cell_length_a                   33.319(5)
_cell_length_b                   9.7669(15)
_cell_length_c                   18.226(3)
_cell_angle_alpha                90
_cell_angle_beta                 93.682(4)
_cell_angle_gamma                90
_cell_volume                     5918.92
loop_
_atom_site_label
_atom_site_type_symbol
_atom_site_fract_x
_atom_site_fract_y
_atom_site_fract_z
Zn1 Zn 0.152803(13) 0.30111(5) 0.48382(3)
Zn2 Zn 0.2500 0.2500 0.5000
O1 O 0.15951(9) 0.1814(3) 0.39955(17)
O2 O 0.22654(9) 0.1902(3) 0.39912(16)
O3 O 0.21599(9) -0.1164(3) 0.05517(16)
O4 O 0.17520(12) 0.5211(3) 0.4082(2)
O5 O 0.15413(9) -0.1872(3) 0.07402(18)
O6 O 0.20213(8) 0.4118(3) 0.50564(17)
O7 O 0.09636(9) 0.3492(4) 0.4630(2)
O8 O 0.10730(12) 0.4810(5) 0.5581(3)
C1 C 0.08450(16) 0.4311(6) 0.5096(3)
C2 C 0.22641(15) 0.7492(5) 0.4351(3)
H1 H 0.2106 0.7482 0.3911
C3 C 0.22605(13) 0.6373(4) 0.4816(3)
C4 C 0.18696(13) -0.0481(4) 0.1639(2)
C5 C 0.22497(14) 0.0705(5) 0.2602(3)
H2 H 0.2493 0.1053 0.2798
C6 C 0.19043(13) 0.0848(4) 0.2993(2)
C7 C 0.18579(12) -0.1222(4) 0.0921(2)
C8 C 0.25036(14) 0.6389(5) 0.5471(3)
H3 H 0.2507 0.5638 0.5785
C9 C 0.15321(14) -0.0342(5) 0.2022(3)
H4 H 0.1289 -0.0701 0.1830
C10 C 0.19262(13) 0.1571(4) 0.3721(2)
C11 C 0.22322(14) 0.0059(5) 0.1937(3)
H5 H 0.2463 -0.0021 0.1680
C12 C 0.15490(14) 0.0326(5) 0.2692(3)
H6 H 0.1316 0.0424 0.2941
C13 C 0.19967(14) 0.5165(4) 0.4619(3)
C14 C 0.04118(15) 0.4690(6) 0.5044(3)
C15 C 0.01492(18) 0.4083(8) 0.4518(4)
H7 H 0.0248 0.3467 0.4184
C16 C 0.02622(17) 0.5612(7) 0.5515(4)
H8 H 0.0435 0.6044 0.5862
O4F O 0.32480(12) 0.9789(3) 0.5918(2)
O6F O 0.29787(8) 1.0882(3) 0.49436(17)
C2F C 0.27359(15) 0.7508(5) 0.5649(3)
H1F H 0.2894 0.7518 0.6089
C3F C 0.27395(13) 0.8627(4) 0.5184(3)
C8F C 0.24964(14) 0.8611(5) 0.4529(3)
H3F H 0.2493 0.9362 0.4215
C13F C 0.30033(14) 0.9835(4) 0.5381(3)
O7D O -0.09636(9) 0.6508(4) 0.5370(2)
O8D O -0.10730(12) 0.5190(5) 0.4419(3)
C1D C -0.08450(16) 0.5689(6) 0.4904(3)
C14D C -0.04118(15) 0.5310(6) 0.4956(3)
C15D C -0.01492(18) 0.5917(8) 0.5482(4)
H7D H -0.0248 0.6533 0.5816
C16D C -0.02622(17) 0.4388(7) 0.4485(4)
H8D H -0.0435 0.3956 0.4138
Zn1D Zn -0.152803(13) 0.69889(5) 0.51618(3)
O1D O -0.15951(9) 0.8186(3) 0.60045(17)
O2D O -0.22654(9) 0.8098(3) 0.60088(16)
O3D O -0.21599(9) 1.1164(3) 0.94483(16)
O5D O -0.15413(9) 1.1872(3) 0.92598(18)
C4D C -0.18696(13) 1.0481(4) 0.8361(2)
C5D C -0.22497(14) 0.9295(5) 0.7398(3)
H2D H -0.2493 0.8947 0.7202
C6D C -0.19043(13) 0.9152(4) 0.7007(2)
C7D C -0.18579(12) 1.1222(4) 0.9079(2)
C9D C -0.15321(14) 1.0342(5) 0.7978(3)
H4D H -0.1289 1.0701 0.8170
C10D C -0.19262(13) 0.8429(4) 0.6279(2)
C11D C -0.22322(14) 0.9941(5) 0.8063(3)
H5D H -0.2463 1.0021 0.8320
C12D C -0.15490(14) 0.9674(5) 0.7308(3)
H6D H -0.1316 0.9576 0.7059
Zn1A Zn -0.152803(13) 1.30111(5) 1.01618(3)
Zn1E Zn 0.152803(13) -0.30111(5) -0.01618(3)
Zn1F Zn 0.347197(13) 1.19889(5) 0.51618(3)
Zn2_2 Zn 0.2500 1.2500 0.5000
Zn2A Zn -0.2500 1.2500 1.0000
Zn2B Zn -0.2500 0.7500 0.5000
Zn2C Zn 0.2500 -0.2500 0.0000
O2F O 0.27346(9) 0.3098(3) 0.60088(16)
O3C O 0.28401(9) 0.3836(3) 0.44483(16)
O3E O 0.21599(9) 0.1164(3) 0.55517(16)
O5A O -0.15413(9) 0.8128(3) 0.42598(18)
O5E O 0.15413(9) 0.1872(3) 0.57402(18)
O6D O -0.20213(8) 0.5882(3) 0.49436(17)
O6F_2 O 0.29787(8) 0.0882(3) 0.49436(17)
O9 O 0.1370(4) 0.4959(15) 0.7100(5)
O10 O 0.0856(4) 0.6452(14) 0.7977(5)
loop_
_geom_bond_atom_site_label_1
_geom_bond_atom_site_label_2
_geom_bond_site_symmetry_1
_geom_bond_site_symmetry_2
Zn1 O1 1_555 1_555
Zn2 O2 1_555 1_555
O1 C10 1_555 1_555
O2 C10 1_555 1_555
O3 C7 1_555 1_555
O4 C13 1_555 1_555
O5 C7 1_555 1_555
O6 Zn1 1_555 1_555
O7 Zn1 1_555 1_555
O8 C1 1_555 1_555
C1 O7 1_555 1_555
C2 H1 1_555 1_555
C3 C2 1_555 1_555
C4 C7 1_555 1_555
C5 H2 1_555 1_555
C6 C5 1_555 1_555
C8 C3 1_555 1_555
H3 C8 1_555 1_555
C9 C4 1_555 1_555
H4 C9 1_555 1_555
C10 C6 1_555 1_555
C11 C4 1_555 1_555
H5 C11 1_555 1_555
C12 C6 1_555 1_555
H6 C12 1_555 1_555
C13 O6 1_555 1_555
C14 C1 1_555 1_555
C15 C14 1_555 1_555
H7 C15 1_555 1_555
C16 C14 1_555 1_555
H8 C16 1_555 1_555
O4F C13F 1_555 1_555
O6F C13F 1_555 1_555
C2F C8 1_555 1_555
H1F C2F 1_555 1_555
C3F C2F 1_555 1_555
C8F C2 1_555 1_555
H3F C8F 1_555 1_555
C13F C3F 1_555 1_555
O7D C1D 1_555 1_555
O8D C1D 1_555 1_555
C1D C14D 1_555 1_555
C14D C15D 1_555 1_555
C15D C16 1_555 1_555
H7D C15D 1_555 1_555
C16D C15 1_555 1_555
H8D C16D 1_555 1_555
Zn1D O7D 1_555 1_555
O1D Zn1D 1_555 1_555
O2D C10D 1_555 1_555
O3D C7D 1_555 1_555
O5D C7D 1_555 1_555
C4D C7D 1_555 1_555
C5D H2D 1_555 1_555
C6D C5D 1_555 1_555
C9D C4D 1_555 1_555
H4D C9D 1_555 1_555
C10D O1D 1_555 1_555
C11D C4D 1_555 1_555
H5D C11D 1_555 1_555
C12D C6D 1_555 1_555
H6D C12D 1_555 1_555
Zn1A O5D 1_555 1_555
Zn1E O5 1_555 1_555
Zn1F O6F 1_555 1_555
Zn2_2 O6F 1_555 1_555
Zn2A O3D 1_555 1_555
Zn2B O2D 1_555 1_555
Zn2C O3 1_555 1_555
O2F Zn2 1_555 1_555
O3C Zn2 1_555 1_555
O3E Zn2 1_555 1_555
O5A Zn1D 1_555 1_555
O5E Zn1 1_555 1_555
O6D Zn1D 1_555 1_555
O6F_2 Zn2 1_555 1_555
Zn2 O6 1_555 1_555
C3 C13 1_555 1_555
C5 C11 1_555 1_555
C9 C12 1_555 1_555
C3F C8F 1_555 1_555
C14D C16D 1_555 1_555
C5D C11D 1_555 1_555
C6D C10D 1_555 1_555
C9D C12D 1_555 1_555
Zn2B O6D 1_555 1_555

#END
