
#######################################################################
#
#                 Cambridge Crystallographic Data Centre
#                                CCDC 
#
#######################################################################
#
# If this CIF has been generated from an entry in the Cambridge 
# Structural Database, then it will include bibliographic, chemical, 
# crystal, experimental, refinement or atomic coordinate data resulting 
# from the CCDC's data processing and validation procedures.
#
#######################################################################

data_PIGXUZ
_symmetry_cell_setting           monoclinic
_symmetry_space_group_name_H-M   'C 2/c'
_symmetry_Int_Tables_number      15
_space_group_name_Hall           '-C 2yn'
loop_
_symmetry_equiv_pos_site_id
_symmetry_equiv_pos_as_xyz
1 x,y,z
2 1/2+x,1/2+y,z
3 -x,y,1/2-z
4 1/2-x,1/2+y,1/2-z
5 -x,-y,-z
6 1/2-x,1/2-y,-z
7 x,-y,1/2+z
8 1/2+x,1/2-y,1/2+z
_cell_length_a                   28.080(6)
_cell_length_b                   13.840(3)
_cell_length_c                   21.812(4)
_cell_angle_alpha                90
_cell_angle_beta                 120.14(3)
_cell_angle_gamma                90
_cell_volume                     7330.69
loop_
_atom_site_label
_atom_site_type_symbol
_atom_site_fract_x
_atom_site_fract_y
_atom_site_fract_z
Co1 Co 0.204881(18) 0.82014(3) 0.49495(2)
Co2 Co 0.148960(19) 1.62058(3) 0.44336(2)
C1 C 0.17284(19) 1.4336(2) 0.5198(2)
H1 H 0.1863 1.4729 0.5597
C2 C 0.17955(19) 1.3355(2) 0.5293(2)
H2 H 0.1975 1.3095 0.5748
C3 C 0.15932(15) 1.2749(2) 0.47038(18)
C4 C 0.13054(15) 1.3184(2) 0.40402(19)
H3 H 0.1142 1.2805 0.3633
C5 C 0.12622(14) 1.4176(2) 0.39870(18)
H4 H 0.1076 1.4453 0.3538
C6 C 0.16954(15) 1.1692(2) 0.47691(19)
C7 C 0.13516(15) 1.1059(2) 0.4221(2)
H5 H 0.1043 1.1292 0.3817
C8 C 0.14762(15) 1.0089(2) 0.4290(2)
H6 H 0.1244 0.9678 0.3923
C9 C 0.22394(16) 1.0307(2) 0.5388(2)
H7 H 0.2541 1.0050 0.5789
C10 C 0.21446(16) 1.1290(2) 0.5363(2)
H8 H 0.2380 1.1681 0.5741
C11 C 0.22080(16) 0.7689(2) 0.63679(19)
C12 C 0.21247(15) 0.8072(2) 0.69556(19)
C13 C 0.22542(17) 0.9031(3) 0.7157(2)
H9 H 0.2383 0.9417 0.6922
C14 C 0.2197(2) 0.9428(3) 0.7698(2)
H10 H 0.2294 1.0069 0.7832
C15 C 0.1995(2) 0.8862(3) 0.8038(2)
H11 H 0.1951 0.9125 0.8398
C16 C 0.1860(2) 0.7915(3) 0.7849(2)
H12 H 0.1726 0.7543 0.8084
C17 C 0.19203(17) 0.7499(2) 0.7308(2)
C18 C 0.16343(18) 0.5838(3) 0.7400(2)
C19 C 0.14652(18) 0.4904(3) 0.6966(2)
C20 C 0.13250(17) 0.3179(3) 0.7131(2)
C21 C 0.1194(2) 0.2887(3) 0.6456(2)
H13 H 0.1130 0.3348 0.6113
C22 C 0.1159(3) 0.1917(3) 0.6289(3)
H14 H 0.1076 0.1729 0.5836
C23 C 0.1248(3) 0.1219(3) 0.6798(3)
H15 H 0.1238 0.0565 0.6693
C24 C 0.1351(2) 0.1512(3) 0.7454(2)
H16 H 0.1398 0.1046 0.7787
C25 C 0.13873(15) 0.2480(2) 0.76387(19)
C26 C 0.14779(14) 0.2703(2) 0.83613(18)
C27 C 0.09681(14) 0.7522(2) 0.4897(2)
C28 C 0.06065(16) 0.7802(3) 0.5187(2)
C29 C 0.0635(2) 0.8765(3) 0.5401(3)
H17 H 0.0866 0.9194 0.5345
C30 C 0.0325(3) 0.9088(4) 0.5694(4)
H18 H 0.0352 0.9726 0.5842
C31 C -0.0021(3) 0.8457(4) 0.5764(4)
H19 H -0.0237 0.8677 0.5948
C32 C -0.0055(2) 0.7513(4) 0.5568(3)
H20 H -0.0287 0.7095 0.5628
N1 N 0.14773(12) 1.47558(18) 0.45547(15)
N2 N 0.19123(12) 0.97066(18) 0.48546(15)
N3 N 0.17563(16) 0.6542(2) 0.70836(18)
H21 H 0.1731 0.6389 0.6686
N4 N 0.14027(15) 0.4161(2) 0.73174(16)
H22 H 0.1411 0.4307 0.7706
N5 N 0.02290(15) 0.6205(2) 0.5071(2)
H23 H 0.0416 0.6065 0.4870
O1 O 0.27777(9) 0.82935(14) 0.49313(12)
O2 O 0.23482(11) 0.83015(16) 0.60527(13)
O3 O 0.21337(15) 0.68076(17) 0.62179(16)
O4 O 0.13836(11) 0.35659(16) 0.84844(13)
O5 O 0.16269(11) 0.20336(16) 0.88088(13)
O6 O 0.14003(17) 0.4888(2) 0.63698(16)
O7 O 0.16682(18) 0.5873(2) 0.79798(18)
O8 O 0.09495(11) 0.66496(16) 0.46929(15)
O9 O 0.12700(11) 0.81516(16) 0.48648(17)
O10 O -0.03503(15) 0.5496(2) 0.5397(2)
C33 C 0.02556(17) 0.7168(3) 0.5278(2)
C34 C -0.00499(17) 0.5468(3) 0.5145(2)
Co1E Co 0.295119(18) 0.67986(3) 0.50505(2)
Co1F Co 0.204881(18) 0.17986(3) 0.99495(2)
Co1D Co -0.204881(18) 0.17986(3) 0.50505(2)
Co1F_2 Co 0.204881(18) 0.17986(3) -0.00505(2)
Co2E Co 0.351040(19) 0.87942(3) 0.55664(2)
Co2F Co 0.148960(19) 0.37942(3) 0.94336(2)
Co2_2 Co 0.148960(19) 0.62058(3) 0.44336(2)
Co2D Co -0.148960(19) 0.37942(3) 0.55664(2)
Co2E_2 Co 0.351040(19) -0.12058(3) 0.55664(2)
C1E C 0.32716(19) 0.0664(2) 0.4802(2)
H1E H 0.3137 0.0271 0.4403
C2E C 0.32045(19) 0.1645(2) 0.4707(2)
H2E H 0.3025 0.1905 0.4252
C3E C 0.34068(15) 0.2251(2) 0.52962(18)
C4E C 0.36946(15) 0.1816(2) 0.59598(19)
H3E H 0.3858 0.2195 0.6367
C5E C 0.37378(14) 0.0824(2) 0.60130(18)
H4E H 0.3924 0.0547 0.6462
C6E C 0.33046(15) 0.3308(2) 0.52309(19)
C7E C 0.36484(15) 0.3941(2) 0.5779(2)
H5E H 0.3957 0.3708 0.6183
C8E C 0.35238(15) 0.4911(2) 0.5710(2)
H6E H 0.3756 0.5322 0.6077
C9E C 0.27606(16) 0.4693(2) 0.4612(2)
H7E H 0.2459 0.4950 0.4211
C10E C 0.28554(16) 0.3710(2) 0.4637(2)
H8E H 0.2620 0.3319 0.4259
C11F C 0.22080(16) 0.2311(2) 0.13679(19)
C12F C 0.21247(15) 0.1928(2) 0.19556(19)
C13F C 0.22542(17) 0.0969(3) 0.2157(2)
H9F H 0.2383 0.0583 0.1922
C14F C 0.2197(2) 0.0572(3) 0.2698(2)
H10F H 0.2294 -0.0069 0.2832
C15F C 0.1995(2) 0.1138(3) 0.3038(2)
H11F H 0.1951 0.0875 0.3398
C16F C 0.1860(2) 0.2085(3) 0.2849(2)
H12F H 0.1726 0.2457 0.3084
C17F C 0.19203(17) 0.2501(2) 0.2308(2)
C18F C 0.16343(18) 0.4162(3) 0.2400(2)
C19F C 0.14652(18) 0.5096(3) 0.1966(2)
C20F C 0.13250(17) 0.6821(3) 0.2131(2)
C21F C 0.1194(2) 0.7113(3) 0.1456(2)
H13F H 0.1130 0.6652 0.1113
C22F C 0.1159(3) 0.8083(3) 0.1289(3)
H14F H 0.1076 0.8271 0.0836
C23F C 0.1248(3) 0.8781(3) 0.1798(3)
H15F H 0.1238 0.9435 0.1693
C24F C 0.1351(2) 0.8488(3) 0.2454(2)
H16F H 0.1398 0.8954 0.2787
C25F C 0.13873(15) 0.7520(2) 0.26387(19)
C26F C 0.14779(14) 0.7297(2) 0.33613(18)
C27D C -0.09681(14) 0.2478(2) 0.5103(2)
C28D C -0.06065(16) 0.2198(3) 0.4813(2)
C29D C -0.0635(2) 0.1235(3) 0.4599(3)
H17D H -0.0866 0.0806 0.4655
C30D C -0.0325(3) 0.0912(4) 0.4306(4)
H18D H -0.0352 0.0274 0.4158
C31D C 0.0021(3) 0.1543(4) 0.4236(4)
H19D H 0.0237 0.1323 0.4052
C32D C 0.0055(2) 0.2487(4) 0.4432(3)
H20D H 0.0287 0.2905 0.4372
N1E N 0.35227(12) 0.02442(18) 0.54453(15)
N1E_2 N 0.35227(12) 1.02442(18) 0.54453(15)
N2E N 0.30877(12) 0.52934(18) 0.51454(15)
N3F N 0.17563(16) 0.3458(2) 0.20836(18)
H21F H 0.1731 0.3611 0.1686
N4F N 0.14027(15) 0.5839(2) 0.23174(16)
H22F H 0.1411 0.5693 0.2706
N5D N -0.02290(15) 0.3795(2) 0.4929(2)
H23D H -0.0416 0.3935 0.5130
O1E O 0.22223(9) 0.67065(14) 0.50687(12)
O1E_2 O 0.22223(9) 1.67065(14) 0.50687(12)
O2F O 0.23482(11) 0.16985(16) 0.10527(13)
O2E O 0.26518(11) 0.66985(16) 0.39473(13)
O3F O 0.21337(15) 0.31924(17) 0.12179(16)
O4F O 0.13836(11) 0.64341(16) 0.34844(13)
O4F_2 O 0.13836(11) 1.64341(16) 0.34844(13)
O4C O 0.36164(11) 0.85659(16) 0.65156(13)
O5F O 0.16269(11) 0.79664(16) 0.38088(13)
O5C O 0.33731(11) 0.70336(16) 0.61912(13)
O6F O 0.14003(17) 0.5112(2) 0.13698(16)
O7F O 0.16682(18) 0.4127(2) 0.29798(18)
O8D O -0.09495(11) 0.33504(16) 0.53071(15)
O8_2 O 0.09495(11) 1.66496(16) 0.46929(15)
O8E O 0.40505(11) 0.83504(16) 0.53071(15)
O9D O -0.12700(11) 0.18484(16) 0.51352(17)
O9E O 0.37300(11) 0.68484(16) 0.51352(17)
O10D O 0.03503(15) 0.4504(2) 0.4603(2)
C33D C -0.02556(17) 0.2832(3) 0.4722(2)
C34D C 0.00499(17) 0.4532(3) 0.4855(2)
C35 C 0.4952(6) 0.6533(15) 0.6997(11)
H24 H 0.4899 0.6282 0.6571
C36 C 0.4957(6) 0.7545(15) 0.6942(12)
H25 H 0.4932 0.7867 0.6553
C37 C 0.5000 0.799(2) 0.7500
C38 C 0.5000 0.9012(19) 0.7500
C39 C 0.5095(6) 0.9383(15) 0.6995(12)
H26 H 0.5131 0.9036 0.6655
C40 C 0.5129(6) 1.0392(15) 0.7084(12)
H27 H 0.5261 1.0709 0.6822
N6 N 0.5000 0.560(3) 0.7500
N7 N 0.5000 1.103(2) 0.7500
C35B C 0.5048(6) 0.6533(15) 0.8003(11)
H24B H 0.5101 0.6282 0.8429
C36B C 0.5043(6) 0.7545(15) 0.8058(12)
H25B H 0.5068 0.7867 0.8447
C39B C 0.4905(6) 0.9383(15) 0.8005(12)
H26B H 0.4869 0.9036 0.8345
C40B C 0.4871(6) 1.0392(15) 0.7916(12)
H27B H 0.4739 1.0709 0.8178
loop_
_geom_bond_atom_site_label_1
_geom_bond_atom_site_label_2
_geom_bond_site_symmetry_1
_geom_bond_site_symmetry_2
Co1 N2 1_555 1_555
Co2 N1 1_555 1_555
C1 H1 1_555 1_555
C2 C1 1_555 1_555
H2 C2 1_555 1_555
C3 C2 1_555 1_555
C4 C3 1_555 1_555
H3 C4 1_555 1_555
C5 C4 1_555 1_555
H4 C5 1_555 1_555
C6 C3 1_555 1_555
C7 C6 1_555 1_555
H5 C7 1_555 1_555
C8 C7 1_555 1_555
H6 C8 1_555 1_555
C9 H7 1_555 1_555
C10 C6 1_555 1_555
H8 C10 1_555 1_555
C11 C12 1_555 1_555
C12 C13 1_555 1_555
C13 H9 1_555 1_555
C14 C13 1_555 1_555
H10 C14 1_555 1_555
C15 C14 1_555 1_555
H11 C15 1_555 1_555
C16 C15 1_555 1_555
H12 C16 1_555 1_555
C17 C12 1_555 1_555
C18 C19 1_555 1_555
C19 N4 1_555 1_555
C20 C21 1_555 1_555
C21 H13 1_555 1_555
C22 C21 1_555 1_555
H14 C22 1_555 1_555
C23 C22 1_555 1_555
H15 C23 1_555 1_555
C24 C23 1_555 1_555
H16 C24 1_555 1_555
C25 C20 1_555 1_555
C26 C25 1_555 1_555
C27 C28 1_555 1_555
C28 C29 1_555 1_555
C29 H17 1_555 1_555
C30 C29 1_555 1_555
H18 C30 1_555 1_555
C31 C30 1_555 1_555
H19 C31 1_555 1_555
C32 C31 1_555 1_555
H20 C32 1_555 1_555
N1 C1 1_555 1_555
N2 C8 1_555 1_555
N3 C17 1_555 1_555
H21 N3 1_555 1_555
N4 C20 1_555 1_555
H22 N4 1_555 1_555
N5 H23 1_555 1_555
O1 Co1 1_555 1_555
O2 Co1 1_555 1_555
O3 C11 1_555 1_555
O4 C26 1_555 1_555
O5 C26 1_555 1_555
O6 C19 1_555 1_555
O7 C18 1_555 1_555
O8 C27 1_555 1_555
O9 Co1 1_555 1_555
O10 C34 1_555 1_555
C33 C28 1_555 1_555
C34 N5 1_555 1_555
C35 H24 1_555 1_555
C36 C35 1_555 1_555
H25 C36 1_555 1_555
C37 C36 1_555 1_555
C38 C37 1_555 1_555
C39 C38 1_555 1_555
H26 C39 1_555 1_555
C40 C39 1_555 1_555
H27 C40 1_555 1_555
N6 C35 1_555 1_555
N7 C40 1_555 1_555
Co1E O1 1_555 1_555
Co1F O5 1_555 1_555
Co1D O9D 1_555 1_555
Co1F_2 O2F 1_555 1_555
Co2E O1 1_555 1_555
Co2F O4 1_555 1_555
Co2_2 O8 1_555 1_555
Co2D O8D 1_555 1_555
Co2E_2 N1E 1_555 1_555
C1E H1E 1_555 1_555
C2E C1E 1_555 1_555
H2E C2E 1_555 1_555
C3E C2E 1_555 1_555
C4E C3E 1_555 1_555
H3E C4E 1_555 1_555
C5E C4E 1_555 1_555
H4E C5E 1_555 1_555
C6E C3E 1_555 1_555
C7E C6E 1_555 1_555
H5E C7E 1_555 1_555
C8E C7E 1_555 1_555
H6E C8E 1_555 1_555
C9E H7E 1_555 1_555
C10E C6E 1_555 1_555
H8E C10E 1_555 1_555
C11F C12F 1_555 1_555
C12F C13F 1_555 1_555
C13F H9F 1_555 1_555
C14F C13F 1_555 1_555
H10F C14F 1_555 1_555
C15F C14F 1_555 1_555
H11F C15F 1_555 1_555
C16F C15F 1_555 1_555
H12F C16F 1_555 1_555
C17F C12F 1_555 1_555
C18F C19F 1_555 1_555
C19F N4F 1_555 1_555
C20F C21F 1_555 1_555
C21F H13F 1_555 1_555
C22F C21F 1_555 1_555
H14F C22F 1_555 1_555
C23F C22F 1_555 1_555
H15F C23F 1_555 1_555
C24F C23F 1_555 1_555
H16F C24F 1_555 1_555
C25F C20F 1_555 1_555
C26F C25F 1_555 1_555
C27D C28D 1_555 1_555
C28D C29D 1_555 1_555
C29D H17D 1_555 1_555
C30D C29D 1_555 1_555
H18D C30D 1_555 1_555
C31D C30D 1_555 1_555
H19D C31D 1_555 1_555
C32D C31D 1_555 1_555
H20D C32D 1_555 1_555
N1E C1E 1_555 1_555
N1E_2 Co2E 1_555 1_555
N2E Co1E 1_555 1_555
N3F C17F 1_555 1_555
H21F N3F 1_555 1_555
N4F C20F 1_555 1_555
H22F N4F 1_555 1_555
N5D H23D 1_555 1_555
O1E Co1 1_555 1_555
O1E_2 Co2 1_555 1_555
O2F C11F 1_555 1_555
O2E Co1E 1_555 1_555
O3F C11F 1_555 1_555
O4F Co2_2 1_555 1_555
O4F_2 Co2 1_555 1_555
O4C Co2E 1_555 1_555
O5F Co1 1_555 1_555
O5C Co1E 1_555 1_555
O6F C19F 1_555 1_555
O7F C18F 1_555 1_555
O8D C27D 1_555 1_555
O8_2 Co2 1_555 1_555
O8E Co2E 1_555 1_555
O9D C27D 1_555 1_555
O9E Co1E 1_555 1_555
O10D C34D 1_555 1_555
C33D C28D 1_555 1_555
C34D C34 1_555 1_555
C35B N6 1_555 1_555
H24B C35B 1_555 1_555
C36B C37 1_555 1_555
H25B C36B 1_555 1_555
C39B C38 1_555 1_555
H26B C39B 1_555 1_555
C40B N7 1_555 1_555
H27B C40B 1_555 1_555
C5 N1 1_555 1_555
C9 C10 1_555 1_555
C9 N2 1_555 1_555
C11 O2 1_555 1_555
C16 C17 1_555 1_555
C18 N3 1_555 1_555
C24 C25 1_555 1_555
C27 O9 1_555 1_555
C32 C33 1_555 1_555
N5 C33 1_555 1_555
Co1E O1E 1_555 1_555
Co2_2 O1E 1_555 1_555
C5E N1E 1_555 1_555
C8E N2E 1_555 1_555
C9E C10E 1_555 1_555
C9E N2E 1_555 1_555
C16F C17F 1_555 1_555
C18F N3F 1_555 1_555
C24F C25F 1_555 1_555
C26F O4F 1_555 1_555
C26F O5F 1_555 1_555
C32D C33D 1_555 1_555
N5D C33D 1_555 1_555
N5D C34D 1_555 1_555
C35B C36B 1_555 1_555
C39B C40B 1_555 1_555

#END
