
#######################################################################
#
#                 Cambridge Crystallographic Data Centre
#                                CCDC 
#
#######################################################################
#
# If this CIF has been generated from an entry in the Cambridge 
# Structural Database, then it will include bibliographic, chemical, 
# crystal, experimental, refinement or atomic coordinate data resulting 
# from the CCDC's data processing and validation procedures.
#
#######################################################################

data_PIQPUC
_symmetry_cell_setting           monoclinic
_symmetry_space_group_name_H-M   'P 2/c'
_symmetry_Int_Tables_number      13
_space_group_name_Hall           '-P 2yc'
loop_
_symmetry_equiv_pos_site_id
_symmetry_equiv_pos_as_xyz
1 x,y,z
2 -x,y,1/2-z
3 -x,-y,-z
4 x,-y,1/2+z
_cell_length_a                   15.777(2)
_cell_length_b                   10.6187(15)
_cell_length_c                   18.958(3)
_cell_angle_alpha                90
_cell_angle_beta                 97.359(2)
_cell_angle_gamma                90
_cell_volume                     3149.9
loop_
_atom_site_label
_atom_site_type_symbol
_atom_site_fract_x
_atom_site_fract_y
_atom_site_fract_z
C1 C 0.8852(4) 0.5460(7) 0.3912(3)
C2 C 0.8043(4) 0.6133(7) 0.3718(3)
C3 C 0.7595(4) 0.5994(7) 0.3039(3)
H1 H 0.7814 0.5469 0.2713
C4 C 0.6827(4) 0.6624(7) 0.2838(3)
H2 H 0.6531 0.6519 0.2385
C5 C 0.6517(4) 0.7407(7) 0.3326(4)
C6 C 0.6937(4) 0.7557(8) 0.4012(4)
H3 H 0.6715 0.8080 0.4336
C7 C 0.7685(4) 0.6917(8) 0.4197(3)
H4 H 0.7965 0.7005 0.4657
C8 C 0.5508(4) 0.9068(7) 0.3393(3)
C9 C 0.4779(4) 0.9088(7) 0.3711(3)
H5 H 0.4457 0.8363 0.3749
C10 C 0.4540(4) 1.0232(7) 0.3974(3)
C11 C 0.5005(3) 1.1327(7) 0.3941(3)
H6 H 0.4836 1.2077 0.4135
C12 C 0.5731(4) 1.1260(8) 0.3607(3)
C13 C 0.6003(4) 1.0144(7) 0.3319(4)
H7 H 0.6489 1.0116 0.3089
C14 C 0.3157(4) 0.9493(7) 0.4144(4)
C15 C 0.2946(4) 0.8689(9) 0.4665(4)
H8 H 0.3241 0.8726 0.5122
C16 C 0.2295(4) 0.7828(8) 0.4504(4)
H9 H 0.2134 0.7315 0.4862
C17 C 0.1883(4) 0.7717(7) 0.3828(3)
C18 C 0.2118(5) 0.8491(8) 0.3287(4)
H10 H 0.1858 0.8400 0.2822
C19 C 0.2754(5) 0.9410(8) 0.3459(4)
H11 H 0.2900 0.9957 0.3111
C20 C 0.6756(4) 1.2498(8) 0.3086(4)
C21 C 0.7618(5) 1.2408(7) 0.3306(4)
H12 H 0.7814 1.2197 0.3774
C22 C 0.8194(4) 1.2631(7) 0.2827(3)
H13 H 0.8778 1.2588 0.2976
C23 C 0.7902(4) 1.2915(7) 0.2129(3)
C24 C 0.7034(4) 1.2948(8) 0.1896(4)
H14 H 0.6837 1.3103 0.1420
C25 C 0.6450(4) 1.2741(9) 0.2392(4)
H15 H 0.5865 1.2771 0.2247
C26 C 0.8513(3) 1.3269(6) 0.1621(3)
C27 C 0.1203(4) 0.6737(7) 0.3647(4)
O1 O 0.9228(2) 0.4948(4) 0.3443(2)
O2 O 0.9185(3) 0.5422(5) 0.4553(2)
O3 O 0.9294(2) 1.3517(4) 0.1873(2)
O4 O 0.0941(3) 0.6164(5) 0.4177(2)
O5 O 0.0935(3) 0.6539(5) 0.3005(2)
O6 O 0.8279(3) 1.3350(5) 0.0967(2)
O7 O 0.9681(4) 0.2642(6) 0.4701(3)
O8 O 0.5719(3) 0.7941(5) 0.3096(2)
O9 O 0.3813(3) 1.0377(5) 0.4319(3)
O10 O 0.6180(3) 1.2388(6) 0.3581(3)
Cd1 Cd 1.0000 0.51467(7) 0.2500
Cd2 Cd 1.04196(2) 0.42083(5) 0.42627(2)
C1A C 0.1148(4) 0.5460(7) 0.1088(3)
C2A C 0.1957(4) 0.6133(7) 0.1282(3)
C3A C 0.2405(4) 0.5994(7) 0.1961(3)
H1A H 0.2186 0.5469 0.2287
C4A C 0.3173(4) 0.6624(7) 0.2162(3)
H2A H 0.3469 0.6519 0.2615
C5A C 0.3483(4) 0.7407(7) 0.1674(4)
C6A C 0.3063(4) 0.7557(8) 0.0988(4)
H3A H 0.3285 0.8080 0.0664
C7A C 0.2315(4) 0.6917(8) 0.0803(3)
H4A H 0.2035 0.7005 0.0343
C8A C 0.4492(4) 0.9068(7) 0.1607(3)
C9A C 0.5221(4) 0.9088(7) 0.1289(3)
H5A H 0.5543 0.8363 0.1251
C10A C 0.5460(4) 1.0232(7) 0.1026(3)
C11A C 0.4995(3) 1.1327(7) 0.1059(3)
H6A H 0.5164 1.2077 0.0865
C12A C 0.4269(4) 1.1260(8) 0.1393(3)
C13A C 0.3997(4) 1.0144(7) 0.1681(4)
H7A H 0.3511 1.0116 0.1911
C14A C 0.6843(4) 0.9493(7) 0.0856(4)
C15A C 0.7054(4) 0.8689(9) 0.0335(4)
H8A H 0.6759 0.8726 -0.0122
C16A C 0.7705(4) 0.7828(8) 0.0496(4)
H9A H 0.7866 0.7315 0.0138
C17A C 0.8117(4) 0.7717(7) 0.1172(3)
C18A C 0.7882(5) 0.8491(8) 0.1713(4)
H10A H 0.8142 0.8400 0.2178
C19A C 0.7246(5) 0.9410(8) 0.1541(4)
H11A H 0.7100 0.9957 0.1889
C20A C 0.3244(4) 1.2498(8) 0.1914(4)
C21A C 0.2382(5) 1.2408(7) 0.1694(4)
H12A H 0.2186 1.2197 0.1226
C22A C 0.1806(4) 1.2631(7) 0.2173(3)
H13A H 0.1222 1.2588 0.2024
C23A C 0.2098(4) 1.2915(7) 0.2871(3)
C24A C 0.2966(4) 1.2948(8) 0.3104(4)
H14A H 0.3163 1.3103 0.3580
C25A C 0.3550(4) 1.2741(9) 0.2608(4)
H15A H 0.4135 1.2771 0.2753
C26A C 0.1487(3) 1.3269(6) 0.3379(3)
C27A C 0.8797(4) 0.6737(7) 0.1353(4)
O1A O 0.0772(2) 0.4948(4) 0.1557(2)
O2A O 0.0815(3) 0.5422(5) 0.0447(2)
O3A O 0.0706(2) 1.3517(4) 0.3127(2)
O4A O 0.9059(3) 0.6164(5) 0.0823(2)
O5A O 0.9065(3) 0.6539(5) 0.1995(2)
O6A O 0.1721(3) 1.3350(5) 0.4033(2)
O7A O 0.0319(4) 0.2642(6) 0.0299(3)
O8A O 0.4281(3) 0.7941(5) 0.1904(2)
O9A O 0.6187(3) 1.0377(5) 0.0681(3)
O10A O 0.3820(3) 1.2388(6) 0.1419(3)
Cd2A Cd -0.04196(2) 0.42083(5) 0.07373(2)
O1A_2 O 1.0772(2) 0.4948(4) 0.1557(2)
O2B O 1.0815(3) 0.4578(5) 0.5447(2)
O2C O -0.0815(3) 0.4578(5) -0.0447(2)
O3_2 O -0.0706(2) 0.3517(4) 0.1873(2)
O3_3 O 0.9294(2) 0.3517(4) 0.1873(2)
O3A_2 O 1.0706(2) 0.3517(4) 0.3127(2)
O4_2 O 1.0941(3) 0.6164(5) 0.4177(2)
O4A_2 O -0.0941(3) 0.6164(5) 0.0823(2)
O5_2 O 1.0935(3) 0.6539(5) 0.3005(2)
O6_2 O -0.1721(3) 0.3350(5) 0.0967(2)
O6A_2 O 1.1721(3) 0.3350(5) 0.4033(2)
Cd1_2 Cd 0.0000 0.51467(7) 0.2500
Cd1_3 Cd 0.0000 1.51467(7) 0.2500
Cd1_4 Cd 1.0000 1.51467(7) 0.2500
Cd2_2 Cd 0.04196(2) 0.42083(5) 0.42627(2)
Cd2_3 Cd 0.04196(2) 1.42083(5) 0.42627(2)
Cd2A_2 Cd 0.95804(2) 0.42083(5) 0.07373(2)
Cd2A_3 Cd 0.95804(2) 1.42083(5) 0.07373(2)
Cd2B Cd 0.95804(2) 0.57917(5) 0.57373(2)
Cd2C Cd 0.04196(2) 0.57917(5) -0.07373(2)
loop_
_geom_bond_atom_site_label_1
_geom_bond_atom_site_label_2
_geom_bond_site_symmetry_1
_geom_bond_site_symmetry_2
C1 C2 1_555 1_555
C2 C3 1_555 1_555
C3 H1 1_555 1_555
C4 C3 1_555 1_555
H2 C4 1_555 1_555
C5 C4 1_555 1_555
C6 C5 1_555 1_555
H3 C6 1_555 1_555
C7 C2 1_555 1_555
H4 C7 1_555 1_555
C8 C9 1_555 1_555
C9 H5 1_555 1_555
C10 C9 1_555 1_555
C11 C10 1_555 1_555
H6 C11 1_555 1_555
C12 C11 1_555 1_555
C13 C8 1_555 1_555
H7 C13 1_555 1_555
C14 C15 1_555 1_555
C15 H8 1_555 1_555
C16 C15 1_555 1_555
H9 C16 1_555 1_555
C17 C16 1_555 1_555
C18 C17 1_555 1_555
H10 C18 1_555 1_555
C19 C14 1_555 1_555
H11 C19 1_555 1_555
C20 C21 1_555 1_555
C21 H12 1_555 1_555
C22 C21 1_555 1_555
H13 C22 1_555 1_555
C23 C22 1_555 1_555
C24 C23 1_555 1_555
H14 C24 1_555 1_555
C25 C20 1_555 1_555
H15 C25 1_555 1_555
C26 C23 1_555 1_555
C27 C17 1_555 1_555
O1 C1 1_555 1_555
O2 C1 1_555 1_555
O3 C26 1_555 1_555
O4 C27 1_555 1_555
O5 C27 1_555 1_555
O6 C26 1_555 1_555
O7 Cd2 1_555 1_555
O8 C5 1_555 1_555
O9 C10 1_555 1_555
O10 C12 1_555 1_555
Cd1 O1 1_555 1_555
Cd2 O1 1_555 1_555
C1A C2A 1_555 1_555
C2A C3A 1_555 1_555
C3A H1A 1_555 1_555
C4A C3A 1_555 1_555
H2A C4A 1_555 1_555
C5A C4A 1_555 1_555
C6A C5A 1_555 1_555
H3A C6A 1_555 1_555
C7A C2A 1_555 1_555
H4A C7A 1_555 1_555
C8A C9A 1_555 1_555
C9A H5A 1_555 1_555
C10A C9A 1_555 1_555
C11A C10A 1_555 1_555
H6A C11A 1_555 1_555
C12A C11A 1_555 1_555
C13A C8A 1_555 1_555
H7A C13A 1_555 1_555
C14A C15A 1_555 1_555
C15A H8A 1_555 1_555
C16A C15A 1_555 1_555
H9A C16A 1_555 1_555
C17A C16A 1_555 1_555
C18A C17A 1_555 1_555
H10A C18A 1_555 1_555
C19A C14A 1_555 1_555
H11A C19A 1_555 1_555
C20A C21A 1_555 1_555
C21A H12A 1_555 1_555
C22A C21A 1_555 1_555
H13A C22A 1_555 1_555
C23A C22A 1_555 1_555
C24A C23A 1_555 1_555
H14A C24A 1_555 1_555
C25A C20A 1_555 1_555
H15A C25A 1_555 1_555
C26A C23A 1_555 1_555
C27A C17A 1_555 1_555
O1A C1A 1_555 1_555
O2A C1A 1_555 1_555
O3A C26A 1_555 1_555
O4A C27A 1_555 1_555
O5A Cd1 1_555 1_555
O6A C26A 1_555 1_555
O7A Cd2A 1_555 1_555
O8A C5A 1_555 1_555
O9A C10A 1_555 1_555
O10A C12A 1_555 1_555
Cd2A O1A 1_555 1_555
O1A_2 Cd1 1_555 1_555
O2B Cd2 1_555 1_555
O2C Cd2A 1_555 1_555
O3_2 Cd2A 1_555 1_555
O3_3 Cd1 1_555 1_555
O3A_2 Cd1 1_555 1_555
O4_2 Cd2 1_555 1_555
O4A_2 Cd2A 1_555 1_555
O5_2 Cd1 1_555 1_555
O6_2 Cd2A 1_555 1_555
O6A_2 Cd2 1_555 1_555
Cd1_2 O5 1_555 1_555
Cd1_3 O3A 1_555 1_555
Cd1_4 O3 1_555 1_555
Cd2_2 O4 1_555 1_555
Cd2_3 O3A 1_555 1_555
Cd2A_2 O4A 1_555 1_555
Cd2A_3 O3 1_555 1_555
Cd2B O2 1_555 1_555
Cd2C O2A 1_555 1_555
C6 C7 1_555 1_555
C8 O8 1_555 1_555
C12 C13 1_555 1_555
C14 O9 1_555 1_555
C18 C19 1_555 1_555
C20 O10 1_555 1_555
C24 C25 1_555 1_555
O2 Cd2 1_555 1_555
O6 Cd2A_3 1_555 1_555
Cd2 O3A_2 1_555 1_555
C6A C7A 1_555 1_555
C8A O8A 1_555 1_555
C12A C13A 1_555 1_555
C14A O9A 1_555 1_555
C18A C19A 1_555 1_555
C20A O10A 1_555 1_555
C24A C25A 1_555 1_555
C27A O5A 1_555 1_555
O1A Cd1_2 1_555 1_555
O2A Cd2A 1_555 1_555
O6A Cd2_3 1_555 1_555
O1A_2 Cd2A_2 1_555 1_555
O2B Cd2B 1_555 1_555
O2C Cd2C 1_555 1_555
O3_2 Cd1_2 1_555 1_555
O3_3 Cd2A_2 1_555 1_555

#END
