
#######################################################################
#
#                 Cambridge Crystallographic Data Centre
#                                CCDC 
#
#######################################################################
#
# If this CIF has been generated from an entry in the Cambridge 
# Structural Database, then it will include bibliographic, chemical, 
# crystal, experimental, refinement or atomic coordinate data resulting 
# from the CCDC's data processing and validation procedures.
#
#######################################################################

data_PIQQIR
_symmetry_cell_setting           monoclinic
_symmetry_space_group_name_H-M   'P 21/c'
_symmetry_Int_Tables_number      14
_space_group_name_Hall           '-P 2ybc'
loop_
_symmetry_equiv_pos_site_id
_symmetry_equiv_pos_as_xyz
1 x,y,z
2 -x,1/2+y,1/2-z
3 -x,-y,-z
4 x,1/2-y,1/2+z
_cell_length_a                   15.870(3)
_cell_length_b                   20.433(4)
_cell_length_c                   19.220(3)
_cell_angle_alpha                90
_cell_angle_beta                 98.409(3)
_cell_angle_gamma                90
_cell_volume                     6165.5
loop_
_atom_site_label
_atom_site_type_symbol
_atom_site_fract_x
_atom_site_fract_y
_atom_site_fract_z
C1 C 1.3444(11) 1.1680(9) 0.6392(10)
C2 C 1.2848(11) 1.1540(9) 0.6925(10)
C3 C 1.3140(14) 1.1382(10) 0.7614(12)
H1 H 1.3720 1.1323 0.7760
C4 C 1.2566(17) 1.1310(11) 0.8088(13)
H2 H 1.2752 1.1202 0.8556
C5 C 1.1699(17) 1.1405(11) 0.7844(17)
C6 C 1.1428(16) 1.1560(13) 0.7176(14)
H3 H 1.0850 1.1632 0.7032
C7 C 1.1979(13) 1.1616(11) 0.6701(13)
H4 H 1.1778 1.1704 0.6232
C8 C 1.0763(13) 1.0812(10) 0.8502(11)
C9 C 1.0047(11) 1.0885(9) 0.8823(9)
H5 H 0.9875 1.1297 0.8952
C10 C 0.9592(11) 1.0335(9) 0.8947(10)
C11 C 0.9849(12) 0.9707(10) 0.8767(11)
H6 H 0.9552 0.9334 0.8865
C12 C 1.0569(11) 0.9672(9) 0.8437(10)
C13 C 1.1035(12) 1.0204(9) 0.8314(11)
H7 H 1.1527 1.0160 0.8108
C14 C 0.8261(12) 0.9950(10) 0.9185(12)
C15 C 0.8146(14) 0.9533(11) 0.9690(14)
H8 H 0.8496 0.9564 1.0121
C16 C 0.7534(14) 0.9062(11) 0.9602(12)
H9 H 0.7462 0.8781 0.9970
C17 C 0.7020(13) 0.9005(9) 0.8957(13)
C18 C 0.6361(11) 0.8483(10) 0.8863(10)
C19 C 0.7116(13) 0.9437(10) 0.8429(12)
H10 H 0.6758 0.9409 0.8002
C20 C 0.7746(12) 0.9916(10) 0.8527(11)
H11 H 0.7823 1.0205 0.8168
C21 C 1.1594(12) 0.8814(9) 0.8469(11)
C22 C 1.1972(12) 0.8885(10) 0.9180(10)
H12 H 1.1696 0.9123 0.9492
C23 C 1.2769(12) 0.8592(10) 0.9413(11)
H13 H 1.3020 0.8637 0.9878
C24 C 1.3176(11) 0.8236(8) 0.8945(9)
C25 C 1.4012(13) 0.7921(10) 0.9184(11)
C26 C 1.2778(12) 0.8172(10) 0.8248(12)
H14 H 1.3055 0.7940 0.7932
C27 C 1.1977(12) 0.8446(10) 0.8013(12)
H15 H 1.1711 0.8378 0.7554
C28 C 0.3764(11) 0.2709(8) 0.8691(9)
C29 C 0.2940(11) 0.3065(9) 0.8540(11)
C30 C 0.2590(12) 0.3383(10) 0.9078(11)
H16 H 0.2867 0.3357 0.9538
C31 C 0.1843(12) 0.3733(11) 0.8934(13)
H17 H 0.1610 0.3948 0.9287
C32 C 0.1448(11) 0.3751(9) 0.8226(11)
C33 C 0.1777(11) 0.3426(9) 0.7680(10)
H18 H 0.1497 0.3433 0.7220
C34 C 0.2530(12) 0.3099(10) 0.7859(10)
H19 H 0.2774 0.2891 0.7507
C35 C 0.0483(11) 0.4626(9) 0.8378(10)
C36 C 0.0968(12) 0.5169(9) 0.8385(11)
H20 H 0.1464 0.5166 0.8181
C37 C 0.0725(11) 0.5717(9) 0.8693(10)
C38 C -0.0002(11) 0.5740(9) 0.8997(10)
H21 H -0.0158 0.6122 0.9210
C39 C -0.0498(11) 0.5185(10) 0.8979(10)
C40 C -0.0263(12) 0.4607(9) 0.8676(11)
H22 H -0.0588 0.4229 0.8673
C41 C 0.1783(14) 0.6374(11) 0.8283(11)
C42 C 0.2625(13) 0.6364(11) 0.8509(13)
H23 H 0.2822 0.6273 0.8979
C43 C 0.3197(13) 0.6484(10) 0.8057(11)
H24 H 0.3776 0.6494 0.8226
C44 C 0.2921(12) 0.6593(9) 0.7346(11)
C45 C 0.3564(13) 0.6711(10) 0.6877(11)
C46 C 0.2050(13) 0.6608(12) 0.7098(12)
H25 H 0.1848 0.6677 0.6625
C47 C 0.1491(13) 0.6516(11) 0.7590(13)
H26 H 0.0908 0.6551 0.7444
C48 C -0.1846(12) 0.4783(11) 0.9145(12)
C49 C -0.2079(13) 0.4346(12) 0.9594(13)
H27 H -0.1789 0.4326 1.0051
C50 C -0.2743(13) 0.3925(11) 0.9390(12)
H28 H -0.2905 0.3636 0.9720
C51 C -0.3180(11) 0.3913(9) 0.8714(9)
C52 C -0.2956(12) 0.4359(9) 0.8242(10)
H29 H -0.3247 0.4366 0.7786
C53 C -0.2297(13) 0.4803(10) 0.8438(11)
H30 H -0.2151 0.5108 0.8117
C54 C -0.3883(12) 0.3420(9) 0.8490(13)
Cd1 Cd 1.44420(8) 1.22229(7) 0.55135(7)
Cd2 Cd 0.50818(8) 0.76745(7) 0.77195(8)
O1 O 1.4223(7) 1.1823(6) 0.6666(7)
O2 O 1.3213(9) 1.1671(8) 0.5769(8)
O3 O 0.6251(10) 0.8133(7) 0.9356(8)
O4 O 1.5230(12) 1.1419(8) 0.5145(10)
O5 O 1.4318(8) 0.7936(6) 0.9741(7)
O6 O 0.4102(7) 0.2586(7) 0.9364(7)
O7 O 0.4164(7) 0.2531(7) 0.8205(7)
O8 O 0.3334(8) 0.6705(7) 0.6220(7)
O9 O -0.4136(10) 0.3113(6) 0.9004(8)
O10 O 1.1173(12) 1.1393(8) 0.8385(10)
O11 O 0.8892(8) 1.0430(7) 0.9284(8)
O12 O 1.0790(8) 0.9052(7) 0.8234(8)
O13 O 0.0656(8) 0.4047(7) 0.8029(8)
O14 O -0.1202(9) 0.5232(7) 0.9326(8)
O15 O 0.1184(9) 0.6305(7) 0.8730(8)
O16 O 0.4321(8) 0.6840(6) 0.7113(7)
O17 O 1.4375(8) 0.7630(6) 0.8693(7)
O18 O 0.5976(9) 0.8407(7) 0.8233(8)
O19 O -0.4145(9) 0.3361(7) 0.7857(7)
C55 C 0.514(3) 0.0457(16) 0.872(2)
H31 H 0.5682 0.0333 0.8989
H32 H 0.5231 0.0555 0.8243
C56 C 0.452(3) -0.0087(17) 0.872(2)
H33 H 0.4807 -0.0498 0.8838
H34 H 0.4175 -0.0130 0.8259
C57 C 0.397(3) 0.0087(17) 0.925(2)
H35 H 0.3377 0.0117 0.9049
H36 H 0.4033 -0.0224 0.9638
C58 C 0.436(2) 0.0789(16) 0.9500(19)
H37 H 0.4722 0.0743 0.9948
H38 H 0.3893 0.1081 0.9568
Cd3 Cd 0.53472(8) 0.20763(7) 0.90241(8)
O20 O 0.4791(12) 0.1044(9) 0.9043(11)
Cd1A Cd 0.55580(8) 0.72229(7) 0.94865(7)
Cd1A_2 Cd 1.55580(8) 0.72229(7) 0.94865(7)
Cd1C Cd 0.44420(8) 0.27771(7) 1.05135(7)
Cd2_2 Cd 1.50818(8) 0.76745(7) 0.77195(8)
Cd2A Cd -0.50818(8) 0.26745(7) 0.72805(8)
Cd2A_2 Cd 0.49182(8) 0.26745(7) 0.72805(8)
Cd2A_3 Cd 1.49182(8) 1.26745(7) 0.72805(8)
O1A O 0.5777(7) 0.6823(6) 0.8334(7)
O3A O 1.3749(10) 1.3133(7) 0.5644(8)
O5A O 1.5682(8) 1.2936(6) 0.5259(7)
O5B O 0.5682(8) 0.2064(6) 1.0259(7)
O6C O 1.4102(7) 1.2414(7) 0.4364(7)
O7A O 0.5836(7) 0.7531(7) 0.6795(7)
O8A O 0.6666(8) 0.1705(7) 0.8780(7)
O9_2 O 0.5864(10) 0.3113(6) 0.9004(8)
O16A O 0.5679(8) 0.1840(6) 0.7887(7)
O17_2 O 0.4375(8) 0.7630(6) 0.8693(7)
O17A O 1.5625(8) 1.2630(6) 0.6307(7)
O19A O 0.4145(9) 0.8361(7) 0.7143(7)
Cd3_2 Cd -0.46528(8) 0.20763(7) 0.90241(8)
Cd3A Cd 0.46528(8) 0.70763(7) 0.59759(8)
Cd3B Cd 1.46528(8) 0.79237(7) 1.09759(8)
C59 C 0.492(2) 0.482(2) 0.119(2)
H39 H 0.4673 0.4417 0.1336
H40 H 0.4456 0.5099 0.0972
C60 C 0.540(2) 0.517(2) 0.184(2)
H41 H 0.5086 0.5538 0.1981
H42 H 0.5546 0.4872 0.2228
C61 C 0.616(4) 0.538(3) 0.155(2)
H43 H 0.6666 0.5223 0.1847
H44 H 0.6185 0.5857 0.1548
C62 C 0.6163(19) 0.5138(14) 0.0818(15)
H45 H 0.6069 0.5492 0.0479
H46 H 0.6696 0.4921 0.0771
O21 O 0.5486(14) 0.4697(11) 0.0731(12)
C63 C 1.020(4) 0.230(2) 0.442(3)
H47 H 1.0273 0.1842 0.4318
H48 H 1.0440 0.2557 0.4065
C64 C 0.933(3) 0.245(2) 0.440(3)
H49 H 0.9152 0.2779 0.4037
H50 H 0.8984 0.2064 0.4290
C65 C 0.921(4) 0.270(2) 0.507(4)
H51 H 0.8984 0.3142 0.5022
H52 H 0.8816 0.2427 0.5274
C66 C 1.002(6) 0.270(3) 0.550(2)
H53 H 0.9999 0.2430 0.5911
H54 H 1.0167 0.3145 0.5659
O22 O 1.063(3) 0.246(3) 0.510(4)
loop_
_geom_bond_atom_site_label_1
_geom_bond_atom_site_label_2
_geom_bond_site_symmetry_1
_geom_bond_site_symmetry_2
C1 C2 1_555 1_555
C2 C3 1_555 1_555
C3 H1 1_555 1_555
C4 C3 1_555 1_555
H2 C4 1_555 1_555
C5 C4 1_555 1_555
C6 C5 1_555 1_555
H3 C6 1_555 1_555
C7 C2 1_555 1_555
H4 C7 1_555 1_555
C8 C9 1_555 1_555
C9 H5 1_555 1_555
C10 C9 1_555 1_555
C11 C10 1_555 1_555
H6 C11 1_555 1_555
C12 C11 1_555 1_555
C13 C8 1_555 1_555
H7 C13 1_555 1_555
C14 C15 1_555 1_555
C15 H8 1_555 1_555
C16 C15 1_555 1_555
H9 C16 1_555 1_555
C17 C16 1_555 1_555
C18 C17 1_555 1_555
C19 C17 1_555 1_555
H10 C19 1_555 1_555
C20 C14 1_555 1_555
H11 C20 1_555 1_555
C21 C22 1_555 1_555
C22 H12 1_555 1_555
C23 C22 1_555 1_555
H13 C23 1_555 1_555
C24 C23 1_555 1_555
C25 C24 1_555 1_555
C26 C24 1_555 1_555
H14 C26 1_555 1_555
C27 C21 1_555 1_555
H15 C27 1_555 1_555
C28 C29 1_555 1_555
C29 C30 1_555 1_555
C30 H16 1_555 1_555
C31 C30 1_555 1_555
H17 C31 1_555 1_555
C32 C31 1_555 1_555
C33 C32 1_555 1_555
H18 C33 1_555 1_555
C34 C29 1_555 1_555
H19 C34 1_555 1_555
C35 C36 1_555 1_555
C36 H20 1_555 1_555
C37 C36 1_555 1_555
C38 C37 1_555 1_555
H21 C38 1_555 1_555
C39 C38 1_555 1_555
C40 C35 1_555 1_555
H22 C40 1_555 1_555
C41 C42 1_555 1_555
C42 H23 1_555 1_555
C43 C42 1_555 1_555
H24 C43 1_555 1_555
C44 C43 1_555 1_555
C45 C44 1_555 1_555
C46 C44 1_555 1_555
H25 C46 1_555 1_555
C47 C41 1_555 1_555
H26 C47 1_555 1_555
C48 C49 1_555 1_555
C49 H27 1_555 1_555
C50 C49 1_555 1_555
H28 C50 1_555 1_555
C51 C50 1_555 1_555
C52 C51 1_555 1_555
H29 C52 1_555 1_555
C53 C48 1_555 1_555
H30 C53 1_555 1_555
C54 C51 1_555 1_555
Cd1 O1 1_555 1_555
Cd2 O16 1_555 1_555
O1 C1 1_555 1_555
O2 C1 1_555 1_555
O3 C18 1_555 1_555
O4 Cd1 1_555 1_555
O5 C25 1_555 1_555
O6 C28 1_555 1_555
O7 C28 1_555 1_555
O8 C45 1_555 1_555
O9 C54 1_555 1_555
O10 C5 1_555 1_555
O11 C10 1_555 1_555
O12 C12 1_555 1_555
O13 C32 1_555 1_555
O14 C39 1_555 1_555
O15 C37 1_555 1_555
O16 C45 1_555 1_555
O17 C25 1_555 1_555
O18 C18 1_555 1_555
O19 C54 1_555 1_555
C55 H31 1_555 1_555
H32 C55 1_555 1_555
C56 C55 1_555 1_555
H33 C56 1_555 1_555
H34 C56 1_555 1_555
C57 C56 1_555 1_555
H35 C57 1_555 1_555
H36 C57 1_555 1_555
C58 C57 1_555 1_555
H37 C58 1_555 1_555
H38 C58 1_555 1_555
Cd3 O6 1_555 1_555
O20 C55 1_555 1_555
C59 H39 1_555 1_555
H40 C59 1_555 1_555
C60 C59 1_555 1_555
H41 C60 1_555 1_555
H42 C60 1_555 1_555
C61 C60 1_555 1_555
H43 C61 1_555 1_555
H44 C61 1_555 1_555
C62 C61 1_555 1_555
H45 C62 1_555 1_555
H46 C62 1_555 1_555
O21 C59 1_555 1_555
C63 H47 1_555 1_555
H48 C63 1_555 1_555
C64 C63 1_555 1_555
H49 C64 1_555 1_555
H50 C64 1_555 1_555
C65 C64 1_555 1_555
H51 C65 1_555 1_555
H52 C65 1_555 1_555
C66 C65 1_555 1_555
H53 C66 1_555 1_555
H54 C66 1_555 1_555
O22 C63 1_555 1_555
Cd1A O3 1_555 1_555
Cd1A_2 O5 1_555 1_555
Cd1C O6 1_555 1_555
Cd2_2 O17 1_555 1_555
Cd2A O19 1_555 1_555
Cd2A_2 O7 1_555 1_555
Cd2A_3 O1 1_555 1_555
O1A Cd2 1_555 1_555
O3A Cd1 1_555 1_555
O5A Cd1 1_555 1_555
O5B Cd3 1_555 1_555
O6C Cd1 1_555 1_555
O7A Cd2 1_555 1_555
O8A Cd3 1_555 1_555
O9_2 Cd3 1_555 1_555
O16A Cd3 1_555 1_555
O17_2 Cd2 1_555 1_555
O17A Cd1 1_555 1_555
O19A Cd2 1_555 1_555
Cd3_2 O9 1_555 1_555
Cd3A O8 1_555 1_555
Cd3B O5 1_555 1_555
C6 C7 1_555 1_555
C8 O10 1_555 1_555
C12 C13 1_555 1_555
C14 O11 1_555 1_555
C19 C20 1_555 1_555
C21 O12 1_555 1_555
C26 C27 1_555 1_555
C33 C34 1_555 1_555
C35 O13 1_555 1_555
C39 C40 1_555 1_555
C41 O15 1_555 1_555
C46 C47 1_555 1_555
C48 O14 1_555 1_555
C52 C53 1_555 1_555
Cd1 O2 1_555 1_555
Cd2 O18 1_555 1_555
O7 Cd3 1_555 1_555
O16 Cd3A 1_555 1_555
O17 Cd1A_2 1_555 1_555
C58 O20 1_555 1_555
Cd3 O20 1_555 1_555
C62 O21 1_555 1_555
C66 O22 1_555 1_555
Cd1A O1A 1_555 1_555
Cd1A O17_2 1_555 1_555
Cd1C O5B 1_555 1_555
Cd2A_2 O16A 1_555 1_555
Cd2A_3 O17A 1_555 1_555
O7A Cd3A 1_555 1_555

#END
