
#######################################################################
#
#                 Cambridge Crystallographic Data Centre
#                                CCDC 
#
#######################################################################
#
# If this CIF has been generated from an entry in the Cambridge 
# Structural Database, then it will include bibliographic, chemical, 
# crystal, experimental, refinement or atomic coordinate data resulting 
# from the CCDC's data processing and validation procedures.
#
#######################################################################

data_PITMOW
_symmetry_cell_setting           monoclinic
_symmetry_space_group_name_H-M   'P 2/c'
_symmetry_Int_Tables_number      13
_space_group_name_Hall           '-P 2yc'
loop_
_symmetry_equiv_pos_site_id
_symmetry_equiv_pos_as_xyz
1 x,y,z
2 -x,y,1/2-z
3 -x,-y,-z
4 x,-y,1/2+z
_cell_length_a                   21.330(3)
_cell_length_b                   8.1009(13)
_cell_length_c                   30.993(3)
_cell_angle_alpha                90
_cell_angle_beta                 122.460(7)
_cell_angle_gamma                90
_cell_volume                     4518.66
loop_
_atom_site_label
_atom_site_type_symbol
_atom_site_fract_x
_atom_site_fract_y
_atom_site_fract_z
C1 C 0.58766(18) 1.0104(4) 0.65481(13)
C2 C 0.51082(18) 1.0040(4) 0.64503(12)
C3 C 0.47373(17) 0.8559(4) 0.63553(12)
H1 H 0.4954 0.7589 0.6336
C4 C 0.40445(18) 0.8518(4) 0.62884(12)
H2 H 0.3807 0.7509 0.6239
C5 C 0.36966(17) 0.9949(4) 0.62942(12)
C6 C 0.4063(2) 1.1439(4) 0.63737(17)
H3 H 0.3831 1.2421 0.6365
C7 C 0.4774(2) 1.1468(4) 0.64654(17)
H4 H 0.5028 1.2465 0.6538
C8 C 0.29030(18) 0.9800(4) 0.61865(13)
C9 C 0.2388(2) 0.9406(6) 0.56168(16)
C10 C 0.2629(2) 1.1388(6) 0.6296(2)
C11 C 0.28929(17) 0.8454(4) 0.65377(12)
C12 C 0.23425(18) 0.7275(4) 0.63728(13)
H5 H 0.1953 0.7253 0.6032
C13 C 0.23673(18) 0.6125(4) 0.67125(13)
H6 H 0.1996 0.5330 0.6595
C14 C 0.29294(18) 0.6136(4) 0.72199(13)
C15 C 0.3478(2) 0.7326(4) 0.73893(14)
H7 H 0.3858 0.7365 0.7733
C16 C 0.3461(2) 0.8469(4) 0.70467(13)
H8 H 0.3837 0.9251 0.7163
C17 C 0.2974(2) 0.4891(4) 0.75949(15)
C18 C 0.81222(18) 0.8807(4) 0.74728(13)
C19 C 0.87518(17) 0.7929(4) 0.79212(12)
C20 C 0.89241(17) 0.6328(4) 0.78686(12)
H9 H 0.8656 0.5807 0.7552
C21 C 0.94868(18) 0.5509(4) 0.82799(12)
H10 H 0.9599 0.4435 0.8238
C22 C 0.98916(17) 0.6234(4) 0.87556(11)
C23 C 0.97143(19) 0.7847(4) 0.88051(13)
H11 H 0.9980 0.8363 0.9122
C24 C 0.91578(19) 0.8685(4) 0.83963(13)
H12 H 0.9050 0.9766 0.8436
C25 C 1.04805(19) 0.5191(4) 0.92059(12)
C26 C 1.0047(2) 0.4034(5) 0.93543(15)
C27 C 1.1031(2) 0.6237(6) 0.96707(14)
C28 C 1.09649(17) 0.4206(4) 0.90622(11)
C29 C 1.11842(17) 0.4993(4) 0.87687(12)
H13 H 1.1023 0.6063 0.8655
C30 C 1.16382(17) 0.4210(4) 0.86434(12)
H14 H 1.1787 0.4760 0.8449
C31 C 1.18738(17) 0.2614(4) 0.88041(11)
C32 C 1.16490(19) 0.1815(4) 0.90940(12)
H15 H 1.1800 0.0736 0.9202
C33 C 1.1204(2) 0.2611(4) 0.92221(13)
H16 H 1.1060 0.2067 0.9420
C34 C 1.23530(17) 0.1761(4) 0.86588(12)
C35 C 0.64536(17) 0.5515(4) 0.58423(12)
H17 H 0.6309 0.5127 0.6058
C36 C 0.6901(2) 0.7035(4) 0.55024(13)
H18 H 0.7125 0.7916 0.5444
C37 C 0.6652(2) 0.5668(4) 0.52219(14)
H19 H 0.6671 0.5423 0.4936
C38 C 0.60320(19) 0.3116(4) 0.52568(12)
C39 C 0.6208(2) 0.1998(4) 0.50192(14)
H20 H 0.6575 0.2150 0.4948
C40 C 0.5769(2) 0.0568(4) 0.48911(13)
H21 H 0.5820 -0.0333 0.4726
C41 C 0.5266(2) 0.0623(4) 0.50300(12)
F1 F 0.25142(14) 1.0421(4) 0.53271(9)
F2 F 0.24938(13) 0.7884(3) 0.55018(8)
F3 F 0.16642(12) 0.9518(4) 0.54365(9)
F4 F 0.25121(16) 1.2614(3) 0.59704(12)
F5 F 0.31186(16) 1.1967(3) 0.67666(12)
F6 F 0.19917(14) 1.1174(3) 0.62717(12)
F7 F 0.95458(14) 0.4881(3) 0.93925(9)
F8 F 0.96895(14) 0.2857(3) 0.90087(9)
F9 F 1.04884(15) 0.3283(3) 0.98080(9)
F10 F 1.07261(15) 0.6960(3) 0.99025(8)
F11 F 1.13258(13) 0.7426(3) 0.95415(9)
F12 F 1.15970(15) 0.5336(3) 1.00274(8)
N1 N 0.67749(14) 0.6941(3) 0.58911(10)
N2 N 0.63623(15) 0.4688(3) 0.54343(9)
O1 O 0.60460(12) 0.9042(3) 0.63350(9)
O2 O 0.62942(13) 1.1216(3) 0.68424(11)
O3 O 0.24922(13) 0.3735(3) 0.73886(10)
O4 O 0.34420(18) 0.5010(3) 0.80549(11)
O5 O 0.77778(13) 0.8026(3) 0.70698(9)
O6 O 0.79979(15) 1.0261(3) 0.75427(10)
O7 O 1.25639(13) 0.0321(3) 0.88165(9)
O8 O 1.24997(15) 0.2550(3) 0.83778(11)
S1 S 0.53264(6) 0.24778(10) 0.53249(4)
Zn1 Zn 0.698323(19) 0.86962(4) 0.639995(13)
Zn2 Zn 0.72876(2) 1.19996(4) 0.713702(14)
C35B C 0.35464(17) -0.5515(4) 0.41577(12)
H17B H 0.3691 -0.5127 0.3942
C36B C 0.3099(2) -0.7035(4) 0.44976(13)
H18B H 0.2875 -0.7916 0.4556
C37B C 0.3348(2) -0.5668(4) 0.47781(14)
H19B H 0.3329 -0.5423 0.5064
C38B C 0.39680(19) -0.3116(4) 0.47432(12)
C39B C 0.3792(2) -0.1998(4) 0.49808(14)
H20B H 0.3425 -0.2150 0.5052
C40B C 0.4231(2) -0.0568(4) 0.51089(13)
H21B H 0.4180 0.0333 0.5274
C41B C 0.4734(2) -0.0623(4) 0.49700(12)
N1B N 0.32251(14) -0.6941(3) 0.41089(10)
N2B N 0.36377(15) -0.4688(3) 0.45657(9)
S1B S 0.46736(6) -0.24778(10) 0.46751(4)
C1B C 0.41234(18) -1.0104(4) 0.34519(13)
C2B C 0.48918(18) -1.0040(4) 0.35497(12)
C3B C 0.52627(17) -0.8559(4) 0.36447(12)
H1B H 0.5046 -0.7589 0.3664
C4B C 0.59555(18) -0.8518(4) 0.37116(12)
H2B H 0.6193 -0.7509 0.3761
C5B C 0.63034(17) -0.9949(4) 0.37058(12)
C6B C 0.5937(2) -1.1439(4) 0.36263(17)
H3B H 0.6169 -1.2421 0.3635
C7B C 0.5226(2) -1.1468(4) 0.35346(17)
H4B H 0.4972 -1.2465 0.3462
C8B C 0.70970(18) -0.9800(4) 0.38135(13)
C9B C 0.7612(2) -0.9406(6) 0.43832(16)
C10B C 0.7371(2) -1.1388(6) 0.3704(2)
C11B C 0.71071(17) -0.8454(4) 0.34623(12)
C12B C 0.76575(18) -0.7275(4) 0.36272(13)
H5B H 0.8047 -0.7253 0.3968
C13B C 0.76327(18) -0.6125(4) 0.32875(13)
H6B H 0.8004 -0.5330 0.3405
C14B C 0.70706(18) -0.6136(4) 0.27801(13)
C15B C 0.6522(2) -0.7326(4) 0.26107(14)
H7B H 0.6142 -0.7365 0.2267
C16B C 0.6539(2) -0.8469(4) 0.29533(13)
H8B H 0.6163 -0.9251 0.2837
C17B C 0.7026(2) -0.4891(4) 0.24051(15)
C18B C 0.18778(18) -0.8807(4) 0.25272(13)
C19B C 0.12482(17) -0.7929(4) 0.20788(12)
C20B C 0.10759(17) -0.6328(4) 0.21314(12)
H9B H 0.1344 -0.5807 0.2448
C21B C 0.05132(18) -0.5509(4) 0.17201(12)
H10B H 0.0401 -0.4435 0.1762
C22B C 0.01084(17) -0.6234(4) 0.12444(11)
C23B C 0.02857(19) -0.7847(4) 0.11949(13)
H11B H 0.0020 -0.8363 0.0878
C24B C 0.08422(19) -0.8685(4) 0.16037(13)
H12B H 0.0950 -0.9766 0.1564
C25B C -0.04805(19) -0.5191(4) 0.07941(12)
C26B C -0.0047(2) -0.4034(5) 0.06457(15)
C27B C -0.1031(2) -0.6237(6) 0.03293(14)
C28B C -0.09649(17) -0.4206(4) 0.09378(11)
C29B C -0.11842(17) -0.4993(4) 0.12313(12)
H13B H -0.1023 -0.6063 0.1345
C30B C -0.16382(17) -0.4210(4) 0.13566(12)
H14B H -0.1787 -0.4760 0.1551
C31B C -0.18738(17) -0.2614(4) 0.11959(11)
C32B C -0.16490(19) -0.1815(4) 0.09060(12)
H15B H -0.1800 -0.0736 0.0798
C33B C -0.1204(2) -0.2611(4) 0.07779(13)
H16B H -0.1060 -0.2067 0.0580
C34B C -0.23530(17) -0.1761(4) 0.13412(12)
F1B F 0.74858(14) -1.0421(4) 0.46729(9)
F2B F 0.75062(13) -0.7884(3) 0.44982(8)
F3B F 0.83358(12) -0.9518(4) 0.45635(9)
F4B F 0.74879(16) -1.2614(3) 0.40296(12)
F5B F 0.68814(16) -1.1967(3) 0.32334(12)
F6B F 0.80083(14) -1.1174(3) 0.37283(12)
F7B F 0.04542(14) -0.4881(3) 0.06075(9)
F8B F 0.03105(14) -0.2857(3) 0.09913(9)
F9B F -0.04884(15) -0.3283(3) 0.01920(9)
F10B F -0.07261(15) -0.6960(3) 0.00975(8)
F11B F -0.13258(13) -0.7426(3) 0.04585(9)
F12B F -0.15970(15) -0.5336(3) -0.00274(8)
O1B O 0.39540(12) -0.9042(3) 0.36650(9)
O2B O 0.37058(13) -1.1216(3) 0.31576(11)
O3B O 0.75078(13) -0.3735(3) 0.26114(10)
O4B O 0.65580(18) -0.5010(3) 0.19451(11)
O5B O 0.22222(13) -0.8026(3) 0.29302(9)
O6B O 0.20021(15) -1.0261(3) 0.24573(10)
O7B O -0.25639(13) -0.0321(3) 0.11835(9)
O8B O -0.24997(15) -0.2550(3) 0.16222(11)
Zn1B Zn 0.301677(19) -0.86962(4) 0.360005(13)
Zn2B Zn 0.27124(2) -1.19996(4) 0.286298(14)
O3A O 0.75078(13) 1.3735(3) 0.76114(10)
O3C O 0.24922(13) -1.3735(3) 0.23886(10)
O7A O 0.74361(13) 1.0321(3) 0.61835(9)
O7C O 0.25639(13) -1.0321(3) 0.38165(9)
O8A O 0.75003(15) 1.2550(3) 0.66222(11)
O8C O 0.24997(15) -1.2550(3) 0.33778(11)
Zn1A Zn 1.301677(19) -0.13038(4) 0.860005(13)
Zn1C Zn -0.301677(19) 0.13038(4) 0.139995(13)
Zn2A Zn 0.27124(2) 0.19996(4) 0.786298(14)
Zn2A_2 Zn 1.27124(2) 0.19996(4) 0.786298(14)
Zn2C Zn -0.27124(2) -0.19996(4) 0.213702(14)
Zn2C_2 Zn 0.72876(2) -0.19996(4) 0.213702(14)
loop_
_geom_bond_atom_site_label_1
_geom_bond_atom_site_label_2
_geom_bond_site_symmetry_1
_geom_bond_site_symmetry_2
C1 C2 1_555 1_555
C2 C3 1_555 1_555
C3 H1 1_555 1_555
C4 C3 1_555 1_555
H2 C4 1_555 1_555
C5 C4 1_555 1_555
C6 C5 1_555 1_555
H3 C6 1_555 1_555
C7 C2 1_555 1_555
H4 C7 1_555 1_555
C8 C5 1_555 1_555
C9 C8 1_555 1_555
C10 C8 1_555 1_555
C11 C8 1_555 1_555
C12 C11 1_555 1_555
H5 C12 1_555 1_555
C13 C12 1_555 1_555
H6 C13 1_555 1_555
C14 C13 1_555 1_555
C15 C14 1_555 1_555
H7 C15 1_555 1_555
C16 C11 1_555 1_555
H8 C16 1_555 1_555
C17 C14 1_555 1_555
C18 C19 1_555 1_555
C19 C20 1_555 1_555
C20 H9 1_555 1_555
C21 C20 1_555 1_555
H10 C21 1_555 1_555
C22 C21 1_555 1_555
C23 C22 1_555 1_555
H11 C23 1_555 1_555
C24 C19 1_555 1_555
H12 C24 1_555 1_555
C25 C22 1_555 1_555
C26 C25 1_555 1_555
C27 C25 1_555 1_555
C28 C25 1_555 1_555
C29 C28 1_555 1_555
H13 C29 1_555 1_555
C30 C29 1_555 1_555
H14 C30 1_555 1_555
C31 C30 1_555 1_555
C32 C31 1_555 1_555
H15 C32 1_555 1_555
C33 C28 1_555 1_555
H16 C33 1_555 1_555
C34 C31 1_555 1_555
C35 H17 1_555 1_555
C36 H18 1_555 1_555
C37 C36 1_555 1_555
H19 C37 1_555 1_555
C38 C39 1_555 1_555
C39 H20 1_555 1_555
C40 C39 1_555 1_555
H21 C40 1_555 1_555
C41 C40 1_555 1_555
F1 C9 1_555 1_555
F2 C9 1_555 1_555
F3 C9 1_555 1_555
F4 C10 1_555 1_555
F5 C10 1_555 1_555
F6 C10 1_555 1_555
F7 C26 1_555 1_555
F8 C26 1_555 1_555
F9 C26 1_555 1_555
F10 C27 1_555 1_555
F11 C27 1_555 1_555
F12 C27 1_555 1_555
N1 C35 1_555 1_555
N2 C35 1_555 1_555
O1 C1 1_555 1_555
O2 C1 1_555 1_555
O3 C17 1_555 1_555
O4 C17 1_555 1_555
O5 C18 1_555 1_555
O6 C18 1_555 1_555
O7 C34 1_555 1_555
O8 C34 1_555 1_555
S1 C38 1_555 1_555
Zn1 N1 1_555 1_555
Zn2 O2 1_555 1_555
C35B H17B 1_555 1_555
C36B H18B 1_555 1_555
C37B C36B 1_555 1_555
H19B C37B 1_555 1_555
C38B C39B 1_555 1_555
C39B H20B 1_555 1_555
C40B C39B 1_555 1_555
H21B C40B 1_555 1_555
C41B C41 1_555 1_555
N1B C35B 1_555 1_555
N2B C35B 1_555 1_555
S1B C38B 1_555 1_555
C1B C2B 1_555 1_555
C2B C3B 1_555 1_555
C3B H1B 1_555 1_555
C4B C3B 1_555 1_555
H2B C4B 1_555 1_555
C5B C4B 1_555 1_555
C6B C5B 1_555 1_555
H3B C6B 1_555 1_555
C7B C2B 1_555 1_555
H4B C7B 1_555 1_555
C8B C5B 1_555 1_555
C9B C8B 1_555 1_555
C10B C8B 1_555 1_555
C11B C8B 1_555 1_555
C12B C11B 1_555 1_555
H5B C12B 1_555 1_555
C13B C12B 1_555 1_555
H6B C13B 1_555 1_555
C14B C13B 1_555 1_555
C15B C14B 1_555 1_555
H7B C15B 1_555 1_555
C16B C11B 1_555 1_555
H8B C16B 1_555 1_555
C17B C14B 1_555 1_555
C18B C19B 1_555 1_555
C19B C20B 1_555 1_555
C20B H9B 1_555 1_555
C21B C20B 1_555 1_555
H10B C21B 1_555 1_555
C22B C21B 1_555 1_555
C23B C22B 1_555 1_555
H11B C23B 1_555 1_555
C24B C19B 1_555 1_555
H12B C24B 1_555 1_555
C25B C22B 1_555 1_555
C26B C25B 1_555 1_555
C27B C25B 1_555 1_555
C28B C25B 1_555 1_555
C29B C28B 1_555 1_555
H13B C29B 1_555 1_555
C30B C29B 1_555 1_555
H14B C30B 1_555 1_555
C31B C30B 1_555 1_555
C32B C31B 1_555 1_555
H15B C32B 1_555 1_555
C33B C28B 1_555 1_555
H16B C33B 1_555 1_555
C34B C31B 1_555 1_555
F1B C9B 1_555 1_555
F2B C9B 1_555 1_555
F3B C9B 1_555 1_555
F4B C10B 1_555 1_555
F5B C10B 1_555 1_555
F6B C10B 1_555 1_555
F7B C26B 1_555 1_555
F8B C26B 1_555 1_555
F9B C26B 1_555 1_555
F10B C27B 1_555 1_555
F11B C27B 1_555 1_555
F12B C27B 1_555 1_555
O1B C1B 1_555 1_555
O2B C1B 1_555 1_555
O3B C17B 1_555 1_555
O4B C17B 1_555 1_555
O5B C18B 1_555 1_555
O6B C18B 1_555 1_555
O7B C34B 1_555 1_555
O8B C34B 1_555 1_555
Zn1B N1B 1_555 1_555
Zn2B O2B 1_555 1_555
O3A Zn2 1_555 1_555
O3C Zn2B 1_555 1_555
O7A Zn1 1_555 1_555
O7C Zn1B 1_555 1_555
O8A Zn2 1_555 1_555
O8C Zn2B 1_555 1_555
Zn1A O7 1_555 1_555
Zn1C O7B 1_555 1_555
Zn2A O3 1_555 1_555
Zn2A_2 O8 1_555 1_555
Zn2C O8B 1_555 1_555
Zn2C_2 O3B 1_555 1_555
C6 C7 1_555 1_555
C15 C16 1_555 1_555
C23 C24 1_555 1_555
C32 C33 1_555 1_555
C36 N1 1_555 1_555
C37 N2 1_555 1_555
C38 N2 1_555 1_555
C41 S1 1_555 1_555
O1 Zn1 1_555 1_555
O5 Zn1 1_555 1_555
O6 Zn2 1_555 1_555
C36B N1B 1_555 1_555
C37B N2B 1_555 1_555
C38B N2B 1_555 1_555
C40B C41B 1_555 1_555
C41B S1B 1_555 1_555
C6B C7B 1_555 1_555
C15B C16B 1_555 1_555
C23B C24B 1_555 1_555
C32B C33B 1_555 1_555
O1B Zn1B 1_555 1_555
O5B Zn1B 1_555 1_555
O6B Zn2B 1_555 1_555

#END
