
#######################################################################
#
#                 Cambridge Crystallographic Data Centre
#                                CCDC 
#
#######################################################################
#
# If this CIF has been generated from an entry in the Cambridge 
# Structural Database, then it will include bibliographic, chemical, 
# crystal, experimental, refinement or atomic coordinate data resulting 
# from the CCDC's data processing and validation procedures.
#
#######################################################################

data_PIZSAU
_symmetry_cell_setting           orthorhombic
_symmetry_space_group_name_H-M   'P 21 21 21'
_symmetry_Int_Tables_number      19
_space_group_name_Hall           'P 2ac 2ab'
loop_
_symmetry_equiv_pos_site_id
_symmetry_equiv_pos_as_xyz
1 x,y,z
2 1/2-x,-y,1/2+z
3 1/2+x,1/2-y,-z
4 -x,1/2+y,1/2-z
_cell_length_a                   13.504(4)
_cell_length_b                   14.375(4)
_cell_length_c                   16.193(5)
_cell_angle_alpha                90
_cell_angle_beta                 90
_cell_angle_gamma                90
_cell_volume                     3143.39
loop_
_atom_site_label
_atom_site_type_symbol
_atom_site_fract_x
_atom_site_fract_y
_atom_site_fract_z
Cu1 Cu 1.06970(9) 0.04870(8) 0.08517(7)
Cu2 Cu 0.79916(8) 0.29324(8) 0.16393(7)
O1 O 0.8893(6) 0.2016(6) 0.2236(4)
O2 O 0.9924(6) 0.1500(5) 0.0284(4)
O3 O 1.1216(5) -0.0424(5) 0.1686(4)
O4 O 1.1278(7) -0.0728(5) 0.3031(5)
O5 O 0.7152(5) 0.3506(5) 0.0752(4)
O6 O 0.7175(5) 0.3896(6) -0.0586(5)
N1 N 1.0160(7) 0.1044(6) 0.1828(5)
N2 N 0.8778(6) 0.2602(6) 0.0704(4)
N3 N 0.4332(7) 0.0370(6) 0.4893(5)
N4 N 0.3988(7) 0.0098(7) 0.4148(5)
H1 H 0.3731 -0.0453 0.4048
N5 N 0.7015(6) 0.2967(6) 0.2526(5)
N6 N 0.7187(7) 0.3361(6) 0.3258(5)
H2 H 0.7741 0.3648 0.3389
C1 C 1.0985(16) 0.1286(12) 0.3165(9)
H3 H 1.0597 0.1848 0.3278
H4 H 1.1602 0.1458 0.2884
H5 H 1.1141 0.0972 0.3686
C2 C 1.0394(9) 0.0640(7) 0.2619(6)
H6 H 0.9765 0.0469 0.2907
C3 C 1.0990(8) -0.0253(6) 0.2440(6)
C4 C 0.9481(7) 0.1646(6) 0.1705(6)
C5 C 0.9410(7) 0.1931(6) 0.0812(5)
C6 C 0.8550(8) 0.3062(8) -0.0076(6)
H7 H 0.8534 0.2599 -0.0536
C7 C 0.9325(10) 0.3808(11) -0.0247(8)
H8 H 0.9977 0.3517 -0.0304
H9 H 0.9338 0.4253 0.0212
H10 H 0.9157 0.4136 -0.0759
C8 C 0.7543(7) 0.3525(7) 0.0020(6)
C9 C 0.5042(11) 0.1788(9) 0.5510(8)
H11 H 0.5043 0.1401 0.6008
H12 H 0.4635 0.2342 0.5605
H13 H 0.5722 0.1977 0.5380
C10 C 0.4625(8) 0.1245(7) 0.4805(7)
C11 C 0.4486(7) 0.1543(7) 0.3981(6)
C12 C 0.4087(7) 0.0771(8) 0.3577(6)
C13 C 0.3759(13) 0.0571(11) 0.2714(7)
H14 H 0.3522 -0.0072 0.2679
H15 H 0.4318 0.0657 0.2335
H16 H 0.3223 0.0997 0.2563
C14 C 0.6489(13) 0.3657(11) 0.4653(9)
H17 H 0.7117 0.3992 0.4711
H18 H 0.6467 0.3144 0.5051
H19 H 0.5938 0.4084 0.4757
C15 C 0.6405(9) 0.3267(8) 0.3777(7)
C16 C 0.5703(8) 0.2767(6) 0.3363(6)
C17 C 0.6110(8) 0.2598(8) 0.2574(7)
C18 C 0.5679(11) 0.2108(11) 0.1856(7)
H20 H 0.6150 0.2120 0.1396
H21 H 0.5063 0.2416 0.1690
H22 H 0.5538 0.1461 0.2007
C19 C 0.4667(8) 0.2511(7) 0.3649(7)
H23 H 0.4143 0.2951 0.3619
Cu1A Cu 0.43030(9) -0.04870(8) 0.58517(7)
Cu1B Cu 0.56970(9) 0.45130(8) -0.08517(7)
Cu2C Cu 1.20084(8) -0.20676(8) 0.33607(7)
O4C O 0.8722(7) 0.4272(5) 0.1969(5)
O6B O 1.2175(5) 0.1104(6) 0.0586(5)
N3A N 1.0668(7) -0.0370(6) -0.0107(5)
O7 O 0.652(2) -0.1431(12) -0.0909(19)
H24 H 0.6544 -0.1503 -0.1423
C20 C 0.8207(12) 0.0159(13) -0.1617(14)
H25 H 0.8731 -0.0273 -0.1540
C21 C 0.8321(14) 0.0896(15) -0.2165(14)
H26 H 0.8923 0.0968 -0.2461
C22 C 0.7553(17) 0.1527(12) -0.2278(12)
H27 H 0.7631 0.2031 -0.2653
C23 C 0.6672(13) 0.1422(12) -0.1845(13)
H28 H 0.6147 0.1853 -0.1923
C24 C 0.6558(11) 0.0684(13) -0.1298(13)
H29 H 0.5956 0.0612 -0.1001
C25 C 0.7326(14) 0.0053(11) -0.1184(12)
C26 C 0.723(2) -0.0831(17) -0.0679(18)
H30 H 0.7872 -0.1169 -0.0757
C27 C 0.715(3) -0.067(2) 0.0209(18)
H31 H 0.6438 -0.0595 0.0340
H32 H 0.7377 -0.1243 0.0493
C28 C 0.763(3) 0.004(3) 0.054(2)
H33 H 0.7505 0.0060 0.1134
H34 H 0.7397 0.0621 0.0285
H35 H 0.8341 -0.0030 0.0438
loop_
_geom_bond_atom_site_label_1
_geom_bond_atom_site_label_2
_geom_bond_site_symmetry_1
_geom_bond_site_symmetry_2
Cu1 O2 1_555 1_555
Cu2 O1 1_555 1_555
O1 C4 1_555 1_555
O2 C5 1_555 1_555
O3 Cu1 1_555 1_555
O4 C3 1_555 1_555
O5 Cu2 1_555 1_555
O6 C8 1_555 1_555
N1 Cu1 1_555 1_555
N2 Cu2 1_555 1_555
N3 N4 1_555 1_555
N4 H1 1_555 1_555
N5 Cu2 1_555 1_555
N6 N5 1_555 1_555
H2 N6 1_555 1_555
C1 H3 1_555 1_555
H4 C1 1_555 1_555
H5 C1 1_555 1_555
C2 N1 1_555 1_555
H6 C2 1_555 1_555
C3 O3 1_555 1_555
C4 N1 1_555 1_555
C5 N2 1_555 1_555
C6 N2 1_555 1_555
H7 C6 1_555 1_555
C7 C6 1_555 1_555
H8 C7 1_555 1_555
H9 C7 1_555 1_555
H10 C7 1_555 1_555
C8 O5 1_555 1_555
C9 H11 1_555 1_555
H12 C9 1_555 1_555
H13 C9 1_555 1_555
C10 N3 1_555 1_555
C11 C10 1_555 1_555
C12 N4 1_555 1_555
C13 C12 1_555 1_555
H14 C13 1_555 1_555
H15 C13 1_555 1_555
H16 C13 1_555 1_555
C14 H17 1_555 1_555
H18 C14 1_555 1_555
H19 C14 1_555 1_555
C15 N6 1_555 1_555
C16 C15 1_555 1_555
C17 N5 1_555 1_555
C18 C17 1_555 1_555
H20 C18 1_555 1_555
H21 C18 1_555 1_555
H22 C18 1_555 1_555
C19 C11 1_555 1_555
H23 C19 1_555 1_555
O7 H24 1_555 1_555
C20 H25 1_555 1_555
C21 C20 1_555 1_555
H26 C21 1_555 1_555
C22 C21 1_555 1_555
H27 C22 1_555 1_555
C23 C22 1_555 1_555
H28 C23 1_555 1_555
C24 C23 1_555 1_555
H29 C24 1_555 1_555
C25 C20 1_555 1_555
C26 O7 1_555 1_555
H30 C26 1_555 1_555
C27 C26 1_555 1_555
H31 C27 1_555 1_555
H32 C27 1_555 1_555
C28 C27 1_555 1_555
H33 C28 1_555 1_555
H34 C28 1_555 1_555
H35 C28 1_555 1_555
Cu1A N3 1_555 1_555
Cu1B O6 1_555 1_555
Cu2C O4 1_555 1_555
O4C Cu2 1_555 1_555
O6B Cu1 1_555 1_555
N3A Cu1 1_555 1_555
C1 C2 1_555 1_555
C2 C3 1_555 1_555
C4 C5 1_555 1_555
C6 C8 1_555 1_555
C9 C10 1_555 1_555
C11 C12 1_555 1_555
C14 C15 1_555 1_555
C16 C17 1_555 1_555
C16 C19 1_555 1_555
C24 C25 1_555 1_555
C25 C26 1_555 1_555

#END
