
#######################################################################
#
#                 Cambridge Crystallographic Data Centre
#                                CCDC 
#
#######################################################################
#
# If this CIF has been generated from an entry in the Cambridge 
# Structural Database, then it will include bibliographic, chemical, 
# crystal, experimental, refinement or atomic coordinate data resulting 
# from the CCDC's data processing and validation procedures.
#
#######################################################################

data_POBGAQ01
_symmetry_cell_setting           orthorhombic
_symmetry_space_group_name_H-M   'P n n a'
_symmetry_Int_Tables_number      52
_space_group_name_Hall           '-P 2a 2bc'
loop_
_symmetry_equiv_pos_site_id
_symmetry_equiv_pos_as_xyz
1 x,y,z
2 1/2-x,-y,z
3 x,1/2-y,1/2-z
4 1/2-x,1/2+y,1/2-z
5 -x,-y,-z
6 1/2+x,y,-z
7 -x,1/2+y,1/2+z
8 1/2+x,1/2-y,1/2+z
_cell_length_a                   16.9434(6)
_cell_length_b                   40.319(5)
_cell_length_c                   35.6426(11)
_cell_angle_alpha                90
_cell_angle_beta                 90
_cell_angle_gamma                90
_cell_volume                     24348.9
loop_
_atom_site_label
_atom_site_type_symbol
_atom_site_fract_x
_atom_site_fract_y
_atom_site_fract_z
Fe1 Fe 0.13469(8) 0.2500 0.2500
Fe2 Fe 0.7500 0.0000 0.74209(4)
B1 B 0.1113(3) 0.36139(10) 0.25040(9)
H1 H 0.1046 0.3705 0.2233
H2 H 0.1566 0.3771 0.2589
H3 H 0.0647 0.3741 0.2627
B2 B 0.482(2) -0.010(13) 0.7590(9)
H4 H 0.4726 -0.0268 0.7817
H5 H 0.4664 0.0176 0.7556
H6 H 0.4423 -0.0262 0.7402
N1 N 0.2182(2) 0.25046(14) 0.28984(9)
N2 N 0.7299(5) 0.46282(15) 0.71461(18)
N3 N 1.0535(3) 0.25074(13) 0.29017(10)
N4 N 0.7310(7) 0.03716(18) 0.69947(17)
N5 N 0.1287(5) 0.2978(3) 0.2480(3)
N6 N 0.6441(8) -0.0093(4) 0.7425(3)
C1 C 0.2754(3) 0.27361(18) 0.28987(11)
H7 H 0.2777 0.2878 0.2693
C2 C 0.3316(3) 0.27830(17) 0.31808(11)
H8 H 0.3695 0.2950 0.3172
C3 C 0.3257(3) 0.25454(18) 0.34927(11)
C4 C 0.2669(3) 0.23102(16) 0.34960(12)
H9 H 0.2619 0.2163 0.3695
C5 C 0.2146(3) 0.22980(16) 0.31911(12)
H10 H 0.1753 0.2137 0.3193
C6 C 0.3850(3) 0.26096(15) 0.38067(12)
H11 H 0.4237 0.2769 0.3767
C7 C 0.3843(2) 0.24516(15) 0.41316(11)
H12 H 0.3434 0.2302 0.4169
C8 C 0.4413(3) 0.24871(17) 0.44396(12)
C9 C 0.4918(3) 0.27540(15) 0.44474(11)
H13 H 0.4863 0.2924 0.4273
C10 C 0.5523(3) 0.27692(14) 0.47225(12)
H14 H 0.5876 0.2946 0.4713
C11 C 0.5613(3) 0.25384(12) 0.50001(10)
C12 C 0.5040(3) 0.22852(14) 0.49994(10)
H15 H 0.5054 0.2128 0.5190
C13 C 0.4455(3) 0.22582(14) 0.47278(11)
H16 H 0.4091 0.2086 0.4740
C14 C 0.6324(3) 0.25539(12) 0.52537(10)
C15 C 0.6318(3) 0.28507(15) 0.55214(11)
C16 C 0.5773(3) 0.31028(17) 0.55141(12)
H17 H 0.5357 0.3095 0.5344
C17 C 0.5838(4) 0.33755(16) 0.57641(15)
H18 H 0.5479 0.3550 0.5752
C18 C 0.6430(4) 0.33790(18) 0.60219(13)
C19 C 0.6941(4) 0.31274(19) 0.60488(14)
H19 H 0.7330 0.3130 0.6233
C20 C 0.6894(3) 0.28655(16) 0.58047(12)
H20 H 0.7253 0.2692 0.5827
C21 C 0.6457(4) 0.3710(3) 0.62477(17)
H21 H 0.6065 0.3871 0.6224
C22 C 0.6963(6) 0.3744(2) 0.6436(3)
H22 H 0.7319 0.3569 0.6446
C23 C 0.7171(5) 0.40627(16) 0.6704(2)
C24 C 0.6645(4) 0.4324(2) 0.66553(14)
H23 H 0.6250 0.4309 0.6475
C25 C 0.6709(5) 0.46065(16) 0.6876(2)
H24 H 0.6357 0.4781 0.6844
C26 C 0.7761(5) 0.40844(19) 0.6974(2)
H25 H 0.8113 0.3910 0.7006
C27 C 0.7825(4) 0.4367(2) 0.71948(15)
H26 H 0.8220 0.4382 0.7375
C28 C 1.0576(3) 0.27170(16) 0.31939(13)
H27 H 1.0990 0.2869 0.3197
C29 C 1.0040(3) 0.27249(17) 0.34968(11)
H28 H 1.0100 0.2878 0.3690
C30 C 0.9438(3) 0.25049(16) 0.35009(12)
C31 C 0.9357(3) 0.22728(18) 0.31919(11)
H29 H 0.8951 0.2118 0.3180
C32 C 0.9957(4) 0.23022(17) 0.29045(11)
H30 H 0.9919 0.2158 0.2702
C33 C 0.8842(2) 0.24774(15) 0.38081(11)
H31 H 0.8438 0.2324 0.3773
C34 C 0.8830(3) 0.26488(14) 0.41241(12)
H32 H 0.9229 0.2803 0.4163
C35 C 0.8223(3) 0.26117(14) 0.44221(11)
C36 C 0.8222(3) 0.28269(14) 0.47188(12)
H33 H 0.8616 0.2987 0.4740
C37 C 0.7617(3) 0.28054(14) 0.49956(10)
H34 H 0.7616 0.2954 0.5195
C38 C 0.7043(3) 0.25719(13) 0.49731(11)
C39 C 0.7064(3) 0.23477(14) 0.46746(12)
H35 H 0.6679 0.2184 0.4657
C40 C 0.7654(3) 0.23667(14) 0.44037(12)
H36 H 0.7666 0.2213 0.4209
C41 C 0.6379(3) 0.22376(14) 0.55013(11)
C42 C 0.6980(3) 0.20098(17) 0.54568(12)
H37 H 0.7357 0.2041 0.5270
C43 C 0.7025(3) 0.17387(16) 0.56864(14)
H38 H 0.7422 0.1583 0.5647
C44 C 0.6491(4) 0.16894(17) 0.59775(14)
C45 C 0.5896(4) 0.19157(19) 0.60163(14)
H39 H 0.5515 0.1884 0.6201
C46 C 0.5849(3) 0.21905(15) 0.57877(11)
H40 H 0.5454 0.2346 0.5828
C47 C 0.6520(5) 0.14137(19) 0.62323(17)
H41 H 0.6149 0.1407 0.6424
C48 C 0.7024(5) 0.1176(2) 0.62137(15)
H42 H 0.7368 0.1184 0.6011
C49 C 0.7133(7) 0.0884(2) 0.64765(19)
C50 C 0.7788(7) 0.0671(2) 0.6449(2)
H43 H 0.8157 0.0693 0.6258
C51 C 0.7857(6) 0.0429(2) 0.6718(2)
H44 H 0.8305 0.0295 0.6713
C52 C 0.6546(7) 0.0844(2) 0.6750(2)
H45 H 0.6108 0.0982 0.6763
C53 C 0.6664(8) 0.0575(3) 0.7009(2)
H46 H 0.6287 0.0537 0.7193
C54 C 0.5875(9) -0.0135(7) 0.7450(5)
C55 C 0.1331(9) 0.3217(4) 0.2513(4)
B2A B 1.018(2) 0.010(13) 0.7590(9)
H4A H 1.0274 0.0268 0.7817
H5A H 1.0336 -0.0176 0.7556
H6A H 1.0577 0.0262 0.7402
N1A N 1.2818(2) -0.25046(14) 0.28984(9)
N2A N 0.7701(5) -0.46282(15) 0.71461(18)
N3A N 0.4465(3) -0.25074(13) 0.29017(10)
N4A N 0.7690(7) -0.03716(18) 0.69947(17)
N6A N 0.8559(8) 0.0093(4) 0.7425(3)
C1A C 1.2246(3) -0.27361(18) 0.28987(11)
H7A H 1.2223 -0.2878 0.2693
C2A C 1.1684(3) -0.27830(17) 0.31808(11)
H8A H 1.1305 -0.2950 0.3172
C3A C 1.1743(3) -0.25454(18) 0.34927(11)
C4A C 1.2331(3) -0.23102(16) 0.34960(12)
H9A H 1.2381 -0.2163 0.3695
C5A C 1.2854(3) -0.22980(16) 0.31911(12)
H10A H 1.3247 -0.2137 0.3193
C6A C 1.1150(3) -0.26096(15) 0.38067(12)
H11A H 1.0763 -0.2769 0.3767
C7A C 1.1157(2) -0.24516(15) 0.41316(11)
H12A H 1.1566 -0.2302 0.4169
C8A C 1.0587(3) -0.24871(17) 0.44396(12)
C9A C 1.0082(3) -0.27540(15) 0.44474(11)
H13A H 1.0137 -0.2924 0.4273
C10A C 0.9477(3) -0.27692(14) 0.47225(12)
H14A H 0.9124 -0.2946 0.4713
C11A C 0.9387(3) -0.25384(12) 0.50001(10)
C12A C 0.9960(3) -0.22852(14) 0.49994(10)
H15A H 0.9946 -0.2128 0.5190
C13A C 1.0545(3) -0.22582(14) 0.47278(11)
H16A H 1.0909 -0.2086 0.4740
C14A C 0.8676(3) -0.25539(12) 0.52537(10)
C15A C 0.8682(3) -0.28507(15) 0.55214(11)
C16A C 0.9227(3) -0.31028(17) 0.55141(12)
H17A H 0.9643 -0.3095 0.5344
C17A C 0.9162(4) -0.33755(16) 0.57641(15)
H18A H 0.9521 -0.3550 0.5752
C18A C 0.8570(4) -0.33790(18) 0.60219(13)
C19A C 0.8059(4) -0.31274(19) 0.60488(14)
H19A H 0.7670 -0.3130 0.6233
C20A C 0.8106(3) -0.28655(16) 0.58047(12)
H20A H 0.7747 -0.2692 0.5827
C21A C 0.8543(4) -0.3710(3) 0.62477(17)
H21A H 0.8935 -0.3871 0.6224
C22A C 0.8037(6) -0.3744(2) 0.6436(3)
H22A H 0.7681 -0.3569 0.6446
C23A C 0.7829(5) -0.40627(16) 0.6704(2)
C24A C 0.8355(4) -0.4324(2) 0.66553(14)
H23A H 0.8750 -0.4309 0.6475
C25A C 0.8291(5) -0.46065(16) 0.6876(2)
H24A H 0.8643 -0.4781 0.6844
C26A C 0.7239(5) -0.40844(19) 0.6974(2)
H25A H 0.6887 -0.3910 0.7006
C27A C 0.7175(4) -0.4367(2) 0.71948(15)
H26A H 0.6780 -0.4382 0.7375
C28A C 0.4424(3) -0.27170(16) 0.31939(13)
H27A H 0.4010 -0.2869 0.3197
C29A C 0.4960(3) -0.27249(17) 0.34968(11)
H28A H 0.4900 -0.2878 0.3690
C30A C 0.5562(3) -0.25049(16) 0.35009(12)
C31A C 0.5643(3) -0.22728(18) 0.31919(11)
H29A H 0.6049 -0.2118 0.3180
C32A C 0.5043(4) -0.23022(17) 0.29045(11)
H30A H 0.5081 -0.2158 0.2702
C33A C 0.6158(2) -0.24774(15) 0.38081(11)
H31A H 0.6562 -0.2324 0.3773
C34A C 0.6170(3) -0.26488(14) 0.41241(12)
H32A H 0.5771 -0.2803 0.4163
C35A C 0.6777(3) -0.26117(14) 0.44221(11)
C36A C 0.6778(3) -0.28269(14) 0.47188(12)
H33A H 0.6384 -0.2987 0.4740
C37A C 0.7383(3) -0.28054(14) 0.49956(10)
H34A H 0.7384 -0.2954 0.5195
C38A C 0.7957(3) -0.25719(13) 0.49731(11)
C39A C 0.7936(3) -0.23477(14) 0.46746(12)
H35A H 0.8321 -0.2184 0.4657
C40A C 0.7346(3) -0.23667(14) 0.44037(12)
H36A H 0.7334 -0.2213 0.4209
C41A C 0.8621(3) -0.22376(14) 0.55013(11)
C42A C 0.8020(3) -0.20098(17) 0.54568(12)
H37A H 0.7643 -0.2041 0.5270
C43A C 0.7975(3) -0.17387(16) 0.56864(14)
H38A H 0.7578 -0.1583 0.5647
C44A C 0.8509(4) -0.16894(17) 0.59775(14)
C45A C 0.9104(4) -0.19157(19) 0.60163(14)
H39A H 0.9485 -0.1884 0.6201
C46A C 0.9151(3) -0.21905(15) 0.57877(11)
H40A H 0.9546 -0.2346 0.5828
C47A C 0.8480(5) -0.14137(19) 0.62323(17)
H41A H 0.8851 -0.1407 0.6424
C48A C 0.7976(5) -0.1176(2) 0.62137(15)
H42A H 0.7632 -0.1184 0.6011
C49A C 0.7867(7) -0.0884(2) 0.64765(19)
C50A C 0.7212(7) -0.0671(2) 0.6449(2)
H43A H 0.6843 -0.0693 0.6258
C51A C 0.7143(6) -0.0429(2) 0.6718(2)
H44A H 0.6695 -0.0295 0.6713
C52A C 0.8454(7) -0.0844(2) 0.6750(2)
H45A H 0.8892 -0.0982 0.6763
C53A C 0.8336(8) -0.0575(3) 0.7009(2)
H46A H 0.8713 -0.0537 0.7193
C54A C 0.9125(9) 0.0135(7) 0.7450(5)
B1B B 0.1113(3) 0.13861(10) 0.24960(9)
H1B H 0.1046 0.1295 0.2767
H2B H 0.1566 0.1229 0.2411
H3B H 0.0647 0.1259 0.2373
N5B N 0.1287(5) 0.2022(3) 0.2520(3)
C55B C 0.1331(9) 0.1783(4) 0.2487(4)
Fe1_2 Fe 1.13469(8) 0.2500 0.2500
Fe1A Fe 0.36531(8) -0.2500 0.2500
Fe1A_2 Fe 1.36531(8) -0.2500 0.2500
Fe2B Fe 0.7500 -0.5000 0.75791(4)
Fe2B_2 Fe 0.7500 0.5000 0.75791(4)
N1B N 0.2182(2) 0.24954(14) 0.21016(9)
N2B N 0.7299(5) 0.03718(15) 0.78539(18)
N2C N 0.7701(5) -0.03718(15) 0.78539(18)
N3_2 N 0.0535(3) 0.25074(13) 0.29017(10)
N3B N 0.0535(3) 0.24926(13) 0.20983(10)
loop_
_geom_bond_atom_site_label_1
_geom_bond_atom_site_label_2
_geom_bond_site_symmetry_1
_geom_bond_site_symmetry_2
Fe1 N1 1_555 1_555
Fe2 N4 1_555 1_555
B1 H1 1_555 1_555
H2 B1 1_555 1_555
H3 B1 1_555 1_555
B2 H4 1_555 1_555
H5 B2 1_555 1_555
H6 B2 1_555 1_555
N1 C1 1_555 1_555
N2 C25 1_555 1_555
N3 C28 1_555 1_555
N4 C51 1_555 1_555
N5 Fe1 1_555 1_555
N6 Fe2 1_555 1_555
C1 H7 1_555 1_555
C2 C1 1_555 1_555
H8 C2 1_555 1_555
C3 C2 1_555 1_555
C4 C3 1_555 1_555
H9 C4 1_555 1_555
C5 N1 1_555 1_555
H10 C5 1_555 1_555
C6 C3 1_555 1_555
H11 C6 1_555 1_555
C7 C6 1_555 1_555
H12 C7 1_555 1_555
C8 C7 1_555 1_555
C9 C8 1_555 1_555
H13 C9 1_555 1_555
C10 C9 1_555 1_555
H14 C10 1_555 1_555
C11 C10 1_555 1_555
C12 C11 1_555 1_555
H15 C12 1_555 1_555
C13 C8 1_555 1_555
H16 C13 1_555 1_555
C14 C11 1_555 1_555
C15 C14 1_555 1_555
C16 C15 1_555 1_555
H17 C16 1_555 1_555
C17 C16 1_555 1_555
H18 C17 1_555 1_555
C18 C17 1_555 1_555
C19 C18 1_555 1_555
H19 C19 1_555 1_555
C20 C15 1_555 1_555
H20 C20 1_555 1_555
C21 C18 1_555 1_555
H21 C21 1_555 1_555
C22 C21 1_555 1_555
H22 C22 1_555 1_555
C23 C22 1_555 1_555
C24 C23 1_555 1_555
H23 C24 1_555 1_555
C25 C24 1_555 1_555
H24 C25 1_555 1_555
C26 C23 1_555 1_555
H25 C26 1_555 1_555
C27 N2 1_555 1_555
H26 C27 1_555 1_555
C28 H27 1_555 1_555
C29 C28 1_555 1_555
H28 C29 1_555 1_555
C30 C29 1_555 1_555
C31 C30 1_555 1_555
H29 C31 1_555 1_555
C32 N3 1_555 1_555
H30 C32 1_555 1_555
C33 C30 1_555 1_555
H31 C33 1_555 1_555
C34 C33 1_555 1_555
H32 C34 1_555 1_555
C35 C34 1_555 1_555
C36 C35 1_555 1_555
H33 C36 1_555 1_555
C37 C36 1_555 1_555
H34 C37 1_555 1_555
C38 C14 1_555 1_555
C39 C38 1_555 1_555
H35 C39 1_555 1_555
C40 C35 1_555 1_555
H36 C40 1_555 1_555
C41 C14 1_555 1_555
C42 C41 1_555 1_555
H37 C42 1_555 1_555
C43 C42 1_555 1_555
H38 C43 1_555 1_555
C44 C43 1_555 1_555
C45 C44 1_555 1_555
H39 C45 1_555 1_555
C46 C41 1_555 1_555
H40 C46 1_555 1_555
C47 C44 1_555 1_555
H41 C47 1_555 1_555
C48 C47 1_555 1_555
H42 C48 1_555 1_555
C49 C48 1_555 1_555
C50 C49 1_555 1_555
H43 C50 1_555 1_555
C51 C50 1_555 1_555
H44 C51 1_555 1_555
C52 C49 1_555 1_555
H45 C52 1_555 1_555
C53 N4 1_555 1_555
H46 C53 1_555 1_555
C54 B2 1_555 1_555
C55 B1 1_555 1_555
B2A H4A 1_555 1_555
H5A B2A 1_555 1_555
H6A B2A 1_555 1_555
N1A C1A 1_555 1_555
N2A C25A 1_555 1_555
N3A C28A 1_555 1_555
N4A Fe2 1_555 1_555
N6A Fe2 1_555 1_555
C1A H7A 1_555 1_555
C2A C1A 1_555 1_555
H8A C2A 1_555 1_555
C3A C2A 1_555 1_555
C4A C3A 1_555 1_555
H9A C4A 1_555 1_555
C5A N1A 1_555 1_555
H10A C5A 1_555 1_555
C6A C3A 1_555 1_555
H11A C6A 1_555 1_555
C7A C6A 1_555 1_555
H12A C7A 1_555 1_555
C8A C7A 1_555 1_555
C9A C8A 1_555 1_555
H13A C9A 1_555 1_555
C10A C9A 1_555 1_555
H14A C10A 1_555 1_555
C11A C10A 1_555 1_555
C12A C11A 1_555 1_555
H15A C12A 1_555 1_555
C13A C8A 1_555 1_555
H16A C13A 1_555 1_555
C14A C11A 1_555 1_555
C15A C14A 1_555 1_555
C16A C15A 1_555 1_555
H17A C16A 1_555 1_555
C17A C16A 1_555 1_555
H18A C17A 1_555 1_555
C18A C17A 1_555 1_555
C19A C18A 1_555 1_555
H19A C19A 1_555 1_555
C20A C15A 1_555 1_555
H20A C20A 1_555 1_555
C21A C18A 1_555 1_555
H21A C21A 1_555 1_555
C22A C21A 1_555 1_555
H22A C22A 1_555 1_555
C23A C22A 1_555 1_555
C24A C23A 1_555 1_555
H23A C24A 1_555 1_555
C25A C24A 1_555 1_555
H24A C25A 1_555 1_555
C26A C23A 1_555 1_555
H25A C26A 1_555 1_555
C27A N2A 1_555 1_555
H26A C27A 1_555 1_555
C28A H27A 1_555 1_555
C29A C28A 1_555 1_555
H28A C29A 1_555 1_555
C30A C29A 1_555 1_555
C31A C30A 1_555 1_555
H29A C31A 1_555 1_555
C32A N3A 1_555 1_555
H30A C32A 1_555 1_555
C33A C30A 1_555 1_555
H31A C33A 1_555 1_555
C34A C33A 1_555 1_555
H32A C34A 1_555 1_555
C35A C34A 1_555 1_555
C36A C35A 1_555 1_555
H33A C36A 1_555 1_555
C37A C36A 1_555 1_555
H34A C37A 1_555 1_555
C38A C14A 1_555 1_555
C39A C38A 1_555 1_555
H35A C39A 1_555 1_555
C40A C35A 1_555 1_555
H36A C40A 1_555 1_555
C41A C14A 1_555 1_555
C42A C41A 1_555 1_555
H37A C42A 1_555 1_555
C43A C42A 1_555 1_555
H38A C43A 1_555 1_555
C44A C43A 1_555 1_555
C45A C44A 1_555 1_555
H39A C45A 1_555 1_555
C46A C41A 1_555 1_555
H40A C46A 1_555 1_555
C47A C44A 1_555 1_555
H41A C47A 1_555 1_555
C48A C47A 1_555 1_555
H42A C48A 1_555 1_555
C49A C48A 1_555 1_555
C50A C49A 1_555 1_555
H43A C50A 1_555 1_555
C51A N4A 1_555 1_555
H44A C51A 1_555 1_555
C52A C49A 1_555 1_555
H45A C52A 1_555 1_555
C53A N4A 1_555 1_555
H46A C53A 1_555 1_555
C54A B2A 1_555 1_555
B1B H1B 1_555 1_555
H2B B1B 1_555 1_555
H3B B1B 1_555 1_555
N5B Fe1 1_555 1_555
C55B B1B 1_555 1_555
Fe1_2 N3 1_555 1_555
Fe1A N3A 1_555 1_555
Fe1A_2 N1A 1_555 1_555
Fe2B N2A 1_555 1_555
Fe2B_2 N2 1_555 1_555
N1B Fe1 1_555 1_555
N2B Fe2 1_555 1_555
N2C Fe2 1_555 1_555
N3_2 Fe1 1_555 1_555
N3B Fe1 1_555 1_555
N5 C55 1_555 1_555
N6 C54 1_555 1_555
C4 C5 1_555 1_555
C12 C13 1_555 1_555
C19 C20 1_555 1_555
C26 C27 1_555 1_555
C31 C32 1_555 1_555
C37 C38 1_555 1_555
C39 C40 1_555 1_555
C45 C46 1_555 1_555
C52 C53 1_555 1_555
N6A C54A 1_555 1_555
C4A C5A 1_555 1_555
C12A C13A 1_555 1_555
C19A C20A 1_555 1_555
C26A C27A 1_555 1_555
C31A C32A 1_555 1_555
C37A C38A 1_555 1_555
C39A C40A 1_555 1_555
C45A C46A 1_555 1_555
C50A C51A 1_555 1_555
C52A C53A 1_555 1_555
N5B C55B 1_555 1_555

#END
