
#######################################################################
#
#                 Cambridge Crystallographic Data Centre
#                                CCDC 
#
#######################################################################
#
# If this CIF has been generated from an entry in the Cambridge 
# Structural Database, then it will include bibliographic, chemical, 
# crystal, experimental, refinement or atomic coordinate data resulting 
# from the CCDC's data processing and validation procedures.
#
#######################################################################

data_PODGEW01
_symmetry_cell_setting           hexagonal
_symmetry_space_group_name_H-M   'P 63/m c m'
_symmetry_Int_Tables_number      193
_space_group_name_Hall           "-P 6c 2'"
loop_
_symmetry_equiv_pos_site_id
_symmetry_equiv_pos_as_xyz
1 x,y,z
2 -y,x-y,z
3 -x+y,-x,z
4 -x,-y,1/2+z
5 y,-x+y,1/2+z
6 x-y,x,1/2+z
7 y,x,1/2-z
8 x-y,-y,1/2-z
9 -x,-x+y,1/2-z
10 -y,-x,-z
11 -x+y,y,-z
12 x,x-y,-z
13 -x,-y,-z
14 y,-x+y,-z
15 x-y,x,-z
16 x,y,1/2-z
17 -y,x-y,1/2-z
18 -x+y,-x,1/2-z
19 -y,-x,1/2+z
20 -x+y,y,1/2+z
21 x,x-y,1/2+z
22 y,x,z
23 x-y,-y,z
24 -x,-x+y,z
_cell_length_a                   32.182(2)
_cell_length_b                   32.182(2)
_cell_length_c                   7.2741(4)
_cell_angle_alpha                90
_cell_angle_beta                 90
_cell_angle_gamma                120
_cell_volume                     6524.33
loop_
_atom_site_label
_atom_site_type_symbol
_atom_site_fract_x
_atom_site_fract_y
_atom_site_fract_z
In1 In 0.5000 1.0000 0.0000
O1 O 0.5087(8) 0.9419(4) 0.0998(13)
O2 O 0.4664(8) 1.0000 0.2500
H1 H 0.4401 1.0000 0.2500
O3 O 0.4310(7) 0.7246(7) 0.2500
C1 C 0.5055(12) 0.9256(7) 0.2500
C2 C 0.4914(11) 0.8714(12) 0.2500
C3 C 0.4803(6) 0.8467(6) 0.088(2)
H2 H 0.4864 0.8625 -0.0246
C4 C 0.4591(7) 0.7961(7) 0.098(3)
H3 H 0.4491 0.7777 -0.0088
C5 C 0.4537(9) 0.7762(8) 0.2500
C6 C 0.3814(10) 0.6987(9) 0.2500
C7 C 0.3648(6) 0.6482(8) 0.2500
H4 H 0.3860 0.6365 0.2500
O1A O 0.0581(4) 0.5668(9) 0.0998(13)
O3A O 0.2754(7) 0.7064(10) 0.2500
C1A C 0.0744(7) 0.5799(14) 0.2500
C2A C 0.1286(12) 0.6200(16) 0.2500
C3A C 0.1533(6) 0.6336(8) 0.088(2)
H2A H 0.1375 0.6239 -0.0246
C4A C 0.2039(7) 0.6630(10) 0.098(3)
H3A H 0.2223 0.6714 -0.0088
C5A C 0.2238(8) 0.6775(12) 0.2500
C6A C 0.3013(9) 0.6827(13) 0.2500
C7A C 0.3518(8) 0.7166(10) 0.2500
H4A H 0.3635 0.7495 0.2500
O1B O 0.4332(9) 0.4913(8) 0.0998(13)
O3B O 0.2936(10) 0.5690(7) 0.2500
C1B C 0.4201(14) 0.4945(12) 0.2500
C2B C 0.3800(16) 0.5086(11) 0.2500
C3B C 0.3664(8) 0.5197(6) 0.088(2)
H2B H 0.3761 0.5136 -0.0246
C4B C 0.3370(10) 0.5409(7) 0.098(3)
H3B H 0.3286 0.5509 -0.0088
C5B C 0.3225(12) 0.5463(9) 0.2500
C6B C 0.3173(13) 0.6186(10) 0.2500
C7B C 0.2834(10) 0.6352(6) 0.2500
H4B H 0.2505 0.6140 0.2500
O1O O 0.5087(8) 0.9419(4) 0.4002(13)
C3O C 0.4803(6) 0.8467(6) 0.412(2)
H2O H 0.4864 0.8625 0.5246
C4O C 0.4591(7) 0.7961(7) 0.402(3)
H3O H 0.4491 0.7777 0.5088
O1P O 0.0581(4) 0.5668(9) 0.4002(13)
C3P C 0.1533(6) 0.6336(8) 0.412(2)
H2P H 0.1375 0.6239 0.5246
C4P C 0.2039(7) 0.6630(10) 0.402(3)
H3P H 0.2223 0.6714 0.5088
O1Q O 0.4332(9) 0.4913(8) 0.4002(13)
C3Q C 0.3664(8) 0.5197(6) 0.412(2)
H2Q H 0.3761 0.5136 0.5246
C4Q C 0.3370(10) 0.5409(7) 0.402(3)
H3Q H 0.3286 0.5509 0.5088
In1A In 0.0000 0.5000 0.0000
O2A O 0.0000 0.4664(8) 0.2500
H1A H 0.0000 0.4401 0.2500
In1B In 0.5000 0.5000 0.0000
O2B O 0.5336(8) 0.5336(8) 0.2500
H1B H 0.5599 0.5599 0.2500
O1I O 0.0581(4) 0.4913(8) -0.0998(13)
O3I O 0.2754(7) 0.5690(7) -0.2500
C1I C 0.0744(7) 0.4945(12) -0.2500
C2I C 0.1286(12) 0.5086(11) -0.2500
C3I C 0.1533(6) 0.5197(6) -0.088(2)
H2I H 0.1375 0.5136 0.0246
C4I C 0.2039(7) 0.5409(7) -0.098(3)
H3I H 0.2223 0.5509 0.0088
C5I C 0.2238(8) 0.5463(9) -0.2500
C6I C 0.3013(9) 0.6186(10) -0.2500
C7I C 0.3518(8) 0.6352(6) -0.2500
H4I H 0.3635 0.6140 -0.2500
O1J O 0.4332(9) 0.9419(4) -0.0998(13)
O3J O 0.2936(10) 0.7246(7) -0.2500
C1J C 0.4201(14) 0.9256(7) -0.2500
C2J C 0.3800(16) 0.8714(12) -0.2500
C3J C 0.3664(8) 0.8467(6) -0.088(2)
H2J H 0.3761 0.8625 0.0246
C4J C 0.3370(10) 0.7961(7) -0.098(3)
H3J H 0.3286 0.7777 0.0088
C5J C 0.3225(12) 0.7762(8) -0.2500
C6J C 0.3173(13) 0.6987(9) -0.2500
C7J C 0.2834(10) 0.6482(8) -0.2500
H4J H 0.2505 0.6365 -0.2500
O1K O 0.5087(8) 0.5668(9) -0.0998(13)
O3K O 0.4310(7) 0.7064(10) -0.2500
C1K C 0.5055(12) 0.5799(14) -0.2500
C2K C 0.4914(11) 0.6200(16) -0.2500
C3K C 0.4803(6) 0.6336(8) -0.088(2)
H2K H 0.4864 0.6239 0.0246
C4K C 0.4591(7) 0.6630(10) -0.098(3)
H3K H 0.4491 0.6714 0.0088
C5K C 0.4537(9) 0.6775(12) -0.2500
C6K C 0.3814(10) 0.6827(13) -0.2500
C7K C 0.3648(6) 0.7166(10) -0.2500
H4K H 0.3860 0.7495 -0.2500
O1R O 0.0581(4) 0.4913(8) -0.4002(13)
C3R C 0.1533(6) 0.5197(6) -0.412(2)
H2R H 0.1375 0.5136 -0.5246
C4R C 0.2039(7) 0.5409(7) -0.402(3)
H3R H 0.2223 0.5509 -0.5088
O1S O 0.4332(9) 0.9419(4) -0.4002(13)
C3S C 0.3664(8) 0.8467(6) -0.412(2)
H2S H 0.3761 0.8625 -0.5246
C4S C 0.3370(10) 0.7961(7) -0.402(3)
H3S H 0.3286 0.7777 -0.5088
O1T O 0.5087(8) 0.5668(9) -0.4002(13)
C3T C 0.4803(6) 0.6336(8) -0.412(2)
H2T H 0.4864 0.6239 -0.5246
C4T C 0.4591(7) 0.6630(10) -0.402(3)
H3T H 0.4491 0.6714 -0.5088
In1C In 0.5000 1.0000 -0.5000
In1C_2 In 0.5000 1.0000 0.5000
In1D In 0.0000 0.5000 -0.5000
In1D_2 In 0.0000 0.5000 0.5000
In1E In 0.5000 0.5000 -0.5000
In1E_2 In 0.5000 0.5000 0.5000
O1L O 0.4913(8) 1.0581(4) -0.0998(13)
O1M O -0.0581(4) 0.4332(9) -0.0998(13)
O1N O 0.5668(9) 0.5087(8) -0.0998(13)
O1U O -0.0581(4) 0.5087(8) 0.0998(13)
O1V O 0.5668(9) 1.0581(4) 0.0998(13)
O1W O 0.4913(8) 0.4332(9) 0.0998(13)
O2C O 0.5336(8) 1.0000 -0.2500
O2D O 0.0000 0.5336(8) -0.2500
O2E O 0.4664(8) 0.4664(8) -0.2500
loop_
_geom_bond_atom_site_label_1
_geom_bond_atom_site_label_2
_geom_bond_site_symmetry_1
_geom_bond_site_symmetry_2
In1 O1 1_555 1_555
O1 C1 1_555 1_555
O2 In1 1_555 1_555
H1 O2 1_555 1_555
O3 C5 1_555 1_555
C1 C2 1_555 1_555
C2 C3 1_555 1_555
C3 H2 1_555 1_555
C4 C3 1_555 1_555
H3 C4 1_555 1_555
C5 C4 1_555 1_555
C6 O3 1_555 1_555
C7 C6 1_555 1_555
H4 C7 1_555 1_555
O1A C1A 1_555 1_555
O3A C5A 1_555 1_555
C1A C2A 1_555 1_555
C2A C3A 1_555 1_555
C3A H2A 1_555 1_555
C4A C3A 1_555 1_555
H3A C4A 1_555 1_555
C5A C4A 1_555 1_555
C6A O3A 1_555 1_555
C7A C6 1_555 1_555
H4A C7A 1_555 1_555
O1B C1B 1_555 1_555
O3B C5B 1_555 1_555
C1B C2B 1_555 1_555
C2B C3B 1_555 1_555
C3B H2B 1_555 1_555
C4B C3B 1_555 1_555
H3B C4B 1_555 1_555
C5B C4B 1_555 1_555
C6B C7 1_555 1_555
C7B C6A 1_555 1_555
H4B C7B 1_555 1_555
O1O C1 1_555 1_555
C3O C2 1_555 1_555
H2O C3O 1_555 1_555
C4O C5 1_555 1_555
H3O C4O 1_555 1_555
O1P C1A 1_555 1_555
C3P C2A 1_555 1_555
H2P C3P 1_555 1_555
C4P C5A 1_555 1_555
H3P C4P 1_555 1_555
O1Q C1B 1_555 1_555
C3Q C2B 1_555 1_555
H2Q C3Q 1_555 1_555
C4Q C5B 1_555 1_555
H3Q C4Q 1_555 1_555
In1A O1A 1_555 1_555
O2A In1A 1_555 1_555
H1A O2A 1_555 1_555
In1B O1B 1_555 1_555
O2B In1B 1_555 1_555
H1B O2B 1_555 1_555
O1I In1A 1_555 1_555
O3I C5I 1_555 1_555
C1I O1I 1_555 1_555
C2I C1I 1_555 1_555
C3I C2I 1_555 1_555
H2I C3I 1_555 1_555
C4I C3I 1_555 1_555
H3I C4I 1_555 1_555
C5I C4I 1_555 1_555
C6I O3I 1_555 1_555
C7I C6I 1_555 1_555
H4I C7I 1_555 1_555
O1J In1 1_555 1_555
O3J C5J 1_555 1_555
C1J O1J 1_555 1_555
C2J C1J 1_555 1_555
C3J C2J 1_555 1_555
H2J C3J 1_555 1_555
C4J C3J 1_555 1_555
H3J C4J 1_555 1_555
C5J C4J 1_555 1_555
C6J O3J 1_555 1_555
C7J C6I 1_555 1_555
H4J C7J 1_555 1_555
O1K In1B 1_555 1_555
O3K C5K 1_555 1_555
C1K O1K 1_555 1_555
C2K C1K 1_555 1_555
C3K C2K 1_555 1_555
H2K C3K 1_555 1_555
C4K C3K 1_555 1_555
H3K C4K 1_555 1_555
C5K C4K 1_555 1_555
C6K C7I 1_555 1_555
C7K C6J 1_555 1_555
H4K C7K 1_555 1_555
O1R C1I 1_555 1_555
C3R C2I 1_555 1_555
H2R C3R 1_555 1_555
C4R C5I 1_555 1_555
H3R C4R 1_555 1_555
O1S C1J 1_555 1_555
C3S C2J 1_555 1_555
H2S C3S 1_555 1_555
C4S C5J 1_555 1_555
H3S C4S 1_555 1_555
O1T C1K 1_555 1_555
C3T C2K 1_555 1_555
H2T C3T 1_555 1_555
C4T C5K 1_555 1_555
H3T C4T 1_555 1_555
In1C O1S 1_555 1_555
In1C_2 O2 1_555 1_555
In1D O1R 1_555 1_555
In1D_2 O1P 1_555 1_555
In1E O1T 1_555 1_555
In1E_2 O1Q 1_555 1_555
O1L In1 1_555 1_555
O1M In1A 1_555 1_555
O1N In1B 1_555 1_555
O1U In1A 1_555 1_555
O1V In1 1_555 1_555
O1W In1B 1_555 1_555
O2C In1 1_555 1_555
O2D In1A 1_555 1_555
O2E In1B 1_555 1_555
C6A C7A 1_555 1_555
O3B C6B 1_555 1_555
C6B C7B 1_555 1_555
O1O In1C_2 1_555 1_555
C3O C4O 1_555 1_555
C3P C4P 1_555 1_555
C3Q C4Q 1_555 1_555
O2A In1D_2 1_555 1_555
O2B In1E_2 1_555 1_555
C6J C7J 1_555 1_555
O3K C6K 1_555 1_555
C6K C7K 1_555 1_555
C3R C4R 1_555 1_555
C3S C4S 1_555 1_555
C3T C4T 1_555 1_555
In1C O2C 1_555 1_555
In1D O2D 1_555 1_555
In1E O2E 1_555 1_555

#END
