
#######################################################################
#
#                 Cambridge Crystallographic Data Centre
#                                CCDC 
#
#######################################################################
#
# If this CIF has been generated from an entry in the Cambridge 
# Structural Database, then it will include bibliographic, chemical, 
# crystal, experimental, refinement or atomic coordinate data resulting 
# from the CCDC's data processing and validation procedures.
#
#######################################################################

data_PODWIQ
_symmetry_cell_setting           rhombohedral
_symmetry_space_group_name_H-M   'R -3'
_symmetry_Int_Tables_number      148
_space_group_name_Hall           '-R 3'
loop_
_symmetry_equiv_pos_site_id
_symmetry_equiv_pos_as_xyz
1 x,y,z
2 -y,x-y,z
3 -x+y,-x,z
4 2/3+x,1/3+y,1/3+z
5 2/3-y,1/3+x-y,1/3+z
6 2/3-x+y,1/3-x,1/3+z
7 1/3+x,2/3+y,2/3+z
8 1/3-y,2/3+x-y,2/3+z
9 1/3-x+y,2/3-x,2/3+z
10 -x,-y,-z
11 y,-x+y,-z
12 x-y,x,-z
13 1/3-x,2/3-y,2/3-z
14 1/3+y,2/3-x+y,2/3-z
15 1/3+x-y,2/3+x,2/3-z
16 2/3-x,1/3-y,1/3-z
17 2/3+y,1/3-x+y,1/3-z
18 2/3+x-y,1/3+x,1/3-z
_cell_length_a                   31.9572(9)
_cell_length_b                   31.9572(9)
_cell_length_c                   9.5202(3)
_cell_angle_alpha                90
_cell_angle_beta                 90
_cell_angle_gamma                120
_cell_volume                     8420.04
loop_
_atom_site_label
_atom_site_type_symbol
_atom_site_fract_x
_atom_site_fract_y
_atom_site_fract_z
Cu1 Cu 0.100327(11) 0.575020(11) 0.82322(3)
Cu2 Cu 0.055971(11) 0.503138(11) 1.01242(3)
I1 I 0.139247(6) 0.577546(6) 1.069945(14)
I2 I -0.008606(5) 0.498186(5) 1.216377(13)
N1 N 0.10312(7) 0.63987(7) 0.81072(19)
N2 N 0.08970(7) 0.65654(7) 0.69831(19)
N3 N 0.14384(7) 0.57098(7) 0.67543(18)
N4 N 0.14211(7) 0.57752(7) 0.53531(18)
N5 N 0.10603(7) 0.71801(10) 0.28817(18)
N6 N 0.09914(7) 0.67258(10) 0.29838(18)
N7 N 0.09938(8) 0.62149(7) 0.48187(19)
C1 C 0.12216(9) 0.67638(9) 0.9017(2)
H1 H 0.1348 0.6753 0.9911
C2 C 0.12111(9) 0.71676(9) 0.8479(3)
H2 H 0.1325 0.7472 0.8919
C3 C 0.10018(9) 0.70268(9) 0.7186(3)
H3 H 0.0941 0.7218 0.6546
C4 C 0.18426(9) 0.56911(9) 0.6947(2)
H4 H 0.1952 0.5649 0.7835
C5 C 0.20847(10) 0.57417(11) 0.5685(3)
H5 H 0.2379 0.5741 0.5546
C6 C 0.18018(10) 0.57921(10) 0.4684(2)
H6 H 0.1863 0.5831 0.3703
C7 C 0.06702(9) 0.62592(9) 0.5755(2)
H7 H 0.0428 0.5932 0.6085
H8 H 0.0495 0.6391 0.5227
C8 C 0.10045(8) 0.57744(8) 0.4699(2)
H9 H 0.0999 0.5698 0.3689
H10 H 0.0706 0.5512 0.5127
C9 C 0.07062(8) 0.71400(12) 0.2062(2)
H11 H 0.0663 0.7403 0.1805
C10 C 0.04083(8) 0.66667(12) 0.1629(2)
H12 H 0.0132 0.6546 0.1042
C11 C 0.06005(9) 0.64099(13) 0.2234(2)
H13 H 0.0481 0.6072 0.2143
C12 C 0.12921(9) 0.66192(13) 0.3922(2)
H14 H 0.1498 0.6906 0.4505
H15 H 0.1506 0.6544 0.3354
Cu1I Cu -0.100327(11) 0.424980(11) 1.17678(3)
Cu2I Cu -0.055971(11) 0.496862(11) 0.98758(3)
Cu2P Cu 0.169805(11) 0.780500(16) 0.32091(3)
I2I I 0.008606(5) 0.501814(5) 0.783623(13)
N5Q N 0.05469(12) 0.43936(7) 1.04516(18)
loop_
_geom_bond_atom_site_label_1
_geom_bond_atom_site_label_2
_geom_bond_site_symmetry_1
_geom_bond_site_symmetry_2
Cu1 I1 1_555 1_555
Cu2 I1 1_555 1_555
I2 Cu2 1_555 1_555
N1 Cu1 1_555 1_555
N2 N1 1_555 1_555
N3 Cu1 1_555 1_555
N4 N3 1_555 1_555
N5 N6 1_555 1_555
N6 C11 1_555 1_555
N7 C7 1_555 1_555
C1 N1 1_555 1_555
H1 C1 1_555 1_555
C2 C1 1_555 1_555
H2 C2 1_555 1_555
C3 N2 1_555 1_555
H3 C3 1_555 1_555
C4 N3 1_555 1_555
H4 C4 1_555 1_555
C5 C4 1_555 1_555
H5 C5 1_555 1_555
C6 N4 1_555 1_555
H6 C6 1_555 1_555
C7 N2 1_555 1_555
H7 C7 1_555 1_555
H8 C7 1_555 1_555
C8 N4 1_555 1_555
H9 C8 1_555 1_555
H10 C8 1_555 1_555
C9 N5 1_555 1_555
H11 C9 1_555 1_555
C10 C9 1_555 1_555
H12 C10 1_555 1_555
C11 C10 1_555 1_555
H13 C11 1_555 1_555
C12 N6 1_555 1_555
H14 C12 1_555 1_555
H15 C12 1_555 1_555
Cu1I I2 1_555 1_555
Cu2I I2 1_555 1_555
Cu2P N5 1_555 1_555
I2I Cu1 1_555 1_555
N5Q Cu2 1_555 1_555
Cu2 I2I 1_555 1_555
N7 C8 1_555 1_555
N7 C12 1_555 1_555
C2 C3 1_555 1_555
C5 C6 1_555 1_555
Cu2I I2I 1_555 1_555

#END
