
#######################################################################
#
#                 Cambridge Crystallographic Data Centre
#                                CCDC 
#
#######################################################################
#
# If this CIF has been generated from an entry in the Cambridge 
# Structural Database, then it will include bibliographic, chemical, 
# crystal, experimental, refinement or atomic coordinate data resulting 
# from the CCDC's data processing and validation procedures.
#
#######################################################################

data_POFGUO
_symmetry_cell_setting           cubic
_symmetry_space_group_name_H-M   'I -4 3 d'
_symmetry_Int_Tables_number      220
_space_group_name_Hall           'I -4bd 2c 3'
loop_
_symmetry_equiv_pos_site_id
_symmetry_equiv_pos_as_xyz
1 x,y,z
2 1/2-x,-y,1/2+z
3 -x,1/2+y,1/2-z
4 1/2+x,1/2-y,-z
5 z,x,y
6 1/2+z,1/2-x,-y
7 1/2-z,-x,1/2+y
8 -z,1/2+x,1/2-y
9 y,z,x
10 -y,1/2+z,1/2-x
11 1/2+y,1/2-z,-x
12 1/2-y,-z,1/2+x
13 1/4+y,1/4+x,1/4+z
14 1/4-y,3/4-x,3/4+z
15 3/4+y,1/4-x,3/4-z
16 3/4-y,3/4+x,1/4-z
17 1/4+x,1/4+z,1/4+y
18 3/4-x,3/4+z,1/4-y
19 1/4-x,3/4-z,3/4+y
20 3/4+x,1/4-z,3/4-y
21 1/4+z,1/4+y,1/4+x
22 3/4+z,1/4-y,3/4-x
23 3/4-z,3/4+y,1/4-x
24 1/4-z,3/4-y,3/4+x
25 1/2+x,1/2+y,1/2+z
26 -x,1/2-y,z
27 1/2-x,y,-z
28 x,-y,1/2-z
29 1/2+z,1/2+x,1/2+y
30 z,-x,1/2-y
31 -z,1/2-x,y
32 1/2-z,x,-y
33 1/2+y,1/2+z,1/2+x
34 1/2-y,z,-x
35 y,-z,1/2-x
36 -y,1/2-z,x
37 3/4+y,3/4+x,3/4+z
38 3/4-y,1/4-x,1/4+z
39 1/4+y,3/4-x,1/4-z
40 1/4-y,1/4+x,3/4-z
41 3/4+x,3/4+z,3/4+y
42 1/4-x,1/4+z,3/4-y
43 3/4-x,1/4-z,1/4+y
44 1/4+x,3/4-z,1/4-y
45 3/4+z,3/4+y,3/4+x
46 1/4+z,3/4-y,1/4-x
47 1/4-z,1/4+y,3/4-x
48 3/4-z,1/4-y,1/4+x
_cell_length_a                   21.1288(4)
_cell_length_b                   21.1288(4)
_cell_length_c                   21.1288(4)
_cell_angle_alpha                90
_cell_angle_beta                 90
_cell_angle_gamma                90
_cell_volume                     9432.45
loop_
_atom_site_label
_atom_site_type_symbol
_atom_site_fract_x
_atom_site_fract_y
_atom_site_fract_z
N1 N 1.0000 0.7500 0.1250
C7 C 0.9613(5) 0.7090(5) 0.1648(4)
C7O C 1.0410(5) 0.7113(5) 0.0852(4)
C7Y C 1.0387(5) 0.7910(5) 0.1648(4)
C7LA C 0.9590(5) 0.7887(5) 0.0852(4)
N2 N 0.9947(4) 0.5053(4) 0.4947(4)
C8 C 1.0514(5) 0.5428(5) 0.5114(5)
C9 C 0.9535(5) 0.5465(5) 0.4535(5)
C8E C 1.0114(5) 0.4486(5) 0.4572(5)
C8K C 0.9572(5) 0.4886(5) 0.5514(5)
O4 O 0.8601(8) 0.6399(8) 0.3601(8)
O1 O 0.97755(16) 0.79765(15) 0.55950(14)
O2 O 1.0918(2) 0.60847(16) 0.36050(17)
O3 O 1.0779(2) 0.65757(18) 0.26842(16)
C1 C 1.0000 0.7500 0.4606(3)
C2 C 1.0706(3) 0.6518(2) 0.3271(2)
C3 C 1.0000 0.7500 0.3299(3)
C4 C 1.0330(2) 0.7044(2) 0.4276(2)
C5 C 1.0000 0.7500 0.5318(3)
C6 C 1.0337(2) 0.7038(2) 0.3613(2)
Li1 Li 1.0282(4) 0.8420(4) 0.6277(4)
H1 H 1.0000 0.7500 0.275(5)
H2 H 1.059(2) 0.666(2) 0.454(3)
O1Y O 1.02245(16) 0.70235(15) 0.55950(14)
O2Y O 0.9082(2) 0.89153(16) 0.36050(17)
O3Y O 0.9221(2) 0.84243(18) 0.26842(16)
C2Y C 0.9294(3) 0.8482(2) 0.3271(2)
C4Y C 0.9670(2) 0.7956(2) 0.4276(2)
C6Y C 0.9663(2) 0.7962(2) 0.3613(2)
H2Y H 0.941(2) 0.834(2) 0.454(3)
Li1F Li 0.8723(4) 0.9718(4) 0.3420(4)
O1F O 0.94050(14) 1.02245(16) 0.29765(15)
O1LA O 1.04765(15) 0.77245(16) 0.69050(14)
O1SA O 0.80950(14) 0.95235(15) 0.27245(16)
O2FA O 1.10847(16) 0.86050(17) 0.5918(2)
O3NA O 0.8279(2) 1.01842(16) 0.40757(18)
O3TA O 0.98158(16) 0.90757(18) 0.6721(2)
Li1O Li 0.9080(4) 0.7782(4) 0.6223(4)
Li1V Li 1.1223(4) 0.5920(4) 0.2218(4)
Li1Y Li 0.9718(4) 0.6580(4) 0.6277(4)
Li1BA Li 1.1277(4) 0.5282(4) 0.3420(4)
Li1LA Li 1.0920(4) 0.7218(4) 0.6223(4)
Li1SA Li 0.8777(4) 0.9080(4) 0.2218(4)
loop_
_geom_bond_atom_site_label_1
_geom_bond_atom_site_label_2
_geom_bond_site_symmetry_1
_geom_bond_site_symmetry_2
O1 C5 1_555 1_555
O2 C2 1_555 1_555
O3 C2 1_555 1_555
C1 C4 1_555 1_555
C2 C6 1_555 1_555
C3 C6 1_555 1_555
C4 C6 1_555 1_555
C5 C1 1_555 1_555
Li1 O1 1_555 1_555
H1 C3 1_555 1_555
H2 C4 1_555 1_555
N1 C7 1_555 1_555
N2 C8 1_555 1_555
C9 N2 1_555 1_555
O1Y C5 1_555 1_555
O2Y C2Y 1_555 1_555
O3Y C2Y 1_555 1_555
C2Y C6Y 1_555 1_555
C4Y C1 1_555 1_555
C6Y C3 1_555 1_555
H2Y C4Y 1_555 1_555
Li1F O2Y 1_555 1_555
O1F Li1F 1_555 1_555
O1LA Li1 1_555 1_555
O1SA Li1F 1_555 1_555
O2FA Li1 1_555 1_555
O3NA Li1F 1_555 1_555
O3TA Li1 1_555 1_555
Li1O O1 1_555 1_555
Li1V O3 1_555 1_555
Li1Y O1Y 1_555 1_555
Li1BA O2 1_555 1_555
Li1LA O1Y 1_555 1_555
Li1SA O3Y 1_555 1_555
C7O N1 1_555 1_555
C7Y N1 1_555 1_555
C7LA N1 1_555 1_555
C8E N2 1_555 1_555
C8K N2 1_555 1_555
C4Y C6Y 1_555 1_555
O1LA Li1LA 1_555 1_555
O1SA Li1SA 1_555 1_555

#END
