
#######################################################################
#
#                 Cambridge Crystallographic Data Centre
#                                CCDC 
#
#######################################################################
#
# If this CIF has been generated from an entry in the Cambridge 
# Structural Database, then it will include bibliographic, chemical, 
# crystal, experimental, refinement or atomic coordinate data resulting 
# from the CCDC's data processing and validation procedures.
#
#######################################################################

data_POFHAV
_symmetry_cell_setting           rhombohedral
_symmetry_space_group_name_H-M   'R 3 2'
_symmetry_Int_Tables_number      155
_space_group_name_Hall           'R 3 2"'
loop_
_symmetry_equiv_pos_site_id
_symmetry_equiv_pos_as_xyz
1 x,y,z
2 -y,x-y,z
3 -x+y,-x,z
4 y,x,-z
5 x-y,-y,-z
6 -x,-x+y,-z
7 2/3+x,1/3+y,1/3+z
8 2/3-y,1/3+x-y,1/3+z
9 2/3-x+y,1/3-x,1/3+z
10 2/3+y,1/3+x,1/3-z
11 2/3+x-y,1/3-y,1/3-z
12 2/3-x,1/3-x+y,1/3-z
13 1/3+x,2/3+y,2/3+z
14 1/3-y,2/3+x-y,2/3+z
15 1/3-x+y,2/3-x,2/3+z
16 1/3+y,2/3+x,2/3-z
17 1/3+x-y,2/3-y,2/3-z
18 1/3-x,2/3-x+y,2/3-z
_cell_length_a                   28.0967(8)
_cell_length_b                   28.0967(8)
_cell_length_c                   22.9666(14)
_cell_angle_alpha                90
_cell_angle_beta                 90
_cell_angle_gamma                120
_cell_volume                     15701.4
loop_
_atom_site_label
_atom_site_type_symbol
_atom_site_fract_x
_atom_site_fract_y
_atom_site_fract_z
O1 O 0.34221(14) -0.64855(16) 0.7395(2)
C1 C 0.42040(19) -0.5658(2) 0.7688(2)
C2 C 0.45281(19) -0.5701(2) 0.7235(3)
H1 H 0.4372 -0.6001 0.6984
C3 C 0.5079(2) -0.5295(2) 0.7163(2)
H2 H 0.5290 -0.5325 0.6869
C4 C 0.53091(19) -0.48409(18) 0.7541(2)
C5 C 0.62928(19) -0.4524(2) 0.7286(2)
H3 H 0.6192 -0.4886 0.7203
C6 C 0.59033(18) -0.43991(19) 0.7461(2)
C7 C 0.3617(2) -0.6085(2) 0.7737(3)
C8 C 0.72976(19) -0.4229(2) 0.7016(3)
C9 C 0.6779(2) -0.28309(19) 0.7552(2)
C10 C 0.7289(2) -0.2449(2) 0.7787(2)
H4 H 0.7530 -0.2566 0.7908
C11 C 0.4454(2) -0.5224(2) 0.8059(2)
H5 H 0.4257 -0.5205 0.8374
C12 C 0.6048(2) -0.3845(2) 0.7541(2)
H6 H 0.5778 -0.3755 0.7626
C13 C 0.4995(2) -0.4808(2) 0.7984(2)
H7 H 0.5146 -0.4507 0.8233
C14 C 0.7097(2) -0.1725(2) 0.7711(2)
C15 C 0.6598(2) -0.3431(2) 0.7492(2)
C16 C 0.6618(3) -0.2052(3) 0.7486(2)
H8 H 0.6398 -0.1907 0.7377
C17 C 0.6416(2) -0.26254(19) 0.7401(2)
H9 H 0.6066 -0.2856 0.7254
C18 C 0.7432(3) -0.1933(2) 0.7840(2)
H10 H 0.7784 -0.1691 0.7974
C19 C 0.69854(18) -0.35619(19) 0.7318(2)
H11 H 0.7346 -0.3284 0.7257
C20 C 0.68420(18) -0.41107(18) 0.7230(2)
C21 C 0.72183(17) -0.4577(2) 0.6566(3)
H12 H 0.6860 -0.4798 0.6434
O2 O 0.33400(15) -0.60171(16) 0.8138(2)
C22 C 0.76182(19) -0.46268(18) 0.6294(2)
H13 H 0.7543 -0.4872 0.5989
O3 O 0.7676(3) -0.08598(19) 0.8105(3)
H14 H 0.7837 -0.0549 0.7969
O4 O 0.69488(15) -0.09660(13) 0.76672(17)
C23 C 0.81602(19) -0.4281(2) 0.6505(3)
C24 C 0.7244(3) -0.1151(3) 0.7821(3)
C25 C 0.7799(2) -0.3936(2) 0.7247(3)
H15 H 0.7854 -0.3710 0.7566
O5 O 0.91180(15) -0.39605(15) 0.6358(2)
O6 O 0.85090(18) -0.4620(3) 0.5806(2)
H16 H 0.8713 -0.4482 0.5525
C26 C 0.8235(3) -0.3966(3) 0.7016(4)
H17 H 0.8578 -0.3781 0.7194
C27 C 0.8635(2) -0.4282(3) 0.6183(4)
Li1 Li 0.3117(2) -0.6212(2) 0.8935(3)
O1P O 0.32409(21) -0.68478(16) 0.9272(2)
O4O O 0.23673(13) -0.63845(15) 0.89995(17)
O5H O 0.35882(21) -0.57847(15) 0.9691(2)
Li1M Li 0.9545(2) -0.4004(3) 0.5602(3)
Li1O Li 0.7121(2) -0.0216(2) 0.7732(3)
Li1P Li 0.2662(3) -0.7121(2) 0.7732(3)
loop_
_geom_bond_atom_site_label_1
_geom_bond_atom_site_label_2
_geom_bond_site_symmetry_1
_geom_bond_site_symmetry_2
O1 C7 1_555 1_555
C1 C2 1_555 1_555
C2 H1 1_555 1_555
C3 C2 1_555 1_555
H2 C3 1_555 1_555
C4 C3 1_555 1_555
C5 H3 1_555 1_555
C6 C4 1_555 1_555
C7 C1 1_555 1_555
C8 C20 1_555 1_555
C9 C10 1_555 1_555
C10 H4 1_555 1_555
C11 C1 1_555 1_555
H5 C11 1_555 1_555
C12 C6 1_555 1_555
H6 C12 1_555 1_555
C13 C4 1_555 1_555
H7 C13 1_555 1_555
C14 C16 1_555 1_555
C15 C9 1_555 1_555
C16 H8 1_555 1_555
C17 C9 1_555 1_555
H9 C17 1_555 1_555
C18 C10 1_555 1_555
H10 C18 1_555 1_555
C19 C15 1_555 1_555
H11 C19 1_555 1_555
C20 C5 1_555 1_555
C21 C8 1_555 1_555
H12 C21 1_555 1_555
O2 C7 1_555 1_555
C22 C21 1_555 1_555
H13 C22 1_555 1_555
O3 H14 1_555 1_555
O4 C24 1_555 1_555
C23 C22 1_555 1_555
C24 C14 1_555 1_555
C25 C8 1_555 1_555
H15 C25 1_555 1_555
O5 C27 1_555 1_555
O6 H16 1_555 1_555
C26 C23 1_555 1_555
H17 C26 1_555 1_555
C27 C23 1_555 1_555
Li1 O2 1_555 1_555
O1P Li1 1_555 1_555
O4O Li1 1_555 1_555
O5H Li1 1_555 1_555
Li1M O5 1_555 1_555
Li1O O4 1_555 1_555
Li1P O1 1_555 1_555
C5 C6 1_555 1_555
C11 C13 1_555 1_555
C12 C15 1_555 1_555
C14 C18 1_555 1_555
C16 C17 1_555 1_555
C19 C20 1_555 1_555
O3 C24 1_555 1_555
C25 C26 1_555 1_555
O6 C27 1_555 1_555

#END
