
#######################################################################
#
#                 Cambridge Crystallographic Data Centre
#                                CCDC 
#
#######################################################################
#
# If this CIF has been generated from an entry in the Cambridge 
# Structural Database, then it will include bibliographic, chemical, 
# crystal, experimental, refinement or atomic coordinate data resulting 
# from the CCDC's data processing and validation procedures.
#
#######################################################################

data_POHCOG02
_symmetry_cell_setting           orthorhombic
_symmetry_space_group_name_H-M   'P c c a'
_symmetry_Int_Tables_number      54
_space_group_name_Hall           '-P 2a 2ac'
loop_
_symmetry_equiv_pos_site_id
_symmetry_equiv_pos_as_xyz
1 x,y,z
2 1/2-x,-y,z
3 -x,y,1/2-z
4 1/2+x,-y,1/2-z
5 -x,-y,-z
6 1/2+x,y,-z
7 x,-y,1/2+z
8 1/2-x,y,1/2+z
_cell_length_a                   12.0545(4)
_cell_length_b                   17.2800(6)
_cell_length_c                   31.6186(9)
_cell_angle_alpha                90
_cell_angle_beta                 90
_cell_angle_gamma                90
_cell_volume                     6586.21
loop_
_atom_site_label
_atom_site_type_symbol
_atom_site_fract_x
_atom_site_fract_y
_atom_site_fract_z
Ag1 Ag -0.51382(8) 0.25745(5) 0.43210(4)
Ag2 Ag -1.09611(8) 0.17576(6) 0.45476(4)
Ag3 Ag -1.42875(8) 0.30804(6) 0.53334(3)
Fe1 Fe -0.7500 0.0000 0.42317(6)
Fe2 Fe -0.2500 0.5000 0.42706(6)
N1 N -0.6359(8) 0.0958(5) 0.4251(3)
N2 N -0.3785(8) 0.4122(5) 0.4273(3)
N3 N -0.8869(8) 0.0813(6) 0.4218(3)
N4 N -1.2333(11) 0.2230(7) 0.4875(4)
N5 N -1.6242(9) 0.4109(6) 0.5713(3)
N6 N -0.7500 0.0000 0.3531(4)
N7 N -0.7500 0.0000 -0.0061(4)
N8 N -0.2500 0.5000 0.3576(4)
N9 N -0.2500 0.5000 -0.0040(4)
C1 C -0.5922(9) 0.1498(6) 0.4276(4)
C2 C -0.4305(10) 0.3610(6) 0.4291(4)
C3 C -0.9609(10) 0.1190(7) 0.4306(4)
C4 C -1.3014(12) 0.2519(8) 0.5042(4)
C5 C -1.5543(13) 0.3695(9) 0.5613(4)
C6 C -0.6620(10) 0.0259(8) 0.3319(3)
H1 H -0.5996 0.0445 0.3472
C7 C -0.6593(10) 0.0262(7) 0.2873(4)
H2 H -0.5955 0.0445 0.2728
C8 C -0.7500 0.0000 0.2650(4)
C9 C -0.7500 0.0000 0.2176(5)
C10 C -0.6584(9) -0.0248(7) 0.1955(3)
H3 H -0.5948 -0.0426 0.2104
C11 C -0.6584(9) -0.0239(7) 0.1516(4)
H4 H -0.5939 -0.0400 0.1368
C12 C -0.7500 0.0000 0.1291(5)
C13 C -0.7500 0.0000 0.0828(5)
C14 C -0.6565(10) 0.0208(7) 0.0598(3)
H5 H -0.5911 0.0367 0.0742
C15 C -0.6579(10) 0.0186(7) 0.0169(3)
H6 H -0.5915 0.0306 0.0021
C16 C -0.3408(10) 0.5176(7) 0.3356(3)
H7 H -0.4065 0.5310 0.3504
C17 C -0.3426(10) 0.5170(8) 0.2920(4)
H8 H -0.4098 0.5287 0.2776
C18 C -0.2500 0.5000 0.2691(5)
C19 C -0.2500 0.5000 0.2237(5)
C20 C -0.3353(10) 0.4649(7) 0.1995(3)
H9 H -0.3943 0.4396 0.2138
C21 C -0.3358(9) 0.4662(8) 0.1559(4)
H10 H -0.3961 0.4434 0.1411
C22 C -0.2500 0.5000 0.1331(5)
C23 C -0.2500 0.5000 0.0860(4)
C24 C -0.3416(15) 0.4957(10) 0.0645(5)
H11 H -0.4106 0.4936 0.0790
C25 C -0.3397(14) 0.4941(11) 0.0189(5)
H12 H -0.4085 0.4884 0.0045
C6A C -0.8380(10) -0.0259(8) 0.3319(3)
H1A H -0.9004 -0.0445 0.3472
C7A C -0.8407(10) -0.0262(7) 0.2873(4)
H2A H -0.9045 -0.0445 0.2728
C10A C -0.8416(9) 0.0248(7) 0.1955(3)
H3A H -0.9052 0.0426 0.2104
C11A C -0.8416(9) 0.0239(7) 0.1516(4)
H4A H -0.9061 0.0400 0.1368
C14A C -0.8435(10) -0.0208(7) 0.0598(3)
H5A H -0.9089 -0.0367 0.0742
C15A C -0.8421(10) -0.0186(7) 0.0169(3)
H6A H -0.9085 -0.0306 0.0021
C16A C -0.1592(10) 0.4824(7) 0.3356(3)
H7A H -0.0935 0.4690 0.3504
C17A C -0.1574(10) 0.4830(8) 0.2920(4)
H8A H -0.0902 0.4713 0.2776
C20A C -0.1647(10) 0.5351(7) 0.1995(3)
H9A H -0.1057 0.5604 0.2138
C21A C -0.1642(9) 0.5338(8) 0.1559(4)
H10A H -0.1039 0.5566 0.1411
C24A C -0.1584(15) 0.5043(10) 0.0645(5)
H11A H -0.0894 0.5064 0.0790
C25A C -0.1603(14) 0.5059(11) 0.0189(5)
H12A H -0.0915 0.5116 0.0045
Ag1A Ag -0.98618(8) -0.25745(5) 0.43210(4)
Ag2A Ag -0.40389(8) -0.17576(6) 0.45476(4)
Ag3A Ag -0.07125(8) -0.30804(6) 0.53334(3)
N1A N -0.8641(8) -0.0958(5) 0.4251(3)
N2A N -1.1215(8) -0.4122(5) 0.4273(3)
N3A N -0.6131(8) -0.0813(6) 0.4218(3)
N4A N -0.2667(11) -0.2230(7) 0.4875(4)
N5A N 0.1242(9) -0.4109(6) 0.5713(3)
C1A C -0.9078(9) -0.1498(6) 0.4276(4)
C2A C -1.0695(10) -0.3610(6) 0.4291(4)
C3A C -0.5391(10) -0.1190(7) 0.4306(4)
C4A C -0.1986(12) -0.2519(8) 0.5042(4)
C5A C 0.0543(13) -0.3695(9) 0.5613(4)
Ag2D Ag 0.09611(8) -0.17576(6) 0.54524(4)
Ag2E Ag -1.59611(8) 0.17576(6) 0.54524(4)
Ag3D Ag -0.57125(8) -0.30804(6) 0.46666(3)
Ag3E Ag -0.92875(8) 0.30804(6) 0.46666(3)
Fe1F Fe -0.7500 0.0000 -0.07683(6)
Fe2_2 Fe -1.2500 -0.5000 0.42706(6)
Fe2D Fe -1.7500 0.5000 0.57294(6)
Fe2D_2 Fe 0.2500 -0.5000 0.57294(6)
Fe2F Fe -0.2500 0.5000 -0.07294(6)
N2A_2 N -0.1215(8) 0.5878(5) 0.4273(3)
N5D N -0.3758(9) 0.5891(6) 0.4287(3)
N5E N -0.1242(9) 0.4109(6) 0.4287(3)
N7F N -0.7500 0.0000 0.4939(4)
N9F N -0.2500 0.5000 0.4960(4)
loop_
_geom_bond_atom_site_label_1
_geom_bond_atom_site_label_2
_geom_bond_site_symmetry_1
_geom_bond_site_symmetry_2
Ag1 C1 1_555 1_555
Ag2 N4 1_555 1_555
Ag3 C4 1_555 1_555
Fe1 N1 1_555 1_555
Fe2 N2 1_555 1_555
N1 C1 1_555 1_555
N2 C2 1_555 1_555
N3 Fe1 1_555 1_555
N4 C4 1_555 1_555
N5 C5 1_555 1_555
N6 Fe1 1_555 1_555
N7 C15 1_555 1_555
N8 Fe2 1_555 1_555
N9 C25 1_555 1_555
C2 Ag1 1_555 1_555
C3 Ag2 1_555 1_555
C5 Ag3 1_555 1_555
C6 N6 1_555 1_555
H1 C6 1_555 1_555
C7 C6 1_555 1_555
H2 C7 1_555 1_555
C8 C7 1_555 1_555
C9 C8 1_555 1_555
C10 C9 1_555 1_555
H3 C10 1_555 1_555
C11 C10 1_555 1_555
H4 C11 1_555 1_555
C12 C11 1_555 1_555
C13 C12 1_555 1_555
C14 C13 1_555 1_555
H5 C14 1_555 1_555
C15 C14 1_555 1_555
H6 C15 1_555 1_555
C16 N8 1_555 1_555
H7 C16 1_555 1_555
C17 C16 1_555 1_555
H8 C17 1_555 1_555
C18 C17 1_555 1_555
C19 C18 1_555 1_555
C20 C19 1_555 1_555
H9 C20 1_555 1_555
C21 C20 1_555 1_555
H10 C21 1_555 1_555
C22 C21 1_555 1_555
C23 C22 1_555 1_555
C24 C23 1_555 1_555
H11 C24 1_555 1_555
C25 C24 1_555 1_555
H12 C25 1_555 1_555
C6A N6 1_555 1_555
H1A C6A 1_555 1_555
C7A C8 1_555 1_555
H2A C7A 1_555 1_555
C10A C9 1_555 1_555
H3A C10A 1_555 1_555
C11A C12 1_555 1_555
H4A C11A 1_555 1_555
C14A C13 1_555 1_555
H5A C14A 1_555 1_555
C15A N7 1_555 1_555
H6A C15A 1_555 1_555
C16A N8 1_555 1_555
H7A C16A 1_555 1_555
C17A C18 1_555 1_555
H8A C17A 1_555 1_555
C20A C19 1_555 1_555
H9A C20A 1_555 1_555
C21A C22 1_555 1_555
H10A C21A 1_555 1_555
C24A C23 1_555 1_555
H11A C24A 1_555 1_555
C25A N9 1_555 1_555
H12A C25A 1_555 1_555
Ag1A C1A 1_555 1_555
Ag2A N4A 1_555 1_555
Ag3A C4A 1_555 1_555
N1A Fe1 1_555 1_555
N2A C2A 1_555 1_555
N3A Fe1 1_555 1_555
N4A C4A 1_555 1_555
N5A C5A 1_555 1_555
C1A N1A 1_555 1_555
C2A Ag1A 1_555 1_555
C3A Ag2A 1_555 1_555
C5A Ag3A 1_555 1_555
Ag2D Ag3A 1_555 1_555
Ag2E Ag3 1_555 1_555
Ag3D Ag2A 1_555 1_555
Ag3E Ag2 1_555 1_555
Fe1F N7 1_555 1_555
Fe2_2 N2A 1_555 1_555
Fe2D N5 1_555 1_555
Fe2D_2 N5A 1_555 1_555
Fe2F N9 1_555 1_555
N2A_2 Fe2 1_555 1_555
N5D Fe2 1_555 1_555
N5E Fe2 1_555 1_555
N7F Fe1 1_555 1_555
N9F Fe2 1_555 1_555
N3 C3 1_555 1_555
C6A C7A 1_555 1_555
C10A C11A 1_555 1_555
C14A C15A 1_555 1_555
C16A C17A 1_555 1_555
C20A C21A 1_555 1_555
C24A C25A 1_555 1_555
N3A C3A 1_555 1_555

#END
