
#######################################################################
#
#                 Cambridge Crystallographic Data Centre
#                                CCDC 
#
#######################################################################
#
# If this CIF has been generated from an entry in the Cambridge 
# Structural Database, then it will include bibliographic, chemical, 
# crystal, experimental, refinement or atomic coordinate data resulting 
# from the CCDC's data processing and validation procedures.
#
#######################################################################

data_POJTUE
_symmetry_cell_setting           monoclinic
_symmetry_space_group_name_H-M   'P 21/c'
_symmetry_Int_Tables_number      14
_space_group_name_Hall           '-P 2ybc'
loop_
_symmetry_equiv_pos_site_id
_symmetry_equiv_pos_as_xyz
1 x,y,z
2 -x,1/2+y,1/2-z
3 -x,-y,-z
4 x,1/2-y,1/2+z
_cell_length_a                   19.3197
_cell_length_b                   15.0362
_cell_length_c                   6.8351
_cell_angle_alpha                90
_cell_angle_beta                 96.305
_cell_angle_gamma                90
_cell_volume                     1973.55
loop_
_atom_site_label
_atom_site_type_symbol
_atom_site_fract_x
_atom_site_fract_y
_atom_site_fract_z
Fe1 Fe 0.4944 0.2558 0.4749
Fe2 Fe 0.0000 0.0000 0.5000
Fe3 Fe 1.0000 0.5000 0.5000
O1 O 0.4946 0.3116 0.7214
O2 O 0.0004 0.0666 0.2556
O3 O 0.9330 0.4226 0.3600
O4 O 0.9085 0.4434 0.0415
O5 O 0.5829 0.3117 0.4322
O6 O 0.5559 0.1506 0.6223
C1 C 0.8135 0.4017 0.2241
C2 C 0.7934 0.3744 0.4006
C3 C 0.7250 0.3544 0.4155
C4 C 0.6766 0.3618 0.2539
C5 C 0.6967 0.3891 0.0774
C6 C 0.7651 0.4091 0.0625
C7 C 0.8890 0.4238 0.2076
C8 C 0.6011 0.3398 0.2704
H1 H 0.8280 0.3691 0.5161
H2 H 0.7106 0.3349 0.5417
H3 H 0.6622 0.3944 -0.0381
H4 H 0.7795 0.4286 -0.0637
O7 O 0.4357 0.3493 0.3605
O8 O 0.4092 0.1815 0.5466
O9 O 0.0846 0.0777 0.9551
O10 O 0.0591 0.0993 0.6371
C9 C 0.3161 0.3574 0.2316
C10 C 0.2957 0.3799 0.4109
C11 C 0.2268 0.3952 0.4291
C12 C 0.1782 0.3880 0.2680
C13 C 0.1986 0.3655 0.0887
C14 C 0.2675 0.3502 0.0705
C15 C 0.3905 0.3410 0.2120
C16 C 0.1038 0.0956 0.7877
H5 H 0.3304 0.3851 0.5262
H6 H 0.2122 0.4112 0.5574
H7 H 0.1639 0.3603 -0.0265
H8 H 0.2821 0.3342 -0.0577
Fe1C Fe 0.4944 0.2442 0.9749
Fe1C_2 Fe 0.4944 0.2442 -0.0251
Fe2A Fe 1.0000 0.5000 0.0000
Fe2A_2 Fe 0.0000 0.5000 0.0000
Fe2_2 Fe 1.0000 0.0000 0.5000
Fe3A Fe 0.0000 0.0000 0.0000
Fe3A_2 Fe 0.0000 0.0000 1.0000
Fe3_2 Fe 0.0000 0.5000 0.5000
Fe3A_3 Fe 1.0000 0.0000 1.0000
O1C O 0.4946 0.1884 1.2214
O1C_2 O 0.4946 0.1884 0.2214
O2A O 0.9996 0.5666 0.2444
O2B O -0.0004 -0.0666 0.7444
O2C O 1.0004 0.4334 0.7556
O3B O 1.0670 0.5774 0.6400
O3C O 0.9330 0.0774 0.8600
O4A O 0.0915 -0.0566 0.4585
O4C O -0.0915 0.0566 0.5415
O4C_2 O 0.9085 0.0566 0.5415
O5C O 0.5829 0.1883 0.9322
O6C O 0.5559 0.3494 1.1223
O6C_2 O 0.5559 0.3494 0.1223
C1C C 0.8135 0.0983 0.7241
C2C C 0.7934 0.1256 0.9006
C3C C 0.7250 0.1456 0.9155
C4C C 0.6766 0.1382 0.7539
C5C C 0.6967 0.1109 0.5774
C6C C 0.7651 0.0909 0.5625
C7C C 0.8890 0.0762 0.7076
C8C C 0.6011 0.1602 0.7704
H1C H 0.8280 0.1309 1.0161
H2C H 0.7106 0.1651 1.0417
H3C H 0.6622 0.1056 0.4619
H4C H 0.7795 0.0714 0.4363
O7C O 0.4357 0.1507 0.8605
O8C O 0.4092 0.3185 0.0466
O8C_2 O 0.4092 0.3185 1.0466
O9C O 1.0846 0.4223 0.4551
O9A O 0.9154 0.5777 0.5449
O9C_2 O 0.0846 0.4223 0.4551
O10B O -0.0591 -0.0993 0.3629
O10C O 0.0591 0.4007 0.1371
C9C C 0.3161 0.1426 0.7316
C10C C 0.2957 0.1201 0.9109
C11C C 0.2268 0.1048 0.9291
C12C C 0.1782 0.1120 0.7680
C13C C 0.1986 0.1345 0.5887
C14C C 0.2675 0.1498 0.5705
C15C C 0.3905 0.1590 0.7120
C16C C 0.1038 0.4044 0.2877
H5C H 0.3304 0.1149 1.0262
H6C H 0.2122 0.0888 1.0574
H7C H 0.1639 0.1397 0.4735
H8C H 0.2821 0.1658 0.4423
O11 O 0.4825 -0.0157 0.6798
O12 O 0.9602 0.2361 0.1377
loop_
_geom_bond_atom_site_label_1
_geom_bond_atom_site_label_2
_geom_bond_site_symmetry_1
_geom_bond_site_symmetry_2
Fe1 O1 1_555 1_555
Fe2 O2 1_555 1_555
Fe3 O3 1_555 1_555
O1 Fe1C 1_555 1_555
O2 Fe3A 1_555 1_555
O3 C7 1_555 1_555
O4 C7 1_555 1_555
O5 Fe1 1_555 1_555
O6 Fe1 1_555 1_555
C1 C2 1_555 1_555
C2 C3 1_555 1_555
C3 C4 1_555 1_555
C4 C5 1_555 1_555
C5 C6 1_555 1_555
C6 C1 1_555 1_555
C7 C1 1_555 1_555
C8 O5 1_555 1_555
H1 C2 1_555 1_555
H2 C3 1_555 1_555
H3 C5 1_555 1_555
H4 C6 1_555 1_555
O7 Fe1 1_555 1_555
O8 Fe1 1_555 1_555
O9 C16 1_555 1_555
O10 Fe2 1_555 1_555
C9 C10 1_555 1_555
C10 C11 1_555 1_555
C11 C12 1_555 1_555
C12 C13 1_555 1_555
C13 C14 1_555 1_555
C14 C9 1_555 1_555
C15 O7 1_555 1_555
C16 O10 1_555 1_555
H5 C10 1_555 1_555
H6 C11 1_555 1_555
H7 C13 1_555 1_555
H8 C14 1_555 1_555
Fe1C O1C 1_555 1_555
Fe1C_2 O1C_2 1_555 1_555
Fe2A O4 1_555 1_555
Fe2A_2 O10C 1_555 1_555
Fe2_2 O4C_2 1_555 1_555
Fe3A_2 O9 1_555 1_555
Fe3_2 O9C_2 1_555 1_555
Fe3A_3 O3C 1_555 1_555
O1C_2 Fe1 1_555 1_555
O2A Fe3 1_555 1_555
O2B Fe2 1_555 1_555
O2C Fe3 1_555 1_555
O3B Fe3 1_555 1_555
O3C C7C 1_555 1_555
O4A Fe2 1_555 1_555
O4C Fe2 1_555 1_555
O4C_2 C7C 1_555 1_555
O5C Fe1C 1_555 1_555
O6C Fe1C 1_555 1_555
O6C_2 C8 1_555 1_555
C1C C2C 1_555 1_555
C2C C3C 1_555 1_555
C3C C4C 1_555 1_555
C4C C5C 1_555 1_555
C5C C6C 1_555 1_555
C6C C1C 1_555 1_555
C7C C1C 1_555 1_555
C8C O6 1_555 1_555
H1C C2C 1_555 1_555
H2C C3C 1_555 1_555
H3C C5C 1_555 1_555
H4C C6C 1_555 1_555
O7C Fe1C 1_555 1_555
O8C C15 1_555 1_555
O8C_2 Fe1C 1_555 1_555
O9C Fe3 1_555 1_555
O9A Fe3 1_555 1_555
O9C_2 C16C 1_555 1_555
O10B Fe2 1_555 1_555
O10C C16C 1_555 1_555
C9C C10C 1_555 1_555
C10C C11C 1_555 1_555
C11C C12C 1_555 1_555
C12C C16 1_555 1_555
C13C C12C 1_555 1_555
C14C C9C 1_555 1_555
C15C O8 1_555 1_555
C16C C12 1_555 1_555
H5C C10C 1_555 1_555
H6C C11C 1_555 1_555
H7C C13C 1_555 1_555
H8C C14C 1_555 1_555
C4 C8 1_555 1_555
C9 C15 1_555 1_555
Fe1C_2 O6C_2 1_555 1_555
Fe1C_2 O8C 1_555 1_555
Fe2A O2A 1_555 1_555
Fe3A_2 O2B 1_555 1_555
O5C C8C 1_555 1_555
C4C C8C 1_555 1_555
O7C C15C 1_555 1_555
C9C C15C 1_555 1_555
C13C C14C 1_555 1_555

#END
