
#######################################################################
#
#                 Cambridge Crystallographic Data Centre
#                                CCDC 
#
#######################################################################
#
# If this CIF has been generated from an entry in the Cambridge 
# Structural Database, then it will include bibliographic, chemical, 
# crystal, experimental, refinement or atomic coordinate data resulting 
# from the CCDC's data processing and validation procedures.
#
#######################################################################

data_POKGEC
_symmetry_cell_setting           monoclinic
_symmetry_space_group_name_H-M   'C 2/c'
_symmetry_Int_Tables_number      15
_space_group_name_Hall           '-C 2yn'
loop_
_symmetry_equiv_pos_site_id
_symmetry_equiv_pos_as_xyz
1 x,y,z
2 1/2+x,1/2+y,z
3 -x,y,1/2-z
4 1/2-x,1/2+y,1/2-z
5 -x,-y,-z
6 1/2-x,1/2-y,-z
7 x,-y,1/2+z
8 1/2+x,1/2-y,1/2+z
_cell_length_a                   19.631(4)
_cell_length_b                   21.335(4)
_cell_length_c                   16.114(3)
_cell_angle_alpha                90
_cell_angle_beta                 91.58(3)
_cell_angle_gamma                90
_cell_volume                     6746.42
loop_
_atom_site_label
_atom_site_type_symbol
_atom_site_fract_x
_atom_site_fract_y
_atom_site_fract_z
C1 C 0.7743(3) 1.2040(3) 0.7155(3)
H1 H 0.7957 1.1651 0.7153
C2 C 0.8970(2) 0.9380(2) 0.7987(3)
C3 C 0.7148(2) 0.9175(2) 1.0046(3)
C4 C 1.1142(3) 0.8271(3) 0.8605(3)
H2 H 1.1423 0.8621 0.8563
C5 C 0.8655(3) 1.2585(3) 0.7958(3)
C6 C 0.8064(3) 0.9341(2) 0.9027(3)
H3 H 0.8329 0.9051 0.9321
C7 C 0.8309(2) 0.9605(2) 0.8314(3)
C8 C 1.0294(3) 0.7644(3) 0.8476(4)
H4 H 0.9871 0.7483 0.8315
C9 C 0.9870(3) 1.2618(3) 0.8836(3)
C10 C 0.7426(3) 0.9503(2) 0.9314(3)
C11 C 0.7917(3) 1.0047(2) 0.7888(3)
H5 H 0.8078 1.0226 0.7405
C12 C 0.7291(3) 1.0222(3) 0.8174(3)
C13 C 0.7042(3) 0.9953(3) 0.8894(3)
H6 H 0.6622 1.0075 0.9092
C14 C 1.0685(3) 1.3088(3) 0.9852(3)
H7 H 1.0432 1.3449 0.9944
C15 C 1.1468(3) 1.2401(3) 0.9923(3)
H8 H 1.1868 1.2193 1.0075
C16 C 1.0997(3) 1.2190(3) 0.9357(4)
H9 H 1.1011 1.1818 0.9058
C17 C 1.1914(3) 0.7628(3) 0.9532(3)
C18 C 0.6853(3) 1.0680(3) 0.7683(3)
C19 C 0.7018(3) 1.2773(3) 0.6946(4)
H10 H 0.6628 1.2986 0.6766
C20 C 1.2247(3) 0.8102(3) 0.9967(4)
H11 H 1.2077 0.8509 0.9947
C21 C 0.7546(3) 1.3033(3) 0.7381(4)
H12 H 0.7587 1.3447 0.7556
C22 C 1.2169(3) 0.7028(3) 0.9569(4)
H13 H 1.1947 0.6708 0.9279
C23 C 1.0754(3) 0.7353(3) 0.8986(4)
H14 H 1.0708 0.6961 0.9232
C24 C 0.8938(4) 1.2056(4) 0.8257(6)
H15 H 0.8719 1.1675 0.8167
C25 C 0.9589(4) 1.3145(3) 0.8527(5)
H16 H 0.9809 1.3526 0.8618
C26 C 0.8980(4) 1.3133(4) 0.8078(6)
H17 H 0.8796 1.3502 0.7860
C27 C 0.9554(4) 1.2072(3) 0.8699(6)
H18 H 0.9746 1.1702 0.8900
N1 N 1.0547(2) 0.8216(2) 0.8231(2)
N2 N 1.1300(2) 0.7753(2) 0.9066(3)
N3 N 1.1265(2) 1.2962(2) 1.0235(3)
N4 N 1.0496(2) 1.2638(2) 0.9314(3)
N5 N 0.7141(2) 1.2156(2) 0.6813(2)
N6 N 0.8010(2) 1.2560(2) 0.7509(3)
Ni1 Ni 0.66674(3) 1.14643(3) 0.61428(3)
Ni2 Ni 1.0000 0.88340(4) 0.7500
O1 O 0.93062(17) 0.89735(17) 0.8398(2)
O2 O 0.91803(18) 0.95607(17) 0.7296(2)
O3 O 0.74952(18) 0.87616(17) 1.0406(2)
O4 O 0.65473(18) 0.92949(17) 1.0278(2)
O5 O 0.57395(18) 1.14657(17) 0.6734(2)
O6 O 0.6334(3) 1.0905(3) 0.8013(3)
O7 O 0.70435(19) 1.08166(18) 0.6977(2)
C1G C 0.2743(3) 1.2960(3) 0.2155(3)
H1G H 0.2957 1.3349 0.2153
C2B C 1.1030(2) 0.9380(2) 0.7013(3)
C3B C 1.2852(2) 0.9175(2) 0.4954(3)
C4E C 1.3858(3) 0.6729(3) 1.1395(3)
H2E H 1.3577 0.6379 1.1437
C5G C 0.3655(3) 1.2415(3) 0.2958(3)
C6B C 1.1936(3) 0.9341(2) 0.5973(3)
H3B H 1.1671 0.9051 0.5679
C7B C 1.1691(2) 0.9605(2) 0.6686(3)
C8E C 1.4706(3) 0.7356(3) 1.1524(4)
H4E H 1.5129 0.7517 1.1685
C9G C 0.4870(3) 1.2382(3) 0.3836(3)
C10B C 1.2574(3) 0.9503(2) 0.5686(3)
C11B C 1.2083(3) 1.0047(2) 0.7112(3)
H5B H 1.1922 1.0226 0.7595
C12B C 1.2709(3) 1.0222(3) 0.6826(3)
C13B C 1.2958(3) 0.9953(3) 0.6106(3)
H6B H 1.3378 1.0075 0.5908
C14G C 0.5685(3) 1.1912(3) 0.4852(3)
H7G H 0.5432 1.1551 0.4944
C15G C 0.6468(3) 1.2599(3) 0.4923(3)
H8G H 0.6868 1.2807 0.5075
C16G C 0.5997(3) 1.2810(3) 0.4357(4)
H9G H 0.6011 1.3182 0.4058
C17E C 1.3086(3) 0.7372(3) 1.0468(3)
C18B C 1.3147(3) 1.0680(3) 0.7317(3)
C19G C 0.2018(3) 1.2227(3) 0.1946(4)
H10G H 0.1628 1.2014 0.1766
C20E C 1.2753(3) 0.6898(3) 1.0033(4)
H11E H 1.2923 0.6491 1.0053
C21G C 0.2546(3) 1.1967(3) 0.2381(4)
H12G H 0.2587 1.1553 0.2556
C22E C 1.2831(3) 0.7972(3) 1.0431(4)
H13E H 1.3053 0.8292 1.0721
C23E C 1.4246(3) 0.7647(3) 1.1014(4)
H14E H 1.4292 0.8039 1.0768
C24G C 0.3938(4) 1.2944(4) 0.3257(6)
H15G H 0.3719 1.3325 0.3167
C25G C 0.4589(4) 1.1855(3) 0.3527(5)
H16G H 0.4809 1.1474 0.3618
C26G C 0.3980(4) 1.1867(4) 0.3078(6)
H17G H 0.3796 1.1498 0.2860
C27G C 0.4554(4) 1.2928(3) 0.3699(6)
H18G H 0.4746 1.3298 0.3900
N1E N 1.4453(2) 0.6784(2) 1.1769(2)
N1B N 0.9453(2) 0.8216(2) 0.6769(2)
N2E N 1.3700(2) 0.7247(2) 1.0934(3)
N3G N 0.6265(2) 1.2038(2) 0.5235(3)
N3E N 1.3735(2) 1.2038(2) 0.9765(3)
N4G N 0.5496(2) 1.2362(2) 0.4314(3)
N5G N 0.2141(2) 1.2844(2) 0.1813(2)
N5B N 1.2859(2) 1.2156(2) 0.8187(2)
N6G N 0.3010(2) 1.2440(2) 0.2509(3)
Ni1B Ni 1.33326(3) 1.14643(3) 0.88572(3)
Ni1G Ni 1.16674(3) 1.35357(3) 1.11428(3)
Ni1F Ni 0.66674(3) 0.85357(3) 1.11428(3)
Ni1D Ni 1.33326(3) 0.85357(3) 0.38572(3)
Ni1G_2 Ni 0.16674(3) 1.35357(3) 0.11428(3)
Ni2G Ni 1.5000 0.61660(4) 1.2500
O1B O 1.06938(17) 0.89735(17) 0.6602(2)
O2B O 1.08197(18) 0.95607(17) 0.7704(2)
O3B O 1.25048(18) 0.87616(17) 0.4594(2)
O3F O 0.74952(18) 1.12384(17) 0.5406(2)
O3D O 1.25048(18) 1.12384(17) 0.9594(2)
O4B O 1.34527(18) 0.92949(17) 0.4722(2)
O4F O 0.65473(18) 1.07051(17) 0.5278(2)
O4D O 1.34527(18) 1.07051(17) 0.9722(2)
O5B O 1.42605(18) 1.14657(17) 0.8266(2)
O6B O 1.3666(3) 1.0905(3) 0.6987(3)
O7B O 1.29565(19) 1.08166(18) 0.8023(2)
O8 O 0.9246(7) 0.4674(4) 0.9351(6)
O9 O 0.0317(3) 0.4217(3) 0.4097(4)
O10 O 0.5702(11) 0.4197(4) 0.3324(10)
O11 O 0.7727(10) 0.5584(7) 0.3751(9)
O12 O 0.4876(5) 0.4310(5) 0.0038(5)
loop_
_geom_bond_atom_site_label_1
_geom_bond_atom_site_label_2
_geom_bond_site_symmetry_1
_geom_bond_site_symmetry_2
C1 H1 1_555 1_555
C2 C7 1_555 1_555
C3 C10 1_555 1_555
C4 H2 1_555 1_555
C5 C24 1_555 1_555
C6 H3 1_555 1_555
C7 C6 1_555 1_555
C8 H4 1_555 1_555
C9 C25 1_555 1_555
C10 C6 1_555 1_555
C11 C7 1_555 1_555
H5 C11 1_555 1_555
C12 C11 1_555 1_555
C13 C10 1_555 1_555
H6 C13 1_555 1_555
C14 H7 1_555 1_555
C15 H8 1_555 1_555
C16 C15 1_555 1_555
H9 C16 1_555 1_555
C17 C20 1_555 1_555
C18 C12 1_555 1_555
C19 H10 1_555 1_555
C20 H11 1_555 1_555
C21 C19 1_555 1_555
H12 C21 1_555 1_555
C22 C17 1_555 1_555
H13 C22 1_555 1_555
C23 C8 1_555 1_555
H14 C23 1_555 1_555
C24 H15 1_555 1_555
C25 H16 1_555 1_555
C26 C5 1_555 1_555
H17 C26 1_555 1_555
C27 C9 1_555 1_555
H18 C27 1_555 1_555
N1 C4 1_555 1_555
N2 C4 1_555 1_555
N3 C14 1_555 1_555
N4 C9 1_555 1_555
N5 C1 1_555 1_555
N6 C1 1_555 1_555
Ni1 N5 1_555 1_555
Ni2 N1 1_555 1_555
O1 C2 1_555 1_555
O2 C2 1_555 1_555
O3 C3 1_555 1_555
O4 C3 1_555 1_555
O5 Ni1 1_555 1_555
O6 C18 1_555 1_555
O7 C18 1_555 1_555
C1G H1G 1_555 1_555
C2B C7B 1_555 1_555
C3B C10B 1_555 1_555
C4E H2E 1_555 1_555
C5G C24G 1_555 1_555
C6B H3B 1_555 1_555
C7B C6B 1_555 1_555
C8E H4E 1_555 1_555
C9G C25G 1_555 1_555
C10B C6B 1_555 1_555
C11B C7B 1_555 1_555
H5B C11B 1_555 1_555
C12B C11B 1_555 1_555
C13B C10B 1_555 1_555
H6B C13B 1_555 1_555
C14G H7G 1_555 1_555
C15G H8G 1_555 1_555
C16G C15G 1_555 1_555
H9G C16G 1_555 1_555
C17E C20E 1_555 1_555
C18B C12B 1_555 1_555
C19G H10G 1_555 1_555
C20E C22 1_555 1_555
H11E C20E 1_555 1_555
C21G C19G 1_555 1_555
H12G C21G 1_555 1_555
C22E C20 1_555 1_555
H13E C22E 1_555 1_555
C23E C8E 1_555 1_555
H14E C23E 1_555 1_555
C24G H15G 1_555 1_555
C25G H16G 1_555 1_555
C26G C5G 1_555 1_555
H17G C26G 1_555 1_555
C27G C9G 1_555 1_555
H18G C27G 1_555 1_555
N1E C4E 1_555 1_555
N1B Ni2 1_555 1_555
N2E C4E 1_555 1_555
N3G Ni1 1_555 1_555
N3E Ni1B 1_555 1_555
N4G C9G 1_555 1_555
N5G C1G 1_555 1_555
N5B Ni1B 1_555 1_555
N6G C1G 1_555 1_555
Ni1B O3D 1_555 1_555
Ni1G N3 1_555 1_555
Ni1F O3 1_555 1_555
Ni1D O3B 1_555 1_555
Ni1G_2 N5G 1_555 1_555
Ni2G N1E 1_555 1_555
O1B Ni2 1_555 1_555
O2B Ni2 1_555 1_555
O3B C3B 1_555 1_555
O3F Ni1 1_555 1_555
O4B C3B 1_555 1_555
O4F Ni1 1_555 1_555
O4D Ni1B 1_555 1_555
O5B Ni1B 1_555 1_555
O6B C18B 1_555 1_555
O7B C18B 1_555 1_555
C5 N6 1_555 1_555
C8 N1 1_555 1_555
C12 C13 1_555 1_555
C14 N4 1_555 1_555
C15 N3 1_555 1_555
C16 N4 1_555 1_555
C17 N2 1_555 1_555
C19 N5 1_555 1_555
C21 N6 1_555 1_555
C23 N2 1_555 1_555
C24 C27 1_555 1_555
C25 C26 1_555 1_555
Ni1 O7 1_555 1_555
Ni2 O1 1_555 1_555
Ni2 O2 1_555 1_555
O4 Ni1F 1_555 1_555
C2B O1B 1_555 1_555
C2B O2B 1_555 1_555
C5G N6G 1_555 1_555
C8E N1E 1_555 1_555
C12B C13B 1_555 1_555
C14G N3G 1_555 1_555
C14G N4G 1_555 1_555
C15G N3G 1_555 1_555
C16G N4G 1_555 1_555
C17E C22E 1_555 1_555
C17E N2E 1_555 1_555
C19G N5G 1_555 1_555
C21G N6G 1_555 1_555
C23E N2E 1_555 1_555
C24G C27G 1_555 1_555
C25G C26G 1_555 1_555
Ni1B O7B 1_555 1_555
Ni1D O4B 1_555 1_555

#END
