
#######################################################################
#
#                 Cambridge Crystallographic Data Centre
#                                CCDC 
#
#######################################################################
#
# If this CIF has been generated from an entry in the Cambridge 
# Structural Database, then it will include bibliographic, chemical, 
# crystal, experimental, refinement or atomic coordinate data resulting 
# from the CCDC's data processing and validation procedures.
#
#######################################################################

data_POKSAL
_symmetry_cell_setting           monoclinic
_symmetry_space_group_name_H-M   'P 21/c'
_symmetry_Int_Tables_number      14
_space_group_name_Hall           '-P 2ybc'
loop_
_symmetry_equiv_pos_site_id
_symmetry_equiv_pos_as_xyz
1 x,y,z
2 -x,1/2+y,1/2-z
3 -x,-y,-z
4 x,1/2-y,1/2+z
_cell_length_a                   6.0214(8)
_cell_length_b                   23.592(3)
_cell_length_c                   13.3244(16)
_cell_angle_alpha                90
_cell_angle_beta                 112.782(5)
_cell_angle_gamma                90
_cell_volume                     1745.15
loop_
_atom_site_label
_atom_site_type_symbol
_atom_site_fract_x
_atom_site_fract_y
_atom_site_fract_z
Cu1 Cu 0.0000 0.5000 0.0000
Yb1 Yb 0.90236(3) 0.672177(8) 0.390211(15)
N1 N 0.2219(8) 0.55931(17) -0.0134(3)
N2 N 0.5776(9) 0.63935(18) 0.0124(4)
N3 N 0.5307(7) 0.71226(16) 0.2299(3)
N4 N 0.1849(7) 0.75749(17) 0.0404(3)
O1 O 0.9147(7) 0.62400(18) 0.2514(3)
O2 O 1.0124(7) 0.56026(18) 0.1527(3)
O3 O 0.6375(8) 0.50483(17) 0.2326(3)
O4 O 0.2915(6) 0.47055(14) 0.1140(3)
O5 O 0.9784(7) 0.74956(15) 0.3101(3)
O6 O 0.8762(8) 0.82521(15) 0.2034(4)
O7 O 0.6701(6) 0.79358(15) -0.0223(3)
O8 O 0.3149(7) 0.83704(15) -0.0694(3)
O9 O 1.0446(9) 0.6214(2) 0.5487(4)
H1 H 1.1254 0.6192 0.6166
H2 H 0.9618 0.5908 0.5293
O10 O 0.6204(7) 0.60029(16) 0.3595(3)
H3 H 0.6272 0.5813 0.3066
H4 H 0.4945 0.5900 0.3689
C1 C 0.8676(9) 0.5919(2) 0.1687(4)
C2 C 0.6160(9) 0.5957(2) 0.0816(4)
C3 C 0.3608(10) 0.6421(2) -0.0710(5)
H5 H 0.3294 0.6715 -0.1212
C4 C 0.1833(11) 0.6019(2) -0.0831(4)
H6 H 0.0351 0.6048 -0.1412
C5 C 0.4379(9) 0.5558(2) 0.0708(4)
C6 C 0.4621(9) 0.5073(2) 0.1465(4)
C7 C 0.8350(9) 0.7783(2) 0.2314(4)
C8 C 0.5874(9) 0.7525(2) 0.1729(4)
C9 C 0.3017(9) 0.6940(2) 0.1908(4)
H7 H 0.2586 0.6644 0.2256
C10 C 0.1285(9) 0.7185(2) 0.0994(4)
H8 H -0.0315 0.7074 0.0785
C11 C 0.4204(9) 0.7703(2) 0.0731(4)
C12 C 0.4750(8) 0.80351(19) -0.0114(4)
Yb1B Yb -0.90236(3) 0.327823(8) -0.390211(15)
N1B N -0.2219(8) 0.44069(17) 0.0134(3)
N2B N -0.5776(9) 0.36065(18) -0.0124(4)
N3B N -0.5307(7) 0.28774(16) -0.2299(3)
N4B N -0.1849(7) 0.24251(17) -0.0404(3)
O1B O -0.9147(7) 0.37600(18) -0.2514(3)
O2B O -1.0124(7) 0.43974(18) -0.1527(3)
O3B O -0.6375(8) 0.49517(17) -0.2326(3)
O4B O -0.2915(6) 0.52945(14) -0.1140(3)
O5B O -0.9784(7) 0.25044(15) -0.3101(3)
O6B O -0.8762(8) 0.17479(15) -0.2034(4)
O7B O -0.6701(6) 0.20642(15) 0.0223(3)
O8B O -0.3149(7) 0.16296(15) 0.0694(3)
O9B O -1.0446(9) 0.3786(2) -0.5487(4)
H1B H -1.1254 0.3808 -0.6166
H2B H -0.9618 0.4092 -0.5293
O10B O -0.6204(7) 0.39971(16) -0.3595(3)
H3B H -0.6272 0.4187 -0.3066
H4B H -0.4945 0.4100 -0.3689
C1B C -0.8676(9) 0.4081(2) -0.1687(4)
C2B C -0.6160(9) 0.4043(2) -0.0816(4)
C3B C -0.3608(10) 0.3579(2) 0.0710(5)
H5B H -0.3294 0.3285 0.1212
C4B C -0.1833(11) 0.3981(2) 0.0831(4)
H6B H -0.0351 0.3952 0.1412
C5B C -0.4379(9) 0.4442(2) -0.0708(4)
C6B C -0.4621(9) 0.4927(2) -0.1465(4)
C7B C -0.8350(9) 0.2217(2) -0.2314(4)
C8B C -0.5874(9) 0.2475(2) -0.1729(4)
C9B C -0.3017(9) 0.3060(2) -0.1908(4)
H7B H -0.2586 0.3356 -0.2256
C10B C -0.1285(9) 0.2815(2) -0.0994(4)
H8B H 0.0315 0.2926 -0.0785
C11B C -0.4204(9) 0.2297(2) -0.0731(4)
C12B C -0.4750(8) 0.19649(19) 0.0114(4)
Cu1_2 Cu -1.0000 0.5000 0.0000
Cu1_3 Cu 1.0000 0.5000 0.0000
Yb1A Yb -0.90236(3) 0.172177(8) 0.109789(15)
Yb1A_2 Yb 0.09764(3) 0.172177(8) 0.109789(15)
Yb1C Yb -0.09764(3) 0.827823(8) -0.109789(15)
Yb1C_2 Yb 0.90236(3) 0.827823(8) -0.109789(15)
N4A N -1.1849(7) 0.25749(17) -0.5404(3)
N4C N 1.1849(7) 0.74251(17) 0.5404(3)
O2_2 O 0.0124(7) 0.56026(18) 0.1527(3)
O2B_2 O -0.0124(7) 0.43974(18) -0.1527(3)
O7A O -0.6701(6) 0.29358(15) -0.4777(3)
O7C O 0.6701(6) 0.70642(15) 0.4777(3)
O8A O -1.3149(7) 0.33704(15) -0.4306(3)
O8C O 1.3149(7) 0.66296(15) 0.4306(3)
O11 O 0.4910(13) 0.9027(4) 0.1776(7)
H9 H 0.6138 0.8844 0.2249
H10 H 0.4802 0.8903 0.1155
O12 O 0.251(5) 0.4951(11) 0.4073(19)
H11 H 0.2887 0.4766 0.3494
H12 H 0.1182 0.5143 0.3529
loop_
_geom_bond_atom_site_label_1
_geom_bond_atom_site_label_2
_geom_bond_site_symmetry_1
_geom_bond_site_symmetry_2
Cu1 N1 1_555 1_555
Yb1 N3 1_555 1_555
N1 C4 1_555 1_555
N2 C2 1_555 1_555
N3 C8 1_555 1_555
N4 C10 1_555 1_555
O1 Yb1 1_555 1_555
O2 C1 1_555 1_555
O3 C6 1_555 1_555
O4 Cu1 1_555 1_555
O5 Yb1 1_555 1_555
O6 C7 1_555 1_555
O7 C12 1_555 1_555
O8 C12 1_555 1_555
O9 Yb1 1_555 1_555
H1 O9 1_555 1_555
H2 O9 1_555 1_555
O10 Yb1 1_555 1_555
H3 O10 1_555 1_555
H4 O10 1_555 1_555
C1 O1 1_555 1_555
C2 C1 1_555 1_555
C3 N2 1_555 1_555
H5 C3 1_555 1_555
C4 C3 1_555 1_555
H6 C4 1_555 1_555
C5 N1 1_555 1_555
C6 O4 1_555 1_555
C7 O5 1_555 1_555
C8 C7 1_555 1_555
C9 N3 1_555 1_555
H7 C9 1_555 1_555
C10 C9 1_555 1_555
H8 C10 1_555 1_555
C11 N4 1_555 1_555
C12 C11 1_555 1_555
O11 H9 1_555 1_555
H10 O11 1_555 1_555
O12 H11 1_555 1_555
H12 O12 1_555 1_555
Yb1B N3B 1_555 1_555
N1B Cu1 1_555 1_555
N2B C2B 1_555 1_555
N3B C8B 1_555 1_555
N4B C10B 1_555 1_555
O1B Yb1B 1_555 1_555
O2B C1B 1_555 1_555
O3B C6B 1_555 1_555
O4B Cu1 1_555 1_555
O5B Yb1B 1_555 1_555
O6B C7B 1_555 1_555
O7B C12B 1_555 1_555
O8B C12B 1_555 1_555
O9B Yb1B 1_555 1_555
H1B O9B 1_555 1_555
H2B O9B 1_555 1_555
O10B Yb1B 1_555 1_555
H3B O10B 1_555 1_555
H4B O10B 1_555 1_555
C1B O1B 1_555 1_555
C2B C1B 1_555 1_555
C3B N2B 1_555 1_555
H5B C3B 1_555 1_555
C4B N1B 1_555 1_555
H6B C4B 1_555 1_555
C5B N1B 1_555 1_555
C6B O4B 1_555 1_555
C7B O5B 1_555 1_555
C8B C7B 1_555 1_555
C9B N3B 1_555 1_555
H7B C9B 1_555 1_555
C10B C9B 1_555 1_555
H8B C10B 1_555 1_555
C11B N4B 1_555 1_555
C12B C11B 1_555 1_555
Cu1_2 O2B 1_555 1_555
Cu1_3 O2 1_555 1_555
Yb1A O7B 1_555 1_555
Yb1A_2 N4B 1_555 1_555
Yb1C N4 1_555 1_555
Yb1C_2 O7 1_555 1_555
N4A Yb1B 1_555 1_555
N4C Yb1 1_555 1_555
O2_2 Cu1 1_555 1_555
O2B_2 Cu1 1_555 1_555
O7A Yb1B 1_555 1_555
O7C Yb1 1_555 1_555
O8A Yb1B 1_555 1_555
O8C Yb1 1_555 1_555
O8 Yb1C 1_555 1_555
C2 C5 1_555 1_555
C5 C6 1_555 1_555
C8 C11 1_555 1_555
O8B Yb1A_2 1_555 1_555
C2B C5B 1_555 1_555
C3B C4B 1_555 1_555
C5B C6B 1_555 1_555
C8B C11B 1_555 1_555

#END
