
#######################################################################
#
#                 Cambridge Crystallographic Data Centre
#                                CCDC 
#
#######################################################################
#
# If this CIF has been generated from an entry in the Cambridge 
# Structural Database, then it will include bibliographic, chemical, 
# crystal, experimental, refinement or atomic coordinate data resulting 
# from the CCDC's data processing and validation procedures.
#
#######################################################################

data_POKXIX
_symmetry_cell_setting           monoclinic
_symmetry_space_group_name_H-M   'P 21/c'
_symmetry_Int_Tables_number      14
_space_group_name_Hall           '-P 2ybc'
loop_
_symmetry_equiv_pos_site_id
_symmetry_equiv_pos_as_xyz
1 x,y,z
2 -x,1/2+y,1/2-z
3 -x,-y,-z
4 x,1/2-y,1/2+z
_cell_length_a                   18.0451(8)
_cell_length_b                   21.0177(10)
_cell_length_c                   7.0816(3)
_cell_angle_alpha                90
_cell_angle_beta                 91.869(3)
_cell_angle_gamma                90
_cell_volume                     2684.38
loop_
_atom_site_label
_atom_site_type_symbol
_atom_site_fract_x
_atom_site_fract_y
_atom_site_fract_z
K1 K 0.10734(6) 0.33442(5) 0.60757(15)
K2 K 0.39660(6) 0.33431(5) 0.62552(14)
K3 K 0.25174(5) 0.23166(5) 0.48767(14)
O1 O 0.25215(19) 0.34949(16) 0.6946(5)
O2 O 0.35863(18) 0.28350(16) 0.2780(5)
O3 O 0.14487(18) 0.28186(16) 0.2652(5)
O4 O 0.0266(2) 0.43704(17) 0.5094(6)
O5 O 0.47249(19) 0.44230(16) 0.5739(5)
Cl1 Cl 0.25872(8) 0.61814(6) 0.4582(2)
Cl2 Cl 0.63583(10) 0.38197(11) -0.0237(2)
Cl3 Cl -0.12700(9) 0.39472(11) -0.0700(2)
C1 C 0.2534(3) 0.4097(2) 0.6414(7)
C2 C 0.2673(3) 0.4269(2) 0.4534(7)
H1 H 0.2756 0.3946 0.3626
C3 C 0.2689(3) 0.4909(3) 0.3986(8)
H2 H 0.2789 0.5017 0.2717
C4 C 0.2561(3) 0.5380(2) 0.5270(8)
C5 C 0.2418(3) 0.5235(2) 0.7115(8)
H3 H 0.2328 0.5565 0.7996
C6 C 0.2405(3) 0.4599(2) 0.7683(7)
H4 H 0.2306 0.4502 0.8960
C7 C 0.4200(3) 0.3072(2) 0.2146(7)
C8 C 0.4213(3) 0.3591(2) 0.0878(7)
H5 H 0.3759 0.3789 0.0496
C9 C 0.4874(3) 0.3818(3) 0.0176(7)
H6 H 0.4866 0.4165 -0.0683
C10 C 0.5541(3) 0.3541(3) 0.0724(8)
C11 C 0.5560(3) 0.3051(3) 0.2001(7)
H7 H 0.6021 0.2870 0.2402
C12 C 0.4906(3) 0.2817(2) 0.2707(7)
H8 H 0.4928 0.2478 0.3593
C13 C 0.0845(3) 0.3076(2) 0.1910(6)
C14 C 0.0862(3) 0.3607(2) 0.0682(7)
H9 H 0.1328 0.3785 0.0381
C15 C 0.0219(3) 0.3874(3) -0.0093(7)
H10 H 0.0247 0.4232 -0.0907
C16 C -0.0459(3) 0.3620(3) 0.0318(8)
C17 C -0.0509(3) 0.3109(3) 0.1549(8)
H11 H -0.0980 0.2942 0.1848
C18 C 0.0130(3) 0.2845(3) 0.2338(7)
H12 H 0.0090 0.2499 0.3192
C19 C -0.0509(3) 0.4502(3) 0.4798(8)
H13 H -0.0806 0.4157 0.5353
H14 H -0.0633 0.4522 0.3427
C20 C 0.0693(3) 0.4869(3) 0.4282(9)
H15 H 0.0580 0.4893 0.2906
H16 H 0.1228 0.4777 0.4472
C21 C 0.4468(3) 0.5032(3) 0.6382(8)
H17 H 0.4770 0.5168 0.7503
H18 H 0.3946 0.4996 0.6756
C22 C 0.5474(3) 0.4480(3) 0.5154(8)
H19 H 0.5647 0.4063 0.4688
H20 H 0.5798 0.4604 0.6248
K1C K 0.10734(6) 0.16558(5) 1.10757(15)
K1C_2 K 0.10734(6) 0.16558(5) 0.10757(15)
K1B K -0.10734(6) 0.66558(5) 0.39243(15)
K2C K 0.39660(6) 0.16569(5) 0.12552(14)
K2B K 0.60340(6) 0.66569(5) 0.37448(14)
K2C_2 K 0.39660(6) 0.16569(5) 1.12552(14)
K3C K 0.25174(5) 0.26834(5) 0.98767(14)
K3C_2 K 0.25174(5) 0.26834(5) -0.01233(14)
O1C O 0.25215(19) 0.15051(16) 0.1946(5)
O1C_2 O 0.25215(19) 0.15051(16) 1.1946(5)
O2C O 0.35863(18) 0.21650(16) 0.7780(5)
O2_2 O 0.35863(18) 0.28350(16) 1.2780(5)
O2C_2 O 0.35863(18) 0.21650(16) -0.2220(5)
O3C O 0.14487(18) 0.21814(16) 0.7652(5)
O3_2 O 0.14487(18) 0.28186(16) 1.2652(5)
O4B O -0.0266(2) 0.56296(17) 0.4906(6)
O4C O 0.0266(2) 0.06296(17) 1.0094(6)
O5B O 0.52751(19) 0.55770(16) 0.4261(5)
O5C O 0.47249(19) 0.05770(16) 0.0739(5)
Cl1C Cl 0.25872(8) -0.11814(6) -0.0418(2)
Cl2C Cl 0.63583(10) 0.11803(11) 0.4763(2)
Cl3C Cl -0.12700(9) 0.10528(11) 0.4300(2)
C1C C 0.2534(3) 0.0903(2) 0.1414(7)
C2C C 0.2673(3) 0.0731(2) -0.0466(7)
H1C H 0.2756 0.1054 -0.1374
C3C C 0.2689(3) 0.0091(3) -0.1014(8)
H2C H 0.2789 -0.0017 -0.2283
C4C C 0.2561(3) -0.0380(2) 0.0270(8)
C5C C 0.2418(3) -0.0235(2) 0.2115(8)
H3C H 0.2328 -0.0565 0.2996
C6C C 0.2405(3) 0.0401(2) 0.2683(7)
H4C H 0.2306 0.0498 0.3960
C7C C 0.4200(3) 0.1928(2) 0.7146(7)
C8C C 0.4213(3) 0.1409(2) 0.5878(7)
H5C H 0.3759 0.1211 0.5496
C9C C 0.4874(3) 0.1182(3) 0.5176(7)
H6C H 0.4866 0.0835 0.4317
C10C C 0.5541(3) 0.1459(3) 0.5724(8)
C11C C 0.5560(3) 0.1949(3) 0.7001(7)
H7C H 0.6021 0.2130 0.7402
C12C C 0.4906(3) 0.2183(2) 0.7707(7)
H8C H 0.4928 0.2522 0.8593
C13C C 0.0845(3) 0.1924(2) 0.6910(6)
C14C C 0.0862(3) 0.1393(2) 0.5682(7)
H9C H 0.1328 0.1215 0.5381
C15C C 0.0219(3) 0.1126(3) 0.4907(7)
H10C H 0.0247 0.0768 0.4093
C16C C -0.0459(3) 0.1380(3) 0.5318(8)
C17C C -0.0509(3) 0.1891(3) 0.6549(8)
H11C H -0.0980 0.2058 0.6848
C18C C 0.0130(3) 0.2155(3) 0.7338(7)
H12C H 0.0090 0.2501 0.8192
C19B C 0.0509(3) 0.5498(3) 0.5202(8)
H13B H 0.0806 0.5843 0.4647
H14B H 0.0633 0.5478 0.6573
C20B C -0.0693(3) 0.5131(3) 0.5718(9)
H15B H -0.0580 0.5107 0.7094
H16B H -0.1228 0.5223 0.5528
C21B C 0.5532(3) 0.4968(3) 0.3618(8)
H17B H 0.5230 0.4832 0.2497
H18B H 0.6054 0.5004 0.3244
C22B C 0.4526(3) 0.5520(3) 0.4846(8)
H19B H 0.4353 0.5937 0.5312
H20B H 0.4202 0.5396 0.3752
loop_
_geom_bond_atom_site_label_1
_geom_bond_atom_site_label_2
_geom_bond_site_symmetry_1
_geom_bond_site_symmetry_2
K1 O1 1_555 1_555
K2 O1 1_555 1_555
K3 O1 1_555 1_555
O1 C1 1_555 1_555
O2 K2 1_555 1_555
O3 K1 1_555 1_555
O4 K1 1_555 1_555
O5 K2 1_555 1_555
Cl1 C4 1_555 1_555
Cl2 C10 1_555 1_555
Cl3 C16 1_555 1_555
C1 C2 1_555 1_555
C2 H1 1_555 1_555
C3 C2 1_555 1_555
H2 C3 1_555 1_555
C4 C3 1_555 1_555
C5 C4 1_555 1_555
H3 C5 1_555 1_555
C6 C1 1_555 1_555
H4 C6 1_555 1_555
C7 O2 1_555 1_555
C8 C7 1_555 1_555
H5 C8 1_555 1_555
C9 C8 1_555 1_555
H6 C9 1_555 1_555
C10 C9 1_555 1_555
C11 C10 1_555 1_555
H7 C11 1_555 1_555
C12 C7 1_555 1_555
H8 C12 1_555 1_555
C13 O3 1_555 1_555
C14 C13 1_555 1_555
H9 C14 1_555 1_555
C15 C14 1_555 1_555
H10 C15 1_555 1_555
C16 C15 1_555 1_555
C17 C16 1_555 1_555
H11 C17 1_555 1_555
C18 C13 1_555 1_555
H12 C18 1_555 1_555
C19 O4 1_555 1_555
H13 C19 1_555 1_555
H14 C19 1_555 1_555
C20 O4 1_555 1_555
H15 C20 1_555 1_555
H16 C20 1_555 1_555
C21 O5 1_555 1_555
H17 C21 1_555 1_555
H18 C21 1_555 1_555
C22 O5 1_555 1_555
H19 C22 1_555 1_555
H20 C22 1_555 1_555
K1C O1C_2 1_555 1_555
K1C_2 O3 1_555 1_555
K1B O4B 1_555 1_555
K2C O2 1_555 1_555
K2B O5B 1_555 1_555
K2C_2 O1C_2 1_555 1_555
K3C O1 1_555 1_555
K3C_2 O2 1_555 1_555
O1C K3 1_555 1_555
O1C_2 K3C 1_555 1_555
O2C K2 1_555 1_555
O2_2 K2C_2 1_555 1_555
O2C_2 K2C 1_555 1_555
O3C K1 1_555 1_555
O3_2 K1C 1_555 1_555
O4B C19B 1_555 1_555
O4C K1C 1_555 1_555
O5B C21B 1_555 1_555
O5C K2C 1_555 1_555
Cl1C C4C 1_555 1_555
Cl2C C10C 1_555 1_555
Cl3C C16C 1_555 1_555
C1C O1C 1_555 1_555
C2C C1C 1_555 1_555
H1C C2C 1_555 1_555
C3C C2C 1_555 1_555
H2C C3C 1_555 1_555
C4C C3C 1_555 1_555
C5C C4C 1_555 1_555
H3C C5C 1_555 1_555
C6C C1C 1_555 1_555
H4C C6C 1_555 1_555
C7C O2C 1_555 1_555
C8C C7C 1_555 1_555
H5C C8C 1_555 1_555
C9C C8C 1_555 1_555
H6C C9C 1_555 1_555
C10C C9C 1_555 1_555
C11C C10C 1_555 1_555
H7C C11C 1_555 1_555
C12C C7C 1_555 1_555
H8C C12C 1_555 1_555
C13C O3C 1_555 1_555
C14C C13C 1_555 1_555
H9C C14C 1_555 1_555
C15C C14C 1_555 1_555
H10C C15C 1_555 1_555
C16C C15C 1_555 1_555
C17C C16C 1_555 1_555
H11C C17C 1_555 1_555
C18C C13C 1_555 1_555
H12C C18C 1_555 1_555
C19B C20 1_555 1_555
H13B C19B 1_555 1_555
H14B C19B 1_555 1_555
C20B C19 1_555 1_555
H15B C20B 1_555 1_555
H16B C20B 1_555 1_555
C21B C22 1_555 1_555
H17B C21B 1_555 1_555
H18B C21B 1_555 1_555
C22B C21 1_555 1_555
H19B C22B 1_555 1_555
H20B C22B 1_555 1_555
K3 O2 1_555 1_555
K3 O3 1_555 1_555
K3 O2C 1_555 1_555
K3 O3C 1_555 1_555
O3 K3C_2 1_555 1_555
C5 C6 1_555 1_555
C11 C12 1_555 1_555
C17 C18 1_555 1_555
K1C O3C 1_555 1_555
K1C_2 O1C 1_555 1_555
K2C O1C 1_555 1_555
K2C_2 O2C 1_555 1_555
K3C O2C 1_555 1_555
K3C O2_2 1_555 1_555
K3C O3C 1_555 1_555
K3C O3_2 1_555 1_555
K3C_2 O1C 1_555 1_555
K3C_2 O2C_2 1_555 1_555
O4B C20B 1_555 1_555
O5B C22B 1_555 1_555
C5C C6C 1_555 1_555
C11C C12C 1_555 1_555
C17C C18C 1_555 1_555

#END
