
#######################################################################
#
#                 Cambridge Crystallographic Data Centre
#                                CCDC 
#
#######################################################################
#
# If this CIF has been generated from an entry in the Cambridge 
# Structural Database, then it will include bibliographic, chemical, 
# crystal, experimental, refinement or atomic coordinate data resulting 
# from the CCDC's data processing and validation procedures.
#
#######################################################################

data_POLYEW
_symmetry_cell_setting           monoclinic
_symmetry_space_group_name_H-M   'C 2/c'
_symmetry_Int_Tables_number      15
_space_group_name_Hall           '-C 2yn'
loop_
_symmetry_equiv_pos_site_id
_symmetry_equiv_pos_as_xyz
1 x,y,z
2 -x,y,1/2-z
3 1/2+x,1/2+y,z
4 1/2-x,1/2+y,1/2-z
5 -x,-y,-z
6 x,-y,1/2+z
7 1/2-x,1/2-y,-z
8 1/2+x,1/2-y,1/2+z
_cell_length_a                   15.281(3)
_cell_length_b                   21.460(4)
_cell_length_c                   15.867(3)
_cell_angle_alpha                90
_cell_angle_beta                 94.63(3)
_cell_angle_gamma                90
_cell_volume                     5186.29
loop_
_atom_site_label
_atom_site_type_symbol
_atom_site_fract_x
_atom_site_fract_y
_atom_site_fract_z
Zn1 Zn 0.93239(3) 0.49519(2) 0.56078(3)
N1 N 0.8346(3) 0.4814(3) 0.6392(2)
O1 O 0.8925(2) 0.57676(15) 0.5028(2)
O2 O 0.9963(2) 0.58345(17) 0.4116(2)
O3 O 0.6240(2) 0.94953(17) 0.04128(19)
O4 O 0.5223(2) 0.95540(17) 0.1338(2)
C1 C 0.7537(3) 0.4998(3) 0.6128(3)
H1 H 0.7429 0.5145 0.5572
C2 C 0.6851(4) 0.4981(4) 0.6646(4)
H2 H 0.6285 0.5108 0.6437
C3 C 0.7001(4) 0.4774(5) 0.7483(4)
C4 C 0.7846(3) 0.4638(3) 0.7751(3)
H3 H 0.7993 0.4531 0.8319
C5 C 0.8484(3) 0.4658(3) 0.7192(3)
H4 H 0.9060 0.4553 0.7395
C6 C 0.6286(4) 0.4816(5) 0.8051(4)
H5 H 0.5711 0.4797 0.7793
C7 C 0.6359(3) 0.4876(3) 0.8852(3)
H6 H 0.6935 0.4880 0.9109
C8 C 0.5644(3) 0.4941(3) 0.9434(3)
C9 C 0.5203(4) 0.5505(4) 0.9491(4)
C10 C 0.5449(4) 0.4438(4) 0.9936(4)
C11 C 0.5405(6) 0.6062(4) 0.8953(6)
H7 H 0.5914 0.5972 0.8646
H8 H 0.5526 0.6421 0.9314
H9 H 0.4904 0.6150 0.8556
C12 C 0.5934(6) 0.3824(4) 0.9889(6)
H10 H 0.6237 0.3811 0.9376
H11 H 0.5518 0.3482 0.9887
H12 H 0.6358 0.3784 1.0376
C13 C 0.8859(3) 0.6603(2) 0.4053(3)
C14 C 0.8055(3) 0.6794(2) 0.4271(3)
H13 H 0.7796 0.6591 0.4712
C15 C 0.7618(3) 0.7281(2) 0.3852(3)
H14 H 0.7060 0.7397 0.4007
C16 C 0.7984(3) 0.7603(3) 0.3206(3)
C17 C 0.8839(4) 0.7439(3) 0.3045(4)
H15 H 0.9129 0.7671 0.2649
C18 C 0.9263(4) 0.6948(3) 0.3450(4)
H16 H 0.9834 0.6843 0.3320
C19 C 0.7478(3) 0.8080(3) 0.2699(3)
C20 C 0.6780(3) 0.8410(3) 0.2999(3)
H17 H 0.6649 0.8352 0.3562
C21 C 0.6280(3) 0.8816(2) 0.2495(3)
H18 H 0.5801 0.9020 0.2711
C22 C 0.6477(3) 0.8927(2) 0.1670(3)
C23 C 0.7190(4) 0.8622(3) 0.1372(3)
H19 H 0.7340 0.8698 0.0818
C24 C 0.7677(4) 0.8212(3) 0.1875(4)
H20 H 0.8160 0.8013 0.1659
C25 C 0.9284(3) 0.6026(2) 0.4434(3)
C26 C 0.5938(3) 0.9357(2) 0.1096(3)
N1D N 0.1654(3) 0.5186(3) 1.3608(2)
C1D C 0.2463(3) 0.5002(3) 1.3872(3)
H1D H 0.2571 0.4855 1.4428
C2D C 0.3149(4) 0.5019(4) 1.3354(4)
H2D H 0.3715 0.4892 1.3563
C3D C 0.2999(4) 0.5226(5) 1.2517(4)
C4D C 0.2154(3) 0.5362(3) 1.2249(3)
H3D H 0.2007 0.5469 1.1681
C5D C 0.1516(3) 0.5342(3) 1.2808(3)
H4D H 0.0940 0.5447 1.2605
C6D C 0.3714(4) 0.5184(5) 1.1949(4)
H5D H 0.4289 0.5203 1.2207
C7D C 0.3641(3) 0.5124(3) 1.1148(3)
H6D H 0.3065 0.5120 1.0891
C8D C 0.4356(3) 0.5059(3) 1.0566(3)
C9D C 0.4797(4) 0.4495(4) 1.0509(4)
C10D C 0.4551(4) 0.5562(4) 1.0064(4)
C11D C 0.4595(6) 0.3938(4) 1.1047(6)
H7D H 0.4086 0.4028 1.1354
H8D H 0.4474 0.3579 1.0686
H9D H 0.5096 0.3850 1.1444
C12D C 0.4066(6) 0.6176(4) 1.0111(6)
H10D H 0.3763 0.6189 1.0624
H11D H 0.4482 0.6518 1.0113
H12D H 0.3642 0.6216 0.9624
Zn1D Zn 0.06761(3) 0.50481(2) 1.43922(3)
O1D O 0.1075(2) 0.42324(15) 1.4972(2)
O2D O 0.0037(2) 0.41655(17) 1.5884(2)
O3D O 0.3760(2) 0.05047(17) 1.95872(19)
O4D O 0.4777(2) 0.04460(17) 1.8662(2)
C13D C 0.1141(3) 0.3397(2) 1.5947(3)
C14D C 0.1945(3) 0.3206(2) 1.5729(3)
H13D H 0.2204 0.3409 1.5288
C15D C 0.2382(3) 0.2719(2) 1.6148(3)
H14D H 0.2940 0.2603 1.5993
C16D C 0.2016(3) 0.2397(3) 1.6794(3)
C17D C 0.1161(4) 0.2561(3) 1.6955(4)
H15D H 0.0871 0.2329 1.7351
C18D C 0.0737(4) 0.3052(3) 1.6550(4)
H16D H 0.0166 0.3157 1.6680
C19D C 0.2522(3) 0.1920(3) 1.7301(3)
C20D C 0.3220(3) 0.1590(3) 1.7001(3)
H17D H 0.3351 0.1648 1.6438
C21D C 0.3720(3) 0.1184(2) 1.7505(3)
H18D H 0.4199 0.0980 1.7289
C22D C 0.3523(3) 0.1073(2) 1.8330(3)
C23D C 0.2810(4) 0.1378(3) 1.8628(3)
H19D H 0.2660 0.1302 1.9182
C24D C 0.2323(4) 0.1788(3) 1.8125(4)
H20D H 0.1840 0.1987 1.8341
C25D C 0.0716(3) 0.3974(2) 1.5566(3)
C26D C 0.4062(3) 0.0643(2) 1.8904(3)
Zn1_2 Zn -0.06761(3) 0.49519(2) 1.56078(3)
Zn1C Zn 0.56761(3) -0.00481(2) 1.93922(3)
Zn1C_2 Zn 0.56761(3) 0.99519(2) -0.06078(3)
Zn1D_2 Zn 1.06761(3) 0.50481(2) 0.43922(3)
Zn1G Zn 0.43239(3) 0.00481(2) 2.06078(3)
Zn1G_2 Zn 0.43239(3) 1.00481(2) 0.06078(3)
O2_2 O -0.0037(2) 0.58345(17) 1.4116(2)
O2D_2 O 1.0037(2) 0.41655(17) 0.5884(2)
O3C O 0.8760(2) 0.44953(17) 0.45872(19)
O3G O 0.1240(2) 0.55047(17) 1.54128(19)
O4C O -0.0223(2) 0.45540(17) 1.3662(2)
O4G O 1.0223(2) 0.54460(17) 0.6338(2)
C27 C 0.3133(19) 0.2927(18) 0.952(3)
H21 H 0.3357 0.2786 0.8998
H22 H 0.3338 0.2651 0.9977
H23 H 0.3340 0.3347 0.9645
C28 C 0.2147(19) 0.2924(19) 0.942(3)
N2 N 0.145(2) 0.3055(16) 0.932(2)
loop_
_geom_bond_atom_site_label_1
_geom_bond_atom_site_label_2
_geom_bond_site_symmetry_1
_geom_bond_site_symmetry_2
Zn1 N1 1_555 1_555
N1 C1 1_555 1_555
O1 Zn1 1_555 1_555
O2 C25 1_555 1_555
O3 C26 1_555 1_555
O4 C26 1_555 1_555
C1 H1 1_555 1_555
C2 C1 1_555 1_555
H2 C2 1_555 1_555
C3 C2 1_555 1_555
C4 C3 1_555 1_555
H3 C4 1_555 1_555
C5 N1 1_555 1_555
H4 C5 1_555 1_555
C6 C3 1_555 1_555
H5 C6 1_555 1_555
C7 C6 1_555 1_555
H6 C7 1_555 1_555
C8 C7 1_555 1_555
C9 C8 1_555 1_555
C10 C8 1_555 1_555
C11 C9 1_555 1_555
H7 C11 1_555 1_555
H8 C11 1_555 1_555
H9 C11 1_555 1_555
C12 C10 1_555 1_555
H10 C12 1_555 1_555
H11 C12 1_555 1_555
H12 C12 1_555 1_555
C13 C14 1_555 1_555
C14 H13 1_555 1_555
C15 C14 1_555 1_555
H14 C15 1_555 1_555
C16 C15 1_555 1_555
C17 C16 1_555 1_555
H15 C17 1_555 1_555
C18 C13 1_555 1_555
H16 C18 1_555 1_555
C19 C16 1_555 1_555
C20 C19 1_555 1_555
H17 C20 1_555 1_555
C21 C20 1_555 1_555
H18 C21 1_555 1_555
C22 C21 1_555 1_555
C23 C22 1_555 1_555
H19 C23 1_555 1_555
C24 C19 1_555 1_555
H20 C24 1_555 1_555
C25 O1 1_555 1_555
C26 C22 1_555 1_555
C27 H21 1_555 1_555
H22 C27 1_555 1_555
H23 C27 1_555 1_555
C28 C27 1_555 1_555
N2 C28 1_555 1_555
N1D C1D 1_555 1_555
C1D H1D 1_555 1_555
C2D C1D 1_555 1_555
H2D C2D 1_555 1_555
C3D C2D 1_555 1_555
C4D C3D 1_555 1_555
H3D C4D 1_555 1_555
C5D N1D 1_555 1_555
H4D C5D 1_555 1_555
C6D C3D 1_555 1_555
H5D C6D 1_555 1_555
C7D C6D 1_555 1_555
H6D C7D 1_555 1_555
C8D C7D 1_555 1_555
C9D C10 1_555 1_555
C10D C9 1_555 1_555
C11D C9D 1_555 1_555
H7D C11D 1_555 1_555
H8D C11D 1_555 1_555
H9D C11D 1_555 1_555
C12D C10D 1_555 1_555
H10D C12D 1_555 1_555
H11D C12D 1_555 1_555
H12D C12D 1_555 1_555
Zn1D N1D 1_555 1_555
O1D Zn1D 1_555 1_555
O2D C25D 1_555 1_555
O3D C26D 1_555 1_555
O4D C26D 1_555 1_555
C13D C14D 1_555 1_555
C14D H13D 1_555 1_555
C15D C14D 1_555 1_555
H14D C15D 1_555 1_555
C16D C15D 1_555 1_555
C17D C16D 1_555 1_555
H15D C17D 1_555 1_555
C18D C13D 1_555 1_555
H16D C18D 1_555 1_555
C19D C16D 1_555 1_555
C20D C19D 1_555 1_555
H17D C20D 1_555 1_555
C21D C20D 1_555 1_555
H18D C21D 1_555 1_555
C22D C21D 1_555 1_555
C23D C22D 1_555 1_555
H19D C23D 1_555 1_555
C24D C19D 1_555 1_555
H20D C24D 1_555 1_555
C25D O1D 1_555 1_555
C26D C22D 1_555 1_555
Zn1_2 O2D 1_555 1_555
Zn1C O4D 1_555 1_555
Zn1C_2 O3 1_555 1_555
Zn1D_2 O2 1_555 1_555
Zn1G O3D 1_555 1_555
Zn1G_2 O4 1_555 1_555
O2_2 Zn1D 1_555 1_555
O2D_2 Zn1 1_555 1_555
O3C Zn1 1_555 1_555
O3G Zn1D 1_555 1_555
O4C Zn1D 1_555 1_555
O4G Zn1 1_555 1_555
C4 C5 1_555 1_555
C13 C25 1_555 1_555
C17 C18 1_555 1_555
C23 C24 1_555 1_555
C4D C5D 1_555 1_555
C8D C9D 1_555 1_555
C8D C10D 1_555 1_555
C13D C25D 1_555 1_555
C17D C18D 1_555 1_555
C23D C24D 1_555 1_555

#END
