
#######################################################################
#
#                 Cambridge Crystallographic Data Centre
#                                CCDC 
#
#######################################################################
#
# If this CIF has been generated from an entry in the Cambridge 
# Structural Database, then it will include bibliographic, chemical, 
# crystal, experimental, refinement or atomic coordinate data resulting 
# from the CCDC's data processing and validation procedures.
#
#######################################################################

data_POMXIA
_symmetry_cell_setting           orthorhombic
_symmetry_space_group_name_H-M   'P c c a'
_symmetry_Int_Tables_number      54
_space_group_name_Hall           '-P 2a 2ac'
loop_
_symmetry_equiv_pos_site_id
_symmetry_equiv_pos_as_xyz
1 x,y,z
2 1/2-x,-y,z
3 -x,y,1/2-z
4 1/2+x,-y,1/2-z
5 -x,-y,-z
6 1/2+x,y,-z
7 x,-y,1/2+z
8 1/2-x,y,1/2+z
_cell_length_a                   19.2420(9)
_cell_length_b                   25.5073(10)
_cell_length_c                   16.0702(7)
_cell_angle_alpha                90
_cell_angle_beta                 90
_cell_angle_gamma                90
_cell_volume                     7887.44
loop_
_atom_site_label
_atom_site_type_symbol
_atom_site_fract_x
_atom_site_fract_y
_atom_site_fract_z
Zn1 Zn 0.12956(3) 0.19714(3) 0.69741(4)
Zn2 Zn 0.0000 0.28055(4) 0.7500
Zn3 Zn 0.12191(3) 0.25133(3) 0.88360(4)
O1 O 0.1168(2) 0.12413(16) 0.6653(3)
O2 O 0.0068(3) 0.14535(18) 0.6415(3)
O3 O -0.2808(2) -0.22916(18) 0.6307(3)
O4 O -0.2765(2) -0.19020(19) 0.7546(3)
O5 O -0.0029(2) -0.10100(18) 0.5899(3)
O6 O -0.1401(2) 0.24932(16) 0.8889(2)
O7 O -0.0331(2) 0.28157(19) 0.8732(3)
O8 O -0.0755(3) 0.66373(18) 1.2281(3)
O9 O -0.1249(2) 0.67339(18) 1.1052(3)
O10 O -0.1546(4) 0.4298(2) 1.1553(4)
O11 O 0.06940(18) 0.22169(14) 0.7901(2)
C1 C 0.0383(3) 0.0561(2) 0.6320(3)
C2 C -0.0291(4) 0.0399(3) 0.6202(4)
H1 H -0.0647 0.0645 0.6210
C3 C -0.0446(3) -0.0112(3) 0.6074(5)
H2 H -0.0906 -0.0214 0.5998
C4 C 0.0075(3) -0.0483(3) 0.6056(4)
C5 C 0.0761(3) -0.0335(3) 0.6151(4)
H3 H 0.1118 -0.0580 0.6130
C6 C 0.0896(3) 0.0199(2) 0.6281(4)
H4 H 0.1354 0.0308 0.6342
C7 C 0.0534(4) 0.1116(3) 0.6490(4)
C8 C -0.1851(3) -0.1751(2) 0.6615(3)
C9 C -0.1588(4) -0.1809(3) 0.5821(4)
H5 H -0.1819 -0.2025 0.5446
C10 C -0.0991(3) -0.1554(3) 0.5572(4)
H6 H -0.0819 -0.1591 0.5034
C11 C -0.0655(3) -0.1239(3) 0.6154(4)
C12 C -0.0900(3) -0.1181(3) 0.6936(4)
H7 H -0.0668 -0.0966 0.7312
C13 C -0.1497(3) -0.1444(3) 0.7175(4)
H8 H -0.1660 -0.1413 0.7718
C14 C -0.2528(3) -0.2002(2) 0.6838(4)
C15 C -0.1090(3) 0.3228(2) 0.9705(4)
C16 C -0.0639(4) 0.3624(3) 0.9863(5)
H9 H -0.0217 0.3638 0.9580
C17 C -0.0799(5) 0.4005(3) 1.0439(6)
H10 H -0.0501 0.4287 1.0524
C18 C -0.1392(5) 0.3964(3) 1.0876(5)
C19 C -0.1866(5) 0.3571(3) 1.0738(5)
H11 H -0.2276 0.3553 1.1042
C20 C -0.1715(4) 0.3204(3) 1.0135(4)
H12 H -0.2032 0.2939 1.0016
C21 C -0.0927(4) 0.2814(3) 0.9052(4)
C22 C -0.1136(3) 0.5888(3) 1.1570(5)
C23 C -0.0949(6) 0.5570(3) 1.2222(6)
H13 H -0.0732 0.5716 1.2684
C24 C -0.1083(7) 0.5021(4) 1.2207(7)
H14 H -0.0982 0.4810 1.2662
C25 C -0.1365(6) 0.4818(3) 1.1497(6)
C26 C -0.1516(6) 0.5109(3) 1.0862(6)
H15 H -0.1689 0.4953 1.0381
C27 C -0.1423(5) 0.5659(3) 1.0887(6)
H16 H -0.1558 0.5864 1.0436
C28 C -0.1027(4) 0.6458(3) 1.1635(5)
C29 C 0.1297(9) 0.1716(7) 1.0218(14)
C30 C 0.0426(12) 0.2361(11) 1.0450(15)
N1 N 0.0961(5) 0.2165(4) 0.9884(5)
Zn1B Zn -0.12956(3) 0.19714(3) 0.80259(4)
Zn3B Zn -0.12191(3) 0.25133(3) 0.61640(4)
O1B O -0.1168(2) 0.12413(16) 0.8347(3)
O2B O -0.0068(3) 0.14535(18) 0.8585(3)
O3B O 0.2808(2) -0.22916(18) 0.8693(3)
O4B O 0.2765(2) -0.19020(19) 0.7454(3)
O5B O 0.0029(2) -0.10100(18) 0.9101(3)
O6B O 0.1401(2) 0.24932(16) 0.6111(2)
O7B O 0.0331(2) 0.28157(19) 0.6268(3)
O8B O 0.0755(3) 0.66373(18) 0.2719(3)
O9B O 0.1249(2) 0.67339(18) 0.3948(3)
O10B O 0.1546(4) 0.4298(2) 0.3447(4)
O11B O -0.06940(18) 0.22169(14) 0.7099(2)
C1B C -0.0383(3) 0.0561(2) 0.8680(3)
C2B C 0.0291(4) 0.0399(3) 0.8798(4)
H1B H 0.0647 0.0645 0.8790
C3B C 0.0446(3) -0.0112(3) 0.8926(5)
H2B H 0.0906 -0.0214 0.9002
C4B C -0.0075(3) -0.0483(3) 0.8944(4)
C5B C -0.0761(3) -0.0335(3) 0.8849(4)
H3B H -0.1118 -0.0580 0.8870
C6B C -0.0896(3) 0.0199(2) 0.8719(4)
H4B H -0.1354 0.0308 0.8658
C7B C -0.0534(4) 0.1116(3) 0.8510(4)
C8B C 0.1851(3) -0.1751(2) 0.8385(3)
C9B C 0.1588(4) -0.1809(3) 0.9179(4)
H5B H 0.1819 -0.2025 0.9554
C10B C 0.0991(3) -0.1554(3) 0.9428(4)
H6B H 0.0819 -0.1591 0.9966
C11B C 0.0655(3) -0.1239(3) 0.8846(4)
C12B C 0.0900(3) -0.1181(3) 0.8064(4)
H7B H 0.0668 -0.0966 0.7688
C13B C 0.1497(3) -0.1444(3) 0.7825(4)
H8B H 0.1660 -0.1413 0.7282
C14B C 0.2528(3) -0.2002(2) 0.8162(4)
C15B C 0.1090(3) 0.3228(2) 0.5295(4)
C16B C 0.0639(4) 0.3624(3) 0.5137(5)
H9B H 0.0217 0.3638 0.5420
C17B C 0.0799(5) 0.4005(3) 0.4561(6)
H10B H 0.0501 0.4287 0.4476
C18B C 0.1392(5) 0.3964(3) 0.4124(5)
C19B C 0.1866(5) 0.3571(3) 0.4262(5)
H11B H 0.2276 0.3553 0.3958
C20B C 0.1715(4) 0.3204(3) 0.4865(4)
H12B H 0.2032 0.2939 0.4984
C21B C 0.0927(4) 0.2814(3) 0.5948(4)
C22B C 0.1136(3) 0.5888(3) 0.3430(5)
C23B C 0.0949(6) 0.5570(3) 0.2778(6)
H13B H 0.0732 0.5716 0.2316
C24B C 0.1083(7) 0.5021(4) 0.2793(7)
H14B H 0.0982 0.4810 0.2338
C25B C 0.1365(6) 0.4818(3) 0.3503(6)
C26B C 0.1516(6) 0.5109(3) 0.4138(6)
H15B H 0.1689 0.4953 0.4619
C27B C 0.1423(5) 0.5659(3) 0.4113(6)
H16B H 0.1558 0.5864 0.4564
C28B C 0.1027(4) 0.6458(3) 0.3365(5)
C29B C -0.1297(9) 0.1716(7) 0.4782(14)
C30B C -0.0426(12) 0.2361(11) 0.4550(15)
N1B N -0.0961(5) 0.2165(4) 0.5116(5)
Zn1A Zn 0.37044(3) -0.19714(3) 0.69741(4)
Zn1C Zn -0.37044(3) -0.19714(3) 0.80259(4)
Zn2D Zn 0.0000 0.71945(4) 0.2500
Zn2D_2 Zn 0.0000 0.71945(4) 1.2500
Zn3A Zn 0.37809(3) -0.25133(3) 0.88360(4)
Zn3C Zn -0.37809(3) -0.25133(3) 0.61640(4)
Zn3D Zn -0.12191(3) 0.74867(3) 1.11640(4)
Zn3F Zn 0.12191(3) 0.74867(3) 0.38360(4)
O3A O -0.2192(2) 0.22916(18) 0.6307(3)
O3C O 0.2192(2) 0.22916(18) 0.8693(3)
O4A O -0.2235(2) 0.19020(19) 0.7546(3)
O4C O 0.2235(2) 0.19020(19) 0.7454(3)
O8D O 0.0755(3) 0.33627(18) 0.7719(3)
O8F O -0.0755(3) 0.33627(18) 0.7281(3)
O9D O 0.1249(2) 0.32661(18) 0.8948(3)
O9F O -0.1249(2) 0.32661(18) 0.6052(3)
loop_
_geom_bond_atom_site_label_1
_geom_bond_atom_site_label_2
_geom_bond_site_symmetry_1
_geom_bond_site_symmetry_2
Zn1 O1 1_555 1_555
Zn2 O7 1_555 1_555
Zn3 O11 1_555 1_555
O1 C7 1_555 1_555
O2 C7 1_555 1_555
O3 C14 1_555 1_555
O4 C14 1_555 1_555
O5 C4 1_555 1_555
O6 C21 1_555 1_555
O7 C21 1_555 1_555
O8 C28 1_555 1_555
O9 C28 1_555 1_555
O10 C18 1_555 1_555
O11 Zn1 1_555 1_555
C1 C2 1_555 1_555
C2 H1 1_555 1_555
C3 C2 1_555 1_555
H2 C3 1_555 1_555
C4 C3 1_555 1_555
C5 C4 1_555 1_555
H3 C5 1_555 1_555
C6 C1 1_555 1_555
H4 C6 1_555 1_555
C7 C1 1_555 1_555
C8 C9 1_555 1_555
C9 H5 1_555 1_555
C10 C9 1_555 1_555
H6 C10 1_555 1_555
C11 O5 1_555 1_555
C12 C11 1_555 1_555
H7 C12 1_555 1_555
C13 C8 1_555 1_555
H8 C13 1_555 1_555
C14 C8 1_555 1_555
C15 C16 1_555 1_555
C16 H9 1_555 1_555
C17 C16 1_555 1_555
H10 C17 1_555 1_555
C18 C17 1_555 1_555
C19 C18 1_555 1_555
H11 C19 1_555 1_555
C20 C15 1_555 1_555
H12 C20 1_555 1_555
C21 C15 1_555 1_555
C22 C23 1_555 1_555
C23 H13 1_555 1_555
C24 C23 1_555 1_555
H14 C24 1_555 1_555
C25 O10 1_555 1_555
C26 C25 1_555 1_555
H15 C26 1_555 1_555
C27 C22 1_555 1_555
H16 C27 1_555 1_555
C28 C22 1_555 1_555
C29 N1 1_555 1_555
C30 N1 1_555 1_555
N1 Zn3 1_555 1_555
Zn1B O6 1_555 1_555
Zn3B O11B 1_555 1_555
O1B Zn1B 1_555 1_555
O2B C7B 1_555 1_555
O3B C14B 1_555 1_555
O4B C14B 1_555 1_555
O5B C4B 1_555 1_555
O6B Zn1 1_555 1_555
O7B Zn2 1_555 1_555
O8B C28B 1_555 1_555
O9B C28B 1_555 1_555
O10B C18B 1_555 1_555
O11B Zn2 1_555 1_555
C1B C2B 1_555 1_555
C2B H1B 1_555 1_555
C3B C2B 1_555 1_555
H2B C3B 1_555 1_555
C4B C3B 1_555 1_555
C5B C4B 1_555 1_555
H3B C5B 1_555 1_555
C6B C1B 1_555 1_555
H4B C6B 1_555 1_555
C7B O1B 1_555 1_555
C8B C9B 1_555 1_555
C9B H5B 1_555 1_555
C10B C9B 1_555 1_555
H6B C10B 1_555 1_555
C11B O5B 1_555 1_555
C12B C11B 1_555 1_555
H7B C12B 1_555 1_555
C13B C8B 1_555 1_555
H8B C13B 1_555 1_555
C14B C8B 1_555 1_555
C15B C16B 1_555 1_555
C16B H9B 1_555 1_555
C17B C16B 1_555 1_555
H10B C17B 1_555 1_555
C18B C17B 1_555 1_555
C19B C18B 1_555 1_555
H11B C19B 1_555 1_555
C20B C15B 1_555 1_555
H12B C20B 1_555 1_555
C21B O6B 1_555 1_555
C22B C23B 1_555 1_555
C23B H13B 1_555 1_555
C24B C23B 1_555 1_555
H14B C24B 1_555 1_555
C25B O10B 1_555 1_555
C26B C25B 1_555 1_555
H15B C26B 1_555 1_555
C27B C22B 1_555 1_555
H16B C27B 1_555 1_555
C28B C22B 1_555 1_555
C29B N1B 1_555 1_555
C30B N1B 1_555 1_555
N1B Zn3B 1_555 1_555
Zn1A O4B 1_555 1_555
Zn1C O4 1_555 1_555
Zn2D O8B 1_555 1_555
Zn2D_2 O8 1_555 1_555
Zn3A O3B 1_555 1_555
Zn3C O3 1_555 1_555
Zn3D O9 1_555 1_555
Zn3F O9B 1_555 1_555
O3A Zn3B 1_555 1_555
O3C Zn3 1_555 1_555
O4A Zn1B 1_555 1_555
O4C Zn1 1_555 1_555
O8D Zn2 1_555 1_555
O8F Zn2 1_555 1_555
O9D Zn3 1_555 1_555
O9F Zn3B 1_555 1_555
Zn2 O11 1_555 1_555
C5 C6 1_555 1_555
C10 C11 1_555 1_555
C12 C13 1_555 1_555
C19 C20 1_555 1_555
C24 C25 1_555 1_555
C26 C27 1_555 1_555
Zn1B O11B 1_555 1_555
O7B C21B 1_555 1_555
C1B C7B 1_555 1_555
C5B C6B 1_555 1_555
C10B C11B 1_555 1_555
C12B C13B 1_555 1_555
C15B C21B 1_555 1_555
C19B C20B 1_555 1_555
C24B C25B 1_555 1_555
C26B C27B 1_555 1_555

#END
