
#######################################################################
#
#                 Cambridge Crystallographic Data Centre
#                                CCDC 
#
#######################################################################
#
# If this CIF has been generated from an entry in the Cambridge 
# Structural Database, then it will include bibliographic, chemical, 
# crystal, experimental, refinement or atomic coordinate data resulting 
# from the CCDC's data processing and validation procedures.
#
#######################################################################

data_PORVID
_symmetry_cell_setting           triclinic
_symmetry_space_group_name_H-M   'P -1'
_symmetry_Int_Tables_number      2
_space_group_name_Hall           '-P 1'
loop_
_symmetry_equiv_pos_site_id
_symmetry_equiv_pos_as_xyz
1 x,y,z
2 -x,-y,-z
_cell_length_a                   10.575(2)
_cell_length_b                   11.660(2)
_cell_length_c                   15.767(2)
_cell_angle_alpha                106.080(10)
_cell_angle_beta                 90.73(2)
_cell_angle_gamma                94.050(10)
_cell_volume                     1862.36
loop_
_atom_site_label
_atom_site_type_symbol
_atom_site_fract_x
_atom_site_fract_y
_atom_site_fract_z
Cu1 Cu 0.13781(5) 0.49601(5) 0.49972(4)
Cu2 Cu -0.13876(5) 0.47480(5) -0.00175(4)
Cu3 Cu -0.01317(5) 0.35601(5) 0.31431(4)
Cu4 Cu 0.00736(6) 0.64248(5) 0.18503(4)
O1 O -0.7302(3) 0.5194(3) 0.0850(2)
O2 O -0.8160(3) 0.6024(3) 0.2159(2)
O3 O -0.7355(3) 0.5142(3) 0.4163(2)
O4 O -0.8268(3) 0.3860(3) 0.2928(2)
O5 O -0.1896(3) 0.3927(3) 0.2812(2)
O6 O -0.2758(3) 0.4661(4) 0.4129(2)
O7 O -0.2680(3) 0.4769(4) 0.0854(2)
O8 O -0.1817(3) 0.6033(3) 0.2111(2)
C1 C -0.6178(5) 0.5161(4) 0.2117(3)
C2 C -0.6211(5) 0.4780(4) 0.2882(3)
C3 C -0.5077(5) 0.4562(4) 0.3253(3)
H1 H -0.5099(5) 0.4321(4) 0.3767(3)
C4 C -0.3913(4) 0.4698(4) 0.2872(3)
C5 C -0.3882(5) 0.5082(4) 0.2106(3)
C6 C -0.5013(5) 0.5285(4) 0.1735(3)
H2 H -0.4993(5) 0.5512(4) 0.1214(3)
C7 C -0.7331(4) 0.5476(4) 0.1677(3)
C8 C -0.7413(5) 0.4578(4) 0.3348(3)
C9 C -0.2741(4) 0.4414(4) 0.3299(3)
C10 C -0.2663(5) 0.5314(4) 0.1670(3)
O9 O -0.0285(3) 0.2109(3) 0.2174(2)
O10 O 0.0396(4) 0.3152(3) 0.1260(3)
O11 O -0.1355(3) 0.2691(3) -0.0310(2)
O12 O 0.0495(4) 0.2511(3) -0.0968(2)
C11 C -0.0047(5) 0.1058(4) 0.0674(3)
C12 C -0.0142(5) 0.1088(4) -0.0211(3)
C13 C 0.0090(5) -0.0015(4) 0.0873(3)
H3 H 0.0149(5) -0.0018(4) 0.1462(3)
C14 C 0.0025(5) 0.2210(4) 0.1406(3)
C15 C -0.0350(5) 0.2196(4) -0.0488(3)
O13 O 0.1280(3) 0.2926(3) 0.4763(2)
O14 O -0.0586(4) 0.2442(3) 0.4042(3)
O15 O 0.0023(4) -0.2137(3) 0.2807(2)
O16 O 0.0530(5) -0.3077(3) 0.3798(3)
C16 C 0.0117(5) 0.1111(4) 0.4803(3)
C17 C 0.0078(4) -0.1064(4) 0.4321(3)
C18 C 0.0178(5) 0.0040(4) 0.4146(3)
H4 H 0.0289(5) 0.0065(4) 0.3567(3)
C19 C 0.0294(5) 0.2260(4) 0.4538(3)
C20 C 0.0222(5) -0.2188(4) 0.3607(3)
O17 O 0.0033(3) 0.5063(3) 0.0827(2)
O18 O -0.0032(3) 0.4936(3) 0.4164(2)
H5 H -0.0101(46) 0.4765(40) 0.1290(21)
H6 H 0.0131(46) 0.5322(38) 0.3750(23)
O9A O 0.0285(3) -0.2109(3) -0.2174(2)
O10A O -0.0396(4) -0.3152(3) -0.1260(3)
O11A O 0.1355(3) -0.2691(3) 0.0310(2)
O12A O -0.0495(4) -0.2511(3) 0.0968(2)
C11A C 0.0047(5) -0.1058(4) -0.0674(3)
C12A C 0.0142(5) -0.1088(4) 0.0211(3)
C13A C -0.0090(5) 0.0015(4) -0.0873(3)
H3A H -0.0149(5) 0.0018(4) -0.1462(3)
C14A C -0.0025(5) -0.2210(4) -0.1406(3)
C15A C 0.0350(5) -0.2196(4) 0.0488(3)
O13A O -0.1280(3) -0.2926(3) 0.5237(2)
O14A O 0.0586(4) -0.2442(3) 0.5958(3)
O15A O -0.0023(4) 0.2137(3) 0.7193(2)
O16A O -0.0530(5) 0.3077(3) 0.6202(3)
C16A C -0.0117(5) -0.1111(4) 0.5197(3)
C17A C -0.0078(4) 0.1064(4) 0.5679(3)
C18A C -0.0178(5) -0.0040(4) 0.5854(3)
H4A H -0.0289(5) -0.0065(4) 0.6433(3)
C19A C -0.0294(5) -0.2260(4) 0.5462(3)
C20A C -0.0222(5) 0.2188(4) 0.6393(3)
Cu1A Cu -1.13781(5) 0.50399(5) -0.49972(4)
Cu2A Cu -0.86124(5) 0.52520(5) 0.00175(4)
Cu3A Cu -0.98683(5) 0.64399(5) -0.31431(4)
Cu4A Cu -1.00736(6) 0.35752(5) -0.18503(4)
O1A O -0.2698(3) 0.4806(3) -0.0850(2)
O2A O -0.1840(3) 0.3976(3) -0.2159(2)
O3A O -0.2645(3) 0.4858(3) -0.4163(2)
O4A O -0.1732(3) 0.6140(3) -0.2928(2)
O5A O -0.8104(3) 0.6073(3) -0.2812(2)
O6A O -0.7242(3) 0.5339(4) -0.4129(2)
O7A O -0.7320(3) 0.5231(4) -0.0854(2)
O8A O -0.8183(3) 0.3967(3) -0.2111(2)
C1A C -0.3822(5) 0.4839(4) -0.2117(3)
C2A C -0.3789(5) 0.5220(4) -0.2882(3)
C3A C -0.4923(5) 0.5438(4) -0.3253(3)
H1A H -0.4901(5) 0.5679(4) -0.3767(3)
C4A C -0.6087(4) 0.5302(4) -0.2872(3)
C5A C -0.6118(5) 0.4918(4) -0.2106(3)
C6A C -0.4987(5) 0.4715(4) -0.1735(3)
H2A H -0.5007(5) 0.4488(4) -0.1214(3)
C7A C -0.2669(4) 0.4524(4) -0.1677(3)
C8A C -0.2587(5) 0.5422(4) -0.3348(3)
C9A C -0.7259(4) 0.5586(4) -0.3299(3)
C10A C -0.7337(5) 0.4686(4) -0.1670(3)
O17A O -1.0033(3) 0.4937(3) -0.0827(2)
O18A O -0.9968(3) 0.5064(3) -0.4164(2)
H5A H -0.9899(46) 0.5235(40) -0.1290(21)
H6A H -1.0131(46) 0.4678(38) -0.3750(23)
Cu1_2 Cu -0.86219(5) 0.49601(5) -0.50028(4)
Cu1_3 Cu -0.86219(5) 0.49601(5) 0.49972(4)
Cu1A_2 Cu -0.13781(5) -0.49601(5) 0.50028(4)
Cu1A_3 Cu -0.13781(5) 0.50399(5) -0.49972(4)
Cu1A_4 Cu -0.13781(5) 0.50399(5) 0.50028(4)
Cu2_2 Cu -1.13876(5) 0.47480(5) -0.00175(4)
Cu2A_2 Cu 0.13876(5) -0.47480(5) 0.00175(4)
Cu2A_3 Cu 0.13876(5) 0.52520(5) 0.00175(4)
Cu3_2 Cu -1.01317(5) 0.35601(5) 0.31431(4)
Cu3A_2 Cu 0.01317(5) -0.35601(5) -0.31431(4)
Cu3A_3 Cu 0.01317(5) -0.35601(5) 0.68569(4)
Cu3A_4 Cu 0.01317(5) 0.64399(5) -0.31431(4)
Cu4_2 Cu -0.99264(6) 0.64248(5) 0.18503(4)
Cu4_3 Cu 0.00736(6) -0.35752(5) 0.18503(4)
Cu4A_2 Cu -0.00736(6) 0.35752(5) -0.18503(4)
Cu4A_3 Cu -0.00736(6) 0.35752(5) 0.81497(4)
O2_2 O 0.1840(3) 0.6024(3) 0.2159(2)
O2A_2 O -1.1840(3) 0.3976(3) -0.2159(2)
O3_2 O 0.2645(3) 0.5142(3) 0.4163(2)
O3A_2 O -1.2645(3) 0.4858(3) -0.4163(2)
O4_2 O 0.1732(3) 0.3860(3) 0.2928(2)
O4A_2 O -1.1732(3) 0.6140(3) -0.2928(2)
O6_2 O -1.2758(3) 0.4661(4) -0.5871(2)
O6A_2 O 0.2758(3) 0.5339(4) 0.5871(2)
O9A_2 O -0.9715(3) 0.7891(3) -0.2174(2)
O11A_2 O -0.8645(3) 0.7309(3) 0.0310(2)
O12_2 O -0.9505(4) 0.2511(3) -0.0968(2)
O12A_2 O -0.0495(4) 0.7489(3) 0.0968(2)
O13A_2 O -1.1280(3) 0.7074(3) -0.4763(2)
O14A_2 O -0.9414(4) 0.7558(3) -0.4042(3)
O15_2 O 0.0023(4) 0.7863(3) 0.2807(2)
O15A_2 O -1.0023(4) 0.2137(3) -0.2807(2)
O17_2 O -0.9967(3) 0.5063(3) 0.0827(2)
O17A_2 O -0.0033(3) 0.4937(3) -0.0827(2)
O18_2 O -1.0032(3) 0.4936(3) -0.5836(2)
O18A_2 O 0.0032(3) 0.5064(3) 0.5836(2)
N1 N 0.7146(6) 0.8398(6) 0.1199(4)
N2 N 0.5985(6) 1.2460(6) -0.4809(5)
C21 C 0.6242(7) 0.7629(7) 0.0499(5)
H7 H 0.6237(7) 0.6807(7) 0.0524(5)
H8 H 0.5394(7) 0.7885(7) 0.0618(5)
C22 C 0.6569(8) 0.7676(7) -0.0405(5)
H9 H 0.5997(8) 0.7100(7) -0.0824(5)
H10 H 0.7421(8) 0.7424(7) -0.0516(5)
C23 C 0.6511(7) 0.8876(6) -0.0580(5)
H11 H 0.7232(7) 0.9403(6) -0.0287(5)
H12 H 0.5745(7) 0.9230(6) -0.0337(5)
C24 C 0.6519(8) 0.8759(7) -0.1576(5)
H13 H 0.7287(8) 0.8401(7) -0.1812(5)
H14 H 0.5804(8) 0.8219(7) -0.1864(5)
C25 C 0.6457(9) 0.9891(8) -0.1798(6)
H15 H 0.7203(9) 1.0409(8) -0.1541(6)
H16 H 0.5722(9) 1.0275(8) -0.1524(6)
C26 C 0.6373(9) 0.9789(8) -0.2796(6)
H17 H 0.7079(9) 0.9368(8) -0.3083(6)
H18 H 0.5595(9) 0.9323(8) -0.3051(6)
C27 C 0.6397(9) 1.0983(8) -0.2967(6)
H19 H 0.7217(9) 1.1403(8) -0.2763(6)
H20 H 0.5762(9) 1.1433(8) -0.2609(6)
C28 C 0.6168(8) 1.1001(7) -0.3913(5)
H21 H 0.6778(8) 1.0540(7) -0.4291(5)
H22 H 0.5323(8) 1.0649(7) -0.4120(5)
C29 C 0.6305(8) 1.2262(7) -0.3944(6)
H23 H 0.7175(8) 1.2574(7) -0.3778(6)
H24 H 0.5767(8) 1.2724(7) -0.3504(6)
H25 H 0.6988(79) 0.8278(72) 0.1729(25)
H26 H 0.7214(80) 0.9193(16) 0.1271(54)
H27 H 0.7918(34) 0.8119(68) 0.1098(54)
H28 H 0.6375(70) 1.3201(31) -0.4711(54)
H29 H 0.6434(67) 1.1926(56) -0.5186(43)
H30 H 0.5137(15) 1.2415(72) -0.4893(55)
O19 O 0.7180(5) 0.0929(5) 0.1824(4)
H31 H 0.6887(98) 0.1364(79) 0.1574(65)
H32 H 0.7810(57) 0.1355(78) 0.2002(67)
O20 O 0.6587(6) 0.2165(5) 0.0626(5)
H33 H 0.672(10) 0.2877(15) 0.0739(71)
H34 H 0.6968(93) 0.2023(95) 0.0179(40)
O21 O -0.2805(5) 0.1052(5) 0.3671(4)
H35 H -0.2173(56) 0.1482(76) 0.3828(68)
H36 H -0.3053(98) 0.1104(95) 0.3202(34)
O22 O 0.6564(6) 0.7845(8) 0.4626(6)
H37 H 0.6339(78) 0.7307(68) 0.4835(72)
H38 H 0.7310(18) 0.7764(84) 0.4653(70)
O23 O 0.7207(7) 0.8485(6) 0.3044(4)
H39 H 0.715(11) 0.9188(21) 0.3248(67)
H40 H 0.719(11) 0.7782(21) 0.2991(72)
loop_
_geom_bond_atom_site_label_1
_geom_bond_atom_site_label_2
_geom_bond_site_symmetry_1
_geom_bond_site_symmetry_2
Cu1 O13 1_555 1_555
Cu2 O7 1_555 1_555
Cu3 O5 1_555 1_555
Cu4 O8 1_555 1_555
O1 C7 1_555 1_555
O2 C7 1_555 1_555
O3 C8 1_555 1_555
O4 C8 1_555 1_555
O5 C9 1_555 1_555
O6 C9 1_555 1_555
O7 C10 1_555 1_555
O8 C10 1_555 1_555
C1 C2 1_555 1_555
C2 C3 1_555 1_555
C3 H1 1_555 1_555
C4 C3 1_555 1_555
C5 C4 1_555 1_555
C6 C1 1_555 1_555
H2 C6 1_555 1_555
C7 C1 1_555 1_555
C8 C2 1_555 1_555
C9 C4 1_555 1_555
C10 C5 1_555 1_555
O9 Cu3 1_555 1_555
O10 C14 1_555 1_555
O11 Cu2 1_555 1_555
O12 C15 1_555 1_555
C11 C12 1_555 1_555
C12 C15 1_555 1_555
C13 C11 1_555 1_555
H3 C13 1_555 1_555
C14 O9 1_555 1_555
C15 O11 1_555 1_555
O13 C19 1_555 1_555
O14 Cu3 1_555 1_555
O15 C20 1_555 1_555
O16 C20 1_555 1_555
C16 C18 1_555 1_555
C17 C18 1_555 1_555
C18 H4 1_555 1_555
C19 O14 1_555 1_555
C20 C17 1_555 1_555
O17 Cu2 1_555 1_555
O18 Cu1 1_555 1_555
H5 O17 1_555 1_555
H6 O18 1_555 1_555
N1 C21 1_555 1_555
N2 C29 1_555 1_555
C21 H7 1_555 1_555
H8 C21 1_555 1_555
C22 C21 1_555 1_555
H9 C22 1_555 1_555
H10 C22 1_555 1_555
C23 C22 1_555 1_555
H11 C23 1_555 1_555
H12 C23 1_555 1_555
C24 C23 1_555 1_555
H13 C24 1_555 1_555
H14 C24 1_555 1_555
C25 C24 1_555 1_555
H15 C25 1_555 1_555
H16 C25 1_555 1_555
C26 C25 1_555 1_555
H17 C26 1_555 1_555
H18 C26 1_555 1_555
C27 C26 1_555 1_555
H19 C27 1_555 1_555
H20 C27 1_555 1_555
C28 C27 1_555 1_555
H21 C28 1_555 1_555
H22 C28 1_555 1_555
C29 C28 1_555 1_555
H23 C29 1_555 1_555
H24 C29 1_555 1_555
H25 N1 1_555 1_555
H26 N1 1_555 1_555
H27 N1 1_555 1_555
H28 N2 1_555 1_555
H29 N2 1_555 1_555
H30 N2 1_555 1_555
O19 H31 1_555 1_555
H32 O19 1_555 1_555
O20 H33 1_555 1_555
H34 O20 1_555 1_555
O21 H35 1_555 1_555
H36 O21 1_555 1_555
O22 H37 1_555 1_555
H38 O22 1_555 1_555
O23 H39 1_555 1_555
H40 O23 1_555 1_555
O9A C14A 1_555 1_555
O10A C14A 1_555 1_555
O11A C15A 1_555 1_555
O12A C15A 1_555 1_555
C11A C12A 1_555 1_555
C12A C13 1_555 1_555
C13A C12 1_555 1_555
H3A C13A 1_555 1_555
C14A C11A 1_555 1_555
C15A C12A 1_555 1_555
O13A C19A 1_555 1_555
O14A C19A 1_555 1_555
O15A C20A 1_555 1_555
O16A C20A 1_555 1_555
C16A C17 1_555 1_555
C17A C16 1_555 1_555
C18A C16A 1_555 1_555
H4A C18A 1_555 1_555
C19A C16A 1_555 1_555
C20A C17A 1_555 1_555
Cu1A O18A 1_555 1_555
Cu2A O1 1_555 1_555
Cu3A O5A 1_555 1_555
Cu4A O8A 1_555 1_555
O1A Cu2 1_555 1_555
O2A C7A 1_555 1_555
O3A C8A 1_555 1_555
O4A C8A 1_555 1_555
O5A C9A 1_555 1_555
O6A C9A 1_555 1_555
O7A Cu2A 1_555 1_555
O8A C10A 1_555 1_555
C1A C2A 1_555 1_555
C2A C3A 1_555 1_555
C3A H1A 1_555 1_555
C4A C3A 1_555 1_555
C5A C4A 1_555 1_555
C6A C1A 1_555 1_555
H2A C6A 1_555 1_555
C7A O1A 1_555 1_555
C8A C2A 1_555 1_555
C9A C4A 1_555 1_555
C10A O7A 1_555 1_555
O17A Cu2A 1_555 1_555
O18A Cu3A 1_555 1_555
H5A O17A 1_555 1_555
H6A O18A 1_555 1_555
Cu1_2 O6A 1_555 1_555
Cu1_3 O3 1_555 1_555
Cu1A_2 O13A 1_555 1_555
Cu1A_3 O3A 1_555 1_555
Cu1A_4 O6 1_555 1_555
Cu2_2 O17A 1_555 1_555
Cu2A_2 O11A 1_555 1_555
Cu2A_3 O17 1_555 1_555
Cu3_2 O4 1_555 1_555
Cu3A_2 O9A 1_555 1_555
Cu3A_3 O14A 1_555 1_555
Cu3A_4 O4A 1_555 1_555
Cu4_2 O2 1_555 1_555
Cu4_3 O15 1_555 1_555
Cu4A_2 O12 1_555 1_555
Cu4A_3 O15A 1_555 1_555
O2_2 Cu4 1_555 1_555
O2A_2 Cu4A 1_555 1_555
O3_2 Cu1 1_555 1_555
O3A_2 Cu1A 1_555 1_555
O4_2 Cu3 1_555 1_555
O4A_2 Cu3A 1_555 1_555
O6_2 Cu1A 1_555 1_555
O6A_2 Cu1 1_555 1_555
O9A_2 Cu3A 1_555 1_555
O11A_2 Cu2A 1_555 1_555
O12_2 Cu4A 1_555 1_555
O12A_2 Cu4 1_555 1_555
O13A_2 Cu1A 1_555 1_555
O14A_2 Cu3A 1_555 1_555
O15_2 Cu4 1_555 1_555
O15A_2 Cu4A 1_555 1_555
O17_2 Cu2A 1_555 1_555
O17A_2 Cu2 1_555 1_555
O18_2 Cu1A 1_555 1_555
O18A_2 Cu1 1_555 1_555
Cu3 O18 1_555 1_555
Cu4 O17 1_555 1_555
C5 C6 1_555 1_555
C11 C14 1_555 1_555
C16 C19 1_555 1_555
O18 Cu1A_4 1_555 1_555
O12A Cu4_3 1_555 1_555
C11A C13A 1_555 1_555
C17A C18A 1_555 1_555
Cu4A O17A 1_555 1_555
O2A Cu4A_2 1_555 1_555
C1A C7A 1_555 1_555
C5A C6A 1_555 1_555
C5A C10A 1_555 1_555
O18A Cu1_2 1_555 1_555
Cu1_2 O18_2 1_555 1_555
Cu1A_4 O18A_2 1_555 1_555
Cu2_2 O17_2 1_555 1_555
Cu2A_3 O17A_2 1_555 1_555
Cu4_2 O17_2 1_555 1_555
Cu4A_2 O17A_2 1_555 1_555

#END
