
#######################################################################
#
#                 Cambridge Crystallographic Data Centre
#                                CCDC 
#
#######################################################################
#
# If this CIF has been generated from an entry in the Cambridge 
# Structural Database, then it will include bibliographic, chemical, 
# crystal, experimental, refinement or atomic coordinate data resulting 
# from the CCDC's data processing and validation procedures.
#
#######################################################################

data_POSFIO
_symmetry_cell_setting           monoclinic
_symmetry_space_group_name_H-M   'P 21/c'
_symmetry_Int_Tables_number      14
_space_group_name_Hall           '-P 2ybc'
loop_
_symmetry_equiv_pos_site_id
_symmetry_equiv_pos_as_xyz
1 x,y,z
2 -x,1/2+y,1/2-z
3 -x,-y,-z
4 x,1/2-y,1/2+z
_cell_length_a                   13.4425(13)
_cell_length_b                   14.4204(13)
_cell_length_c                   20.4469(19)
_cell_angle_alpha                90
_cell_angle_beta                 108.168(2)
_cell_angle_gamma                90
_cell_volume                     3765.96
loop_
_atom_site_label
_atom_site_type_symbol
_atom_site_fract_x
_atom_site_fract_y
_atom_site_fract_z
Cu1 Cu 0.71989(4) 0.51715(5) 0.48770(3)
Cu2 Cu 0.5000 0.5000 1.0000
C1 C 0.6699(4) 0.3344(4) 0.2900(3)
H1 H 0.7173 0.3821 0.2920
C2 C 0.6305(5) 0.2836(4) 0.2299(3)
H2 H 0.6519 0.2971 0.1919
C3 C 0.5591(4) 0.2124(4) 0.2263(2)
C4 C 0.5294(5) 0.1921(4) 0.2838(3)
H3 H 0.4824 0.1442 0.2821
C5 C 0.5693(4) 0.2427(4) 0.3436(3)
H4 H 0.5491 0.2284 0.3819
C6 C 0.6391(4) 0.3147(4) 0.3469(3)
C7 C 0.6719(4) 0.3756(4) 0.4089(3)
C8 C 0.5097(4) 0.1628(4) 0.1607(2)
C9 C 0.4205(4) 0.1119(4) 0.1391(2)
H5 H 0.3779 0.0972 0.1657
C10 C 0.4814(4) 0.1188(4) 0.0541(3)
H6 H 0.4899 0.1114 0.0110
C11 C 0.7509(5) 0.6846(4) 0.7247(3)
H7 H 0.8020 0.7242 0.7188
C12 C 0.7339(5) 0.6807(4) 0.7879(3)
H8 H 0.7752 0.7157 0.8245
C13 C 0.6551(4) 0.6247(4) 0.7967(2)
C14 C 0.5944(5) 0.5723(5) 0.7412(3)
H9 H 0.5401 0.5359 0.7463
C15 C 0.6140(4) 0.5741(4) 0.6791(3)
H10 H 0.5744 0.5375 0.6429
C16 C 0.6935(4) 0.6308(4) 0.6703(2)
C17 C 0.7165(4) 0.6280(4) 0.6028(2)
C18 C 0.6341(4) 0.6164(4) 0.8627(2)
C19 C 0.6428(4) 0.6395(4) 0.9708(2)
H11 H 0.6627 0.6634 1.0153
C20 C 0.5683(4) 0.5579(4) 0.8812(2)
H12 H 0.5254 0.5142 0.8524
C21 C 0.7455(4) 0.5681(4) 1.2183(3)
H13 H 0.6889 0.6086 1.2055
C22 C 0.8205(4) 0.5768(4) 1.2828(3)
H14 H 0.8126 0.6220 1.3133
C23 C 0.9064(5) 0.5188(4) 1.3018(3)
C24 C 0.9150(5) 0.4507(5) 1.2560(3)
H15 H 0.9723 0.4110 1.2681
C25 C 0.8396(5) 0.4412(5) 1.1931(3)
H16 H 0.8461 0.3943 1.1634
C26 C 0.7544(4) 0.5001(4) 1.1733(3)
C27 C 0.6713(4) 0.4876(4) 1.1045(3)
C28 C 0.9887(4) 0.5270(4) 1.3683(3)
C29 C 1.0833(5) 0.4913(4) 1.3917(3)
H17 H 1.1105 0.4505 1.3664
C30 C 1.0738(7) 0.5771(8) 1.4729(4)
H18 H 1.0916 0.6114 1.5135
N1 N 1.1371(3) 0.5197(3) 1.4561(2)
N2 N 0.5745(3) 0.5725(3) 0.94855(19)
N3 N 0.4029(3) 0.0853(3) 0.0721(2)
N4 N 0.5471(3) 0.1650(3) 0.1062(2)
H19 H 0.6039 0.1918 0.1055
N5 N 0.6798(4) 0.6688(3) 0.9207(2)
H20 H 0.7243 0.7128 0.9242
N6 N 0.9776(5) 0.5804(7) 1.4232(3)
H21 H 0.9225 0.6090 1.4251
O1 O 0.7294(3) 0.4456(3) 0.40742(17)
O2 O 0.6427(3) 0.3586(3) 0.46001(18)
O3 O 0.6850(3) 0.5551(3) 0.56823(17)
O4 O 0.7656(4) 0.6927(3) 0.5867(2)
O5 O 0.5978(3) 0.5468(3) 1.08816(16)
O6 O 0.6758(4) 0.4214(3) 1.0675(2)
Cu1B Cu 0.28011(4) 0.48285(5) 1.51230(3)
C1B C 0.3301(4) 0.6656(4) 1.7100(3)
H1B H 0.2827 0.6179 1.7080
C2B C 0.3695(5) 0.7164(4) 1.7701(3)
H2B H 0.3481 0.7029 1.8081
C3B C 0.4409(4) 0.7876(4) 1.7737(2)
C4B C 0.4706(5) 0.8079(4) 1.7162(3)
H3B H 0.5176 0.8558 1.7179
C5B C 0.4307(4) 0.7573(4) 1.6564(3)
H4B H 0.4509 0.7716 1.6181
C6B C 0.3609(4) 0.6853(4) 1.6531(3)
C7B C 0.3281(4) 0.6244(4) 1.5911(3)
C8B C 0.4903(4) 0.8372(4) 1.8393(2)
C9B C 0.5795(4) 0.8881(4) 1.8609(2)
H5B H 0.6221 0.9028 1.8343
C10B C 0.5186(4) 0.8812(4) 1.9459(3)
H6B H 0.5101 0.8886 1.9890
C11B C 0.2491(5) 0.3154(4) 1.2753(3)
H7B H 0.1980 0.2758 1.2812
C12B C 0.2661(5) 0.3193(4) 1.2121(3)
H8B H 0.2248 0.2843 1.1755
C13B C 0.3449(4) 0.3753(4) 1.2033(2)
C14B C 0.4056(5) 0.4277(5) 1.2588(3)
H9B H 0.4599 0.4641 1.2537
C15B C 0.3860(4) 0.4259(4) 1.3209(3)
H10B H 0.4256 0.4625 1.3571
C16B C 0.3065(4) 0.3692(4) 1.3297(2)
C17B C 0.2835(4) 0.3720(4) 1.3972(2)
C18B C 0.3659(4) 0.3836(4) 1.1373(2)
C19B C 0.3572(4) 0.3605(4) 1.0292(2)
H11B H 0.3373 0.3366 0.9847
C20B C 0.4317(4) 0.4421(4) 1.1188(2)
H12B H 0.4746 0.4858 1.1476
C21B C 0.2545(4) 0.4319(4) 0.7817(3)
H13B H 0.3111 0.3914 0.7945
C22B C 0.1795(4) 0.4232(4) 0.7172(3)
H14B H 0.1874 0.3780 0.6867
C23B C 0.0936(5) 0.4812(4) 0.6982(3)
C24B C 0.0850(5) 0.5493(5) 0.7440(3)
H15B H 0.0277 0.5890 0.7319
C25B C 0.1604(5) 0.5588(5) 0.8069(3)
H16B H 0.1539 0.6057 0.8366
C26B C 0.2456(4) 0.4999(4) 0.8267(3)
C27B C 0.3287(4) 0.5124(4) 0.8955(3)
C28B C 0.0113(4) 0.4730(4) 0.6317(3)
C29B C -0.0833(5) 0.5087(4) 0.6083(3)
H17B H -0.1105 0.5495 0.6336
C30B C -0.0738(7) 0.4229(8) 0.5271(4)
H18B H -0.0916 0.3886 0.4865
N1B N -0.1371(3) 0.4803(3) 0.5439(2)
N2B N 0.4255(3) 0.4275(3) 1.05145(19)
N3B N 0.5971(3) 0.9147(3) 1.9279(2)
N4B N 0.4529(3) 0.8350(3) 1.8938(2)
H19B H 0.3961 0.8082 1.8945
N5B N 0.3202(4) 0.3312(3) 1.0793(2)
H20B H 0.2757 0.2872 1.0758
N6B N 0.0224(5) 0.4196(7) 0.5768(3)
H21B H 0.0775 0.3910 0.5749
O1B O 0.2706(3) 0.5544(3) 1.59258(17)
O2B O 0.3573(3) 0.6414(3) 1.53999(18)
O3B O 0.3150(3) 0.4449(3) 1.43177(17)
O4B O 0.2344(4) 0.3073(3) 1.4133(2)
O5B O 0.4022(3) 0.4532(3) 0.91184(16)
O6B O 0.3242(4) 0.5786(3) 0.9325(2)
Cu1_2 Cu -0.28011(4) 0.51715(5) 0.48770(3)
Cu1A Cu 0.28011(4) 0.01715(5) 0.01230(3)
Cu1B_2 Cu 1.28011(4) 0.48285(5) 1.51230(3)
Cu1C Cu 0.71989(4) 0.98285(5) 1.98770(3)
N1_2 N 0.1371(3) 0.5197(3) 1.4561(2)
N1B_2 N 0.8629(3) 0.4803(3) 0.5439(2)
N3A N 0.5971(3) 0.5853(3) 0.4279(2)
N3C N 0.4029(3) 0.4147(3) 1.5721(2)
O7 O 0.1639(4) 0.1972(3) 0.0259(2)
O8 O 0.7258(4) 0.2384(3) 0.0829(2)
O9 O 0.9706(16) 0.2917(13) 0.9756(13)
O10 O 0.900(2) 0.3594(19) 0.869(3)
O11 O 0.927(7) 0.318(7) 0.937(5)
O12 O 1.0003(18) 0.2041(13) 0.6131(12)
O13 O 0.814(2) 0.395(2) 0.9494(15)
O14? O 0.995(3) 0.300(2) 0.845(2)
O15? O 0.828(3) 0.412(2) 0.807(3)
O16? O 0.942(3) 0.5094(15) 0.8622(16)
loop_
_geom_bond_atom_site_label_1
_geom_bond_atom_site_label_2
_geom_bond_site_symmetry_1
_geom_bond_site_symmetry_2
Cu1 O1 1_555 1_555
Cu2 N2 1_555 1_555
C1 H1 1_555 1_555
C2 C1 1_555 1_555
H2 C2 1_555 1_555
C3 C2 1_555 1_555
C4 C3 1_555 1_555
H3 C4 1_555 1_555
C5 C4 1_555 1_555
H4 C5 1_555 1_555
C6 C1 1_555 1_555
C7 C6 1_555 1_555
C8 C3 1_555 1_555
C9 C8 1_555 1_555
H5 C9 1_555 1_555
C10 H6 1_555 1_555
C11 H7 1_555 1_555
C12 C11 1_555 1_555
H8 C12 1_555 1_555
C13 C12 1_555 1_555
C14 C13 1_555 1_555
H9 C14 1_555 1_555
C15 C14 1_555 1_555
H10 C15 1_555 1_555
C16 C11 1_555 1_555
C17 C16 1_555 1_555
C18 C13 1_555 1_555
C19 H11 1_555 1_555
C20 C18 1_555 1_555
H12 C20 1_555 1_555
C21 H13 1_555 1_555
C22 C21 1_555 1_555
H14 C22 1_555 1_555
C23 C22 1_555 1_555
C24 C23 1_555 1_555
H15 C24 1_555 1_555
C25 C24 1_555 1_555
H16 C25 1_555 1_555
C26 C21 1_555 1_555
C27 C26 1_555 1_555
C28 C23 1_555 1_555
C29 C28 1_555 1_555
H17 C29 1_555 1_555
C30 H18 1_555 1_555
N1 C29 1_555 1_555
N2 C19 1_555 1_555
N3 C9 1_555 1_555
N4 C8 1_555 1_555
H19 N4 1_555 1_555
N5 C18 1_555 1_555
H20 N5 1_555 1_555
N6 C28 1_555 1_555
H21 N6 1_555 1_555
O1 C7 1_555 1_555
O2 Cu1 1_555 1_555
O3 Cu1 1_555 1_555
O4 C17 1_555 1_555
O5 Cu2 1_555 1_555
O6 Cu2 1_555 1_555
Cu1B O1B 1_555 1_555
C1B H1B 1_555 1_555
C2B C1B 1_555 1_555
H2B C2B 1_555 1_555
C3B C2B 1_555 1_555
C4B C3B 1_555 1_555
H3B C4B 1_555 1_555
C5B C4B 1_555 1_555
H4B C5B 1_555 1_555
C6B C1B 1_555 1_555
C7B C6B 1_555 1_555
C8B C3B 1_555 1_555
C9B C8B 1_555 1_555
H5B C9B 1_555 1_555
C10B H6B 1_555 1_555
C11B H7B 1_555 1_555
C12B C11B 1_555 1_555
H8B C12B 1_555 1_555
C13B C12B 1_555 1_555
C14B C13B 1_555 1_555
H9B C14B 1_555 1_555
C15B C14B 1_555 1_555
H10B C15B 1_555 1_555
C16B C11B 1_555 1_555
C17B C16B 1_555 1_555
C18B C13B 1_555 1_555
C19B H11B 1_555 1_555
C20B C18B 1_555 1_555
H12B C20B 1_555 1_555
C21B H13B 1_555 1_555
C22B C21B 1_555 1_555
H14B C22B 1_555 1_555
C23B C22B 1_555 1_555
C24B C23B 1_555 1_555
H15B C24B 1_555 1_555
C25B C24B 1_555 1_555
H16B C25B 1_555 1_555
C26B C21B 1_555 1_555
C27B C26B 1_555 1_555
C28B C23B 1_555 1_555
C29B C28B 1_555 1_555
H17B C29B 1_555 1_555
C30B H18B 1_555 1_555
N1B C29B 1_555 1_555
N2B Cu2 1_555 1_555
N3B C9B 1_555 1_555
N4B C8B 1_555 1_555
H19B N4B 1_555 1_555
N5B C18B 1_555 1_555
H20B N5B 1_555 1_555
N6B C28B 1_555 1_555
H21B N6B 1_555 1_555
O1B C7B 1_555 1_555
O2B Cu1B 1_555 1_555
O3B Cu1B 1_555 1_555
O4B C17B 1_555 1_555
O5B Cu2 1_555 1_555
O6B Cu2 1_555 1_555
Cu1_2 N1B 1_555 1_555
Cu1A N3 1_555 1_555
Cu1B_2 N1 1_555 1_555
Cu1C N3B 1_555 1_555
N1_2 Cu1B 1_555 1_555
N1B_2 Cu1 1_555 1_555
N3A Cu1 1_555 1_555
N3C Cu1B 1_555 1_555
C5 C6 1_555 1_555
C7 O2 1_555 1_555
C10 N3 1_555 1_555
C10 N4 1_555 1_555
C15 C16 1_555 1_555
C17 O3 1_555 1_555
C19 N5 1_555 1_555
C20 N2 1_555 1_555
C25 C26 1_555 1_555
C27 O5 1_555 1_555
C27 O6 1_555 1_555
C30 N1 1_555 1_555
C30 N6 1_555 1_555
C5B C6B 1_555 1_555
C7B O2B 1_555 1_555
C10B N3B 1_555 1_555
C10B N4B 1_555 1_555
C15B C16B 1_555 1_555
C17B O3B 1_555 1_555
C19B N2B 1_555 1_555
C19B N5B 1_555 1_555
C20B N2B 1_555 1_555
C25B C26B 1_555 1_555
C27B O5B 1_555 1_555
C27B O6B 1_555 1_555
C30B N1B 1_555 1_555
C30B N6B 1_555 1_555

#END
