
#######################################################################
#
#                 Cambridge Crystallographic Data Centre
#                                CCDC 
#
#######################################################################
#
# If this CIF has been generated from an entry in the Cambridge 
# Structural Database, then it will include bibliographic, chemical, 
# crystal, experimental, refinement or atomic coordinate data resulting 
# from the CCDC's data processing and validation procedures.
#
#######################################################################

data_POSGOV
_symmetry_cell_setting           orthorhombic
_symmetry_space_group_name_H-M   'P n n a'
_symmetry_Int_Tables_number      52
_space_group_name_Hall           '-P 2a 2bc'
loop_
_symmetry_equiv_pos_site_id
_symmetry_equiv_pos_as_xyz
1 x,y,z
2 1/2-x,-y,z
3 1/2-x,1/2+y,1/2-z
4 x,1/2-y,1/2-z
5 -x,-y,-z
6 1/2+x,y,-z
7 1/2+x,1/2-y,1/2+z
8 -x,1/2+y,1/2+z
_cell_length_a                   16.0788(15)
_cell_length_b                   15.1770(15)
_cell_length_c                   11.3011(11)
_cell_angle_alpha                90
_cell_angle_beta                 90
_cell_angle_gamma                90
_cell_volume                     2757.78
loop_
_atom_site_label
_atom_site_type_symbol
_atom_site_fract_x
_atom_site_fract_y
_atom_site_fract_z
Zn1 Zn 0.2500 0.5000 0.82662(3)
C1 C 0.44969(11) 0.25812(13) 0.58530(19)
C2 C 0.43953(12) 0.17854(14) 0.5272(2)
H1 H 0.3861 0.1573 0.5135
C3 C 0.50738(12) 0.12994(14) 0.4889(2)
H2 H 0.4991 0.0765 0.4504
C4 C 0.58730(11) 0.16031(13) 0.50776(19)
C5 C 0.59734(12) 0.23861(14) 0.5682(2)
H3 H 0.6508 0.2589 0.5837
C6 C 0.53126(12) 0.28689(15) 0.6057(2)
H4 H 0.5403 0.3397 0.6454
C7 C 0.37949(11) 0.31001(13) 0.62718(18)
C8 C 0.24947(12) 0.34414(15) 0.66337(19)
H5 H 0.1917 0.3418 0.6643
C9 C 0.37512(12) 0.38421(13) 0.69456(18)
H6 H 0.4208 0.4161 0.7214
C10 C 0.66109(12) 0.11003(13) 0.46357(19)
N1 N 0.29371(10) 0.40508(10) 0.71717(15)
N2 N 0.29749(9) 0.28642(10) 0.60767(15)
H7 H 0.2806 0.2422 0.5667
O1 O 0.73298(8) 0.13592(10) 0.48823(15)
O2 O 0.64740(8) 0.04273(10) 0.39964(15)
C1A C 0.05031(11) 0.74188(13) 0.58530(19)
C2A C 0.06047(12) 0.82146(14) 0.5272(2)
H1A H 0.1139 0.8427 0.5135
C3A C -0.00738(12) 0.87006(14) 0.4889(2)
H2A H 0.0009 0.9235 0.4504
C4A C -0.08730(11) 0.83969(13) 0.50776(19)
C5A C -0.09734(12) 0.76139(14) 0.5682(2)
H3A H -0.1508 0.7411 0.5837
C6A C -0.03126(12) 0.71311(15) 0.6057(2)
H4A H -0.0403 0.6603 0.6454
C7A C 0.12051(11) 0.68999(13) 0.62718(18)
C8A C 0.25053(12) 0.65586(15) 0.66337(19)
H5A H 0.3083 0.6582 0.6643
C9A C 0.12488(12) 0.61579(13) 0.69456(18)
H6A H 0.0792 0.5839 0.7214
C10A C -0.16109(12) 0.88997(13) 0.46357(19)
N1A N 0.20629(10) 0.59492(10) 0.71717(15)
N2A N 0.20251(9) 0.71358(10) 0.60767(15)
H7A H 0.2194 0.7578 0.5667
O1A O -0.23298(8) 0.86408(10) 0.48823(15)
O2A O -0.14740(8) 0.95727(10) 0.39964(15)
Zn1F Zn -0.2500 1.0000 0.32662(3)
Zn1F_2 Zn 0.7500 0.0000 0.32662(3)
O2F O 0.14740(8) 0.45727(10) 0.89964(15)
O2G O 0.35260(8) 0.54273(10) 0.89964(15)
loop_
_geom_bond_atom_site_label_1
_geom_bond_atom_site_label_2
_geom_bond_site_symmetry_1
_geom_bond_site_symmetry_2
Zn1 N1 1_555 1_555
C1 C2 1_555 1_555
C2 H1 1_555 1_555
C3 C2 1_555 1_555
H2 C3 1_555 1_555
C4 C3 1_555 1_555
C5 C4 1_555 1_555
H3 C5 1_555 1_555
C6 C1 1_555 1_555
H4 C6 1_555 1_555
C7 C1 1_555 1_555
C8 H5 1_555 1_555
C9 C7 1_555 1_555
H6 C9 1_555 1_555
C10 C4 1_555 1_555
N1 C8 1_555 1_555
N2 C7 1_555 1_555
H7 N2 1_555 1_555
O1 C10 1_555 1_555
O2 C10 1_555 1_555
C1A C2A 1_555 1_555
C2A H1A 1_555 1_555
C3A C2A 1_555 1_555
H2A C3A 1_555 1_555
C4A C3A 1_555 1_555
C5A C4A 1_555 1_555
H3A C5A 1_555 1_555
C6A C1A 1_555 1_555
H4A C6A 1_555 1_555
C7A C1A 1_555 1_555
C8A H5A 1_555 1_555
C9A C7A 1_555 1_555
H6A C9A 1_555 1_555
C10A C4A 1_555 1_555
N1A Zn1 1_555 1_555
N2A C7A 1_555 1_555
H7A N2A 1_555 1_555
O1A C10A 1_555 1_555
O2A C10A 1_555 1_555
Zn1F O2A 1_555 1_555
Zn1F_2 O2 1_555 1_555
O2F Zn1 1_555 1_555
O2G Zn1 1_555 1_555
C5 C6 1_555 1_555
C8 N2 1_555 1_555
C9 N1 1_555 1_555
C5A C6A 1_555 1_555
C8A N1A 1_555 1_555
C8A N2A 1_555 1_555
C9A N1A 1_555 1_555

#END
