
#######################################################################
#
#                 Cambridge Crystallographic Data Centre
#                                CCDC 
#
#######################################################################
#
# If this CIF has been generated from an entry in the Cambridge 
# Structural Database, then it will include bibliographic, chemical, 
# crystal, experimental, refinement or atomic coordinate data resulting 
# from the CCDC's data processing and validation procedures.
#
#######################################################################

data_POTREX
_symmetry_cell_setting           tetragonal
_symmetry_space_group_name_H-M   'I 41/a'
_symmetry_Int_Tables_number      88
_space_group_name_Hall           '-I 4ad'
loop_
_symmetry_equiv_pos_site_id
_symmetry_equiv_pos_as_xyz
1 x,y,z
2 -x,1/2-y,z
3 3/4-y,1/4+x,1/4+z
4 1/4+y,1/4-x,1/4+z
5 1/2+x,1/2+y,1/2+z
6 1/2-x,-y,1/2+z
7 1/4-y,3/4+x,3/4+z
8 3/4+y,3/4-x,3/4+z
9 -x,-y,-z
10 x,1/2+y,-z
11 1/4+y,3/4-x,3/4-z
12 3/4-y,3/4+x,3/4-z
13 1/2-x,1/2-y,1/2-z
14 1/2+x,y,1/2-z
15 3/4+y,1/4-x,1/4-z
16 1/4-y,1/4+x,1/4-z
_cell_length_a                   21.110(4)
_cell_length_b                   21.110(4)
_cell_length_c                   51.711(1)
_cell_angle_alpha                90
_cell_angle_beta                 90
_cell_angle_gamma                90
_cell_volume                     23044.1
loop_
_atom_site_label
_atom_site_type_symbol
_atom_site_fract_x
_atom_site_fract_y
_atom_site_fract_z
Co1 Co 0.53804(3) 1.17678(3) 0.116365(11)
O1 O 0.5000 1.2500 0.13675(7)
O2 O 0.53989(16) 0.83033(14) -0.09276(6)
O3 O 0.58120(16) 0.73396(15) -0.08805(6)
N1 N 0.7036(2) 0.90693(19) 0.06909(8)
N2 N 0.86053(18) 0.7565(2) 0.10690(8)
C1 C 0.6020(2) 0.8102(2) -0.05576(9)
C2 C 0.5727(2) 0.7892(2) -0.08097(8)
N3 N 0.5812(2) 1.09927(18) 0.09601(7)
C3 C 0.6610(3) 0.9400(2) 0.05538(10)
O4 O 0.61839(18) 1.1817(2) 0.14095(7)
C4 C 0.6423(3) 0.9231(2) 0.03082(10)
H1 H 0.6126 0.9474 0.0220
C5 C 0.6334(3) 0.9955(2) 0.06893(10)
C6 C 0.7302(3) 0.8554(2) 0.05752(10)
C7 C 0.7758(2) 0.8202(3) 0.07424(11)
C8 C 0.6175(3) 1.0560(3) 0.10723(11)
H2 H 0.6259 1.0610 0.1248
C9 C 0.6243(3) 0.8917(3) -0.02509(11)
H3 H 0.6241 0.9345 -0.0209
C10 C 0.6683(3) 0.8688(2) 0.01903(10)
C11 C 0.5952(3) 1.0397(3) 0.05702(11)
H4 H 0.5856 1.0355 0.0395
C12 C 0.7130(3) 0.8357(3) 0.03337(10)
H5 H 0.7315 0.7995 0.0264
C13 C 0.6011(3) 0.8733(2) -0.04865(10)
H6 H 0.5848 0.9035 -0.0599
C14 C 0.6481(3) 0.8488(2) -0.00732(10)
C15 C 0.5711(3) 1.0900(3) 0.07079(10)
H7 H 0.5462 1.1193 0.0620
C16 C 0.6435(3) 1.0047(3) 0.09526(10)
H8 H 0.6679 0.9761 0.1046
C17 C 0.6502(3) 0.7868(3) -0.01525(11)
H9 H 0.6673 0.7565 -0.0042
C18 C 0.6279(3) 0.7682(3) -0.03891(10)
H10 H 0.6306 0.7258 -0.0436
C19 C 0.8056(3) 0.7679(3) 0.06723(14)
H11 H 0.7978 0.7503 0.0511
C20 C 0.8485(3) 0.7391(3) 0.08382(11)
H12 H 0.8704 0.7041 0.0775
C21 C 0.7871(3) 0.8397(3) 0.09858(12)
H13 H 0.7666 0.8753 0.1050
C22 C 0.8294(3) 0.8065(3) 0.11412(14)
H14 H 0.8359 0.8212 0.1309
C23 C 0.6392(5) 1.2328(5) 0.1480(2)
H15 H 0.6207 1.2686 0.1407
N4 N 0.6859(7) 1.2426(7) 0.1651(3)
C24 C 0.7199(7) 1.1899(7) 0.1760(3)
H16 H 0.7532 1.2055 0.1870
H17 H 0.7379 1.1648 0.1624
H18 H 0.6914 1.1644 0.1860
C25 C 0.7045(7) 1.3026(7) 0.1777(3)
H19 H 0.7402 1.2953 0.1888
H20 H 0.6697 1.3183 0.1877
H21 H 0.7156 1.3332 0.1647
Co1A Co 0.46196(3) 1.32322(3) 0.116365(11)
O2A O 0.46011(16) 1.66967(14) -0.09276(6)
O3A O 0.41880(16) 1.76604(15) -0.08805(6)
N1A N 0.2964(2) 1.59307(19) 0.06909(8)
N2A N 0.13947(18) 1.7435(2) 0.10690(8)
C1A C 0.3980(2) 1.6898(2) -0.05576(9)
C2A C 0.4273(2) 1.7108(2) -0.08097(8)
N3A N 0.4188(2) 1.40073(18) 0.09601(7)
C3A C 0.3390(3) 1.5600(2) 0.05538(10)
O4A O 0.38161(18) 1.3183(2) 0.14095(7)
C4A C 0.3577(3) 1.5769(2) 0.03082(10)
H1A H 0.3874 1.5526 0.0220
C5A C 0.3666(3) 1.5045(2) 0.06893(10)
C6A C 0.2698(3) 1.6446(2) 0.05752(10)
C7A C 0.2242(2) 1.6798(3) 0.07424(11)
C8A C 0.3825(3) 1.4440(3) 0.10723(11)
H2A H 0.3741 1.4390 0.1248
C9A C 0.3757(3) 1.6083(3) -0.02509(11)
H3A H 0.3759 1.5655 -0.0209
C10A C 0.3317(3) 1.6312(2) 0.01903(10)
C11A C 0.4048(3) 1.4603(3) 0.05702(11)
H4A H 0.4144 1.4645 0.0395
C12A C 0.2870(3) 1.6643(3) 0.03337(10)
H5A H 0.2685 1.7005 0.0264
C13A C 0.3989(3) 1.6267(2) -0.04865(10)
H6A H 0.4152 1.5965 -0.0599
C14A C 0.3519(3) 1.6512(2) -0.00732(10)
C15A C 0.4289(3) 1.4100(3) 0.07079(10)
H7A H 0.4538 1.3807 0.0620
C16A C 0.3565(3) 1.4953(3) 0.09526(10)
H8A H 0.3321 1.5239 0.1046
C17A C 0.3498(3) 1.7132(3) -0.01525(11)
H9A H 0.3327 1.7435 -0.0042
C18A C 0.3721(3) 1.7318(3) -0.03891(10)
H10A H 0.3694 1.7742 -0.0436
C19A C 0.1944(3) 1.7321(3) 0.06723(14)
H11A H 0.2022 1.7497 0.0511
C20A C 0.1515(3) 1.7609(3) 0.08382(11)
H12A H 0.1296 1.7959 0.0775
C21A C 0.2129(3) 1.6603(3) 0.09858(12)
H13A H 0.2334 1.6247 0.1050
C22A C 0.1706(3) 1.6935(3) 0.11412(14)
H14A H 0.1641 1.6788 0.1309
C23A C 0.3608(5) 1.2672(5) 0.1480(2)
H15A H 0.3793 1.2314 0.1407
N4A N 0.3141(7) 1.2574(7) 0.1651(3)
C24A C 0.2801(7) 1.3101(7) 0.1760(3)
H16A H 0.2468 1.2945 0.1870
H17A H 0.2621 1.3352 0.1624
H18A H 0.3086 1.3356 0.1860
C25A C 0.2955(7) 1.1974(7) 0.1777(3)
H19A H 0.2598 1.2047 0.1888
H20A H 0.3303 1.1817 0.1877
H21A H 0.2844 1.1668 0.1647
Co1H Co 0.46196(3) 0.82322(3) -0.116365(11)
Co1H_2 Co 0.46196(3) 1.82322(3) -0.116365(11)
Co1I Co 0.53804(3) 0.67678(3) -0.116365(11)
Co1I_2 Co 0.53804(3) 1.67678(3) -0.116365(11)
Co1N Co 0.92678(3) 0.71196(3) 0.133635(11)
Co1O Co 0.07322(3) 1.78804(3) 0.133635(11)
O2H O 0.46011(16) 1.16967(14) 0.09276(6)
O2I O 0.53989(16) 1.33033(14) 0.09276(6)
O3H O 0.41880(16) 1.26604(15) 0.08805(6)
O3I O 0.58120(16) 1.23396(15) 0.08805(6)
N2N N 0.5065(2) 1.38947(18) 0.14310(8)
N2O N 0.4935(2) 1.11053(18) 0.14310(8)
loop_
_geom_bond_atom_site_label_1
_geom_bond_atom_site_label_2
_geom_bond_site_symmetry_1
_geom_bond_site_symmetry_2
Co1 O1 1_555 1_555
O1 Co1A 1_555 1_555
O2 C2 1_555 1_555
O3 C2 1_555 1_555
N1 C3 1_555 1_555
N2 C20 1_555 1_555
C1 C2 1_555 1_555
N3 Co1 1_555 1_555
C3 C4 1_555 1_555
O4 Co1 1_555 1_555
C4 H1 1_555 1_555
C5 C3 1_555 1_555
C6 N1 1_555 1_555
C7 C6 1_555 1_555
C8 N3 1_555 1_555
H2 C8 1_555 1_555
C9 H3 1_555 1_555
C10 C4 1_555 1_555
C11 C5 1_555 1_555
H4 C11 1_555 1_555
C12 C6 1_555 1_555
H5 C12 1_555 1_555
C13 C1 1_555 1_555
H6 C13 1_555 1_555
C14 C9 1_555 1_555
C15 N3 1_555 1_555
H7 C15 1_555 1_555
C16 C5 1_555 1_555
H8 C16 1_555 1_555
C17 C14 1_555 1_555
H9 C17 1_555 1_555
C18 C1 1_555 1_555
H10 C18 1_555 1_555
C19 C7 1_555 1_555
H11 C19 1_555 1_555
C20 C19 1_555 1_555
H12 C20 1_555 1_555
C21 C7 1_555 1_555
H13 C21 1_555 1_555
C22 N2 1_555 1_555
H14 C22 1_555 1_555
C23 O4 1_555 1_555
H15 C23 1_555 1_555
N4 C23 1_555 1_555
C24 N4 1_555 1_555
H16 C24 1_555 1_555
H17 C24 1_555 1_555
H18 C24 1_555 1_555
C25 N4 1_555 1_555
H19 C25 1_555 1_555
H20 C25 1_555 1_555
H21 C25 1_555 1_555
Co1A N3A 1_555 1_555
O2A C2A 1_555 1_555
O3A C2A 1_555 1_555
N1A C3A 1_555 1_555
N2A C20A 1_555 1_555
C1A C2A 1_555 1_555
N3A C8A 1_555 1_555
C3A C4A 1_555 1_555
O4A Co1A 1_555 1_555
C4A H1A 1_555 1_555
C5A C3A 1_555 1_555
C6A N1A 1_555 1_555
C7A C6A 1_555 1_555
C8A H2A 1_555 1_555
C9A H3A 1_555 1_555
C10A C4A 1_555 1_555
C11A C5A 1_555 1_555
H4A C11A 1_555 1_555
C12A C6A 1_555 1_555
H5A C12A 1_555 1_555
C13A C1A 1_555 1_555
H6A C13A 1_555 1_555
C14A C9A 1_555 1_555
C15A N3A 1_555 1_555
H7A C15A 1_555 1_555
C16A C5A 1_555 1_555
H8A C16A 1_555 1_555
C17A C14A 1_555 1_555
H9A C17A 1_555 1_555
C18A C1A 1_555 1_555
H10A C18A 1_555 1_555
C19A C7A 1_555 1_555
H11A C19A 1_555 1_555
C20A C19A 1_555 1_555
H12A C20A 1_555 1_555
C21A C7A 1_555 1_555
H13A C21A 1_555 1_555
C22A N2A 1_555 1_555
H14A C22A 1_555 1_555
C23A O4A 1_555 1_555
H15A C23A 1_555 1_555
N4A C23A 1_555 1_555
C24A N4A 1_555 1_555
H16A C24A 1_555 1_555
H17A C24A 1_555 1_555
H18A C24A 1_555 1_555
C25A N4A 1_555 1_555
H19A C25A 1_555 1_555
H20A C25A 1_555 1_555
H21A C25A 1_555 1_555
Co1H O2 1_555 1_555
Co1H_2 O3A 1_555 1_555
Co1I O3 1_555 1_555
Co1I_2 O2A 1_555 1_555
Co1N N2 1_555 1_555
Co1O N2A 1_555 1_555
O2H Co1 1_555 1_555
O2I Co1A 1_555 1_555
O3H Co1A 1_555 1_555
O3I Co1 1_555 1_555
N2N Co1A 1_555 1_555
N2O Co1 1_555 1_555
C8 C16 1_555 1_555
C9 C13 1_555 1_555
C10 C12 1_555 1_555
C10 C14 1_555 1_555
C11 C15 1_555 1_555
C17 C18 1_555 1_555
C21 C22 1_555 1_555
C8A C16A 1_555 1_555
C9A C13A 1_555 1_555
C10A C12A 1_555 1_555
C10A C14A 1_555 1_555
C11A C15A 1_555 1_555
C17A C18A 1_555 1_555
C21A C22A 1_555 1_555

#END
