
#######################################################################
#
#                 Cambridge Crystallographic Data Centre
#                                CCDC 
#
#######################################################################
#
# If this CIF has been generated from an entry in the Cambridge 
# Structural Database, then it will include bibliographic, chemical, 
# crystal, experimental, refinement or atomic coordinate data resulting 
# from the CCDC's data processing and validation procedures.
#
#######################################################################

data_POVZOR
_symmetry_cell_setting           triclinic
_symmetry_space_group_name_H-M   'P -1'
_symmetry_Int_Tables_number      2
_space_group_name_Hall           '-P 1'
loop_
_symmetry_equiv_pos_site_id
_symmetry_equiv_pos_as_xyz
1 x,y,z
2 -x,-y,-z
_cell_length_a                   11.378(5)
_cell_length_b                   12.184(5)
_cell_length_c                   23.328(5)
_cell_angle_alpha                83.715(5)
_cell_angle_beta                 81.990(5)
_cell_angle_gamma                70.714(5)
_cell_volume                     3015.71
loop_
_atom_site_label
_atom_site_type_symbol
_atom_site_fract_x
_atom_site_fract_y
_atom_site_fract_z
W1 W 1.08841(6) 0.50950(5) 0.23553(3)
W2 W 0.98897(6) 0.65679(5) 0.36914(3)
W3 W 0.98256(6) 1.01434(5) 0.25484(3)
W4 W 0.76538(6) 0.92133(6) 0.36919(3)
W5 W 0.68367(6) 0.68620(5) 0.35466(3)
W6 W 0.78866(6) 0.53435(5) 0.21813(3)
W7 W 0.97035(6) 0.62909(5) 0.11102(3)
W8 W 0.74210(6) 0.92476(5) 0.10777(3)
W9 W 0.64914(6) 1.06816(5) 0.23091(3)
W10 W 1.07163(5) 0.88243(5) 0.13298(2)
W11 W 0.56206(5) 0.83379(5) 0.21687(3)
Cu1 Cu 1.10846(17) 0.24324(16) 0.25486(7)
Cu2 Cu 1.69184(17) 0.13081(17) -0.02764(8)
Cu3 Cu 0.5000 0.5000 0.5000
Eu1 Eu 1.26236(7) 0.73370(7) 0.25992(4)
Si1 Si 0.8722(4) 0.7867(3) 0.23780(17)
O1 O 1.1949(10) 0.3685(9) 0.2438(5)
O2 O 1.0586(11) 0.5740(11) 0.4260(5)
O3 O 0.9880(11) 1.1528(9) 0.2683(5)
O4 O 0.7168(12) 1.0191(11) 0.4227(5)
O5 O 0.5741(11) 0.6356(10) 0.3951(5)
O6 O 0.7103(11) 0.4354(10) 0.2159(5)
O7 O 1.0184(10) 0.5839(11) 0.0428(5)
O8 O 0.7074(10) 0.9788(9) 0.0387(5)
O9 O 0.5562(11) 1.2062(11) 0.2417(6)
O10 O 1.1364(9) 0.9310(9) 0.0660(5)
O11 O 0.4101(9) 0.8306(10) 0.2184(5)
O12 O 0.7469(9) 0.8687(8) 0.2083(4)
O13 O 0.6546(10) 0.8286(9) 0.3905(5)
O14 O 0.8930(10) 0.7983(9) 0.4061(5)
O15 O 0.8241(10) 0.6179(10) 0.3897(5)
O16 O 0.6661(10) 1.0012(10) 0.3103(5)
O17 O 0.7409(11) 0.5768(9) 0.2953(5)
O18 O 1.0213(10) 0.5410(9) 0.3128(4)
O19 O 1.1029(10) 0.7128(10) 0.3323(5)
O20 O 0.8049(10) 1.0740(9) 0.2299(5)
O21 O 1.1355(11) 0.9307(9) 0.2693(5)
O22 O 1.1838(10) 0.5964(9) 0.2313(5)
O23 O 1.2110(10) 0.8121(10) 0.1654(5)
O24 O 1.0307(9) 1.0215(8) 0.1717(4)
O25 O 0.8923(9) 0.9467(9) 0.1109(5)
O26 O 0.6582(10) 1.0641(8) 0.1475(5)
O27 O 0.8291(9) 0.7652(8) 0.0968(4)
O28 O 1.0918(9) 0.5100(9) 0.1517(4)
O29 O 0.9424(10) 0.4382(9) 0.2372(5)
O30 O 0.5198(10) 0.9952(9) 0.2337(5)
O31 O 0.8549(10) 0.5471(10) 0.1381(4)
O32 O 0.6602(10) 0.6791(10) 0.1987(5)
O33 O 1.0566(10) 0.7383(9) 0.1147(5)
O34 O 0.5861(10) 0.7900(9) 0.2949(5)
O35 O 0.8963(9) 0.9718(9) 0.3246(5)
O36 O 0.5903(10) 0.8819(10) 0.1362(5)
O37 O 0.8400(10) 0.7733(9) 0.3069(5)
O38 O 0.9166(9) 0.6566(9) 0.2121(4)
O39 O 0.9791(9) 0.8517(9) 0.2217(4)
O40 O 1.4299(13) 0.5985(13) 0.1959(8)
O41 O 1.4016(17) 0.5830(13) 0.3189(7)
O42 O 1.3245(15) 0.8156(15) 0.3405(6)
O43 O 1.2737(11) 0.0880(11) 0.2591(6)
O44 O 1.6381(10) 0.0701(9) -0.0932(5)
C1 C 0.9955(16) 0.2722(16) 0.3748(8)
H1 H 0.9270 0.2613 0.3615
C2 C 0.9899(15) 0.3014(14) 0.4309(7)
C3 C 1.0914(15) 0.3067(15) 0.4543(6)
H2 H 1.0870 0.3194 0.4932
C4 C 1.2013(13) 0.2924(12) 0.4174(6)
C5 C 1.2043(14) 0.2703(13) 0.3610(7)
H3 H 1.2779 0.2621 0.3363
C6 C 0.7618(15) 0.3910(13) 0.4509(7)
H4 H 0.7512 0.4370 0.4162
C7 C 0.7240(16) 0.3038(15) 0.5335(8)
H5 H 0.6805 0.2783 0.5661
C8 C 0.8508(17) 0.2621(18) 0.5182(8)
H6 H 0.9100 0.2082 0.5396
C9 C 1.428(2) 0.220(2) 0.4305(12)
H7 H 1.4504 0.1449 0.4176
C10 C 1.4998(17) 0.2747(16) 0.4510(8)
H8 H 1.5848 0.2393 0.4542
C11 C 1.3204(16) 0.3995(16) 0.4561(8)
H9 H 1.2529 0.4666 0.4634
C12 C 0.9994(15) 0.2507(13) 0.1485(6)
H10 H 0.9285 0.2506 0.1737
C13 C 0.9985(14) 0.2544(14) 0.0898(7)
C14 C 1.1085(14) 0.2490(14) 0.0504(6)
H11 H 1.1085 0.2519 0.0104
C15 C 1.2112(15) 0.2395(14) 0.0750(7)
C16 C 1.2112(14) 0.2387(12) 0.1344(6)
H12 H 1.2848 0.2321 0.1495
C17 C 1.4404(17) 0.1790(16) 0.0382(8)
H13 H 1.4661 0.1190 0.0666
C18 C 1.3174(18) 0.3281(17) -0.0092(9)
H14 H 1.2463 0.3839 -0.0219
C19 C 1.4414(17) 0.311(2) -0.0343(9)
H15 H 1.4714 0.3556 -0.0638
C20 C 0.8710(13) 0.1928(13) 0.0311(6)
H16 H 0.9379 0.1367 0.0125
C21 C 0.7670(17) 0.332(2) 0.0852(10)
H17 H 0.7460 0.3871 0.1129
C22 C 0.6910(18) 0.310(2) 0.0552(11)
H18 H 0.6064 0.3524 0.0552
N1 N 1.1045(11) 0.2598(10) 0.3397(5)
N2 N 0.8721(11) 0.3155(11) 0.4656(5)
N3 N 0.6719(13) 0.3900(14) 0.4925(6)
N4 N 1.3109(12) 0.3059(12) 0.4342(6)
N5 N 1.4355(13) 0.3865(14) 0.4663(6)
N6 N 1.1089(10) 0.2470(10) 0.1694(5)
N7 N 1.3194(12) 0.2505(13) 0.0362(6)
N8 N 1.5113(13) 0.2044(12) -0.0025(6)
N9 N 0.8838(13) 0.2594(12) 0.0684(5)
N10 N 0.7537(12) 0.2132(13) 0.0226(6)
W1A W -0.08841(6) 0.49050(5) 0.76447(3)
W2A W 0.01103(6) 0.34321(5) 0.63086(3)
W3A W 0.01744(6) -0.01434(5) 0.74516(3)
W4A W 0.23462(6) 0.07867(6) 0.63081(3)
W5A W 0.31633(6) 0.31380(5) 0.64534(3)
W6A W 0.21134(6) 0.46565(5) 0.78187(3)
W7A W 0.02965(6) 0.37091(5) 0.88898(3)
W8A W 0.25790(6) 0.07524(5) 0.89223(3)
W9A W 0.35086(6) -0.06816(5) 0.76909(3)
W10A W -0.07163(5) 0.11757(5) 0.86702(2)
W11A W 0.43794(5) 0.16621(5) 0.78313(3)
Cu1A Cu -0.10846(17) 0.75676(16) 0.74514(7)
Cu2A Cu -0.69184(17) 0.86919(17) 1.02764(8)
Eu1A Eu -0.26236(7) 0.26630(7) 0.74008(4)
Si1A Si 0.1278(4) 0.2133(3) 0.76220(17)
O1A O -0.1949(10) 0.6315(9) 0.7562(5)
O2A O -0.0586(11) 0.4260(11) 0.5740(5)
O3A O 0.0120(11) -0.1528(9) 0.7317(5)
O4A O 0.2832(12) -0.0191(11) 0.5773(5)
O5A O 0.4259(11) 0.3644(10) 0.6049(5)
O6A O 0.2897(11) 0.5646(10) 0.7841(5)
O7A O -0.0184(10) 0.4161(11) 0.9572(5)
O8A O 0.2926(10) 0.0212(9) 0.9613(5)
O9A O 0.4438(11) -0.2062(11) 0.7583(6)
O10A O -0.1364(9) 0.0690(9) 0.9340(5)
O11A O 0.5899(9) 0.1694(10) 0.7816(5)
O12A O 0.2531(9) 0.1313(8) 0.7917(4)
O13A O 0.3454(10) 0.1714(9) 0.6095(5)
O14A O 0.1070(10) 0.2017(9) 0.5939(5)
O15A O 0.1759(10) 0.3821(10) 0.6103(5)
O16A O 0.3339(10) -0.0012(10) 0.6897(5)
O17A O 0.2591(11) 0.4232(9) 0.7047(5)
O18A O -0.0213(10) 0.4590(9) 0.6872(4)
O19A O -0.1029(10) 0.2872(10) 0.6677(5)
O20A O 0.1951(10) -0.0740(9) 0.7701(5)
O21A O -0.1355(11) 0.0693(9) 0.7307(5)
O22A O -0.1838(10) 0.4036(9) 0.7687(5)
O23A O -0.2110(10) 0.1879(10) 0.8346(5)
O24A O -0.0307(9) -0.0215(8) 0.8283(4)
O25A O 0.1077(9) 0.0533(9) 0.8891(5)
O26A O 0.3418(10) -0.0641(8) 0.8525(5)
O27A O 0.1709(9) 0.2348(8) 0.9032(4)
O28A O -0.0918(9) 0.4900(9) 0.8483(4)
O29A O 0.0576(10) 0.5618(9) 0.7628(5)
O30A O 0.4802(10) 0.0048(9) 0.7663(5)
O31A O 0.1451(10) 0.4529(10) 0.8619(4)
O32A O 0.3398(10) 0.3209(10) 0.8013(5)
O33A O -0.0566(10) 0.2617(9) 0.8853(5)
O34A O 0.4139(10) 0.2100(9) 0.7051(5)
O35A O 0.1037(9) 0.0282(9) 0.6754(5)
O36A O 0.4097(10) 0.1181(10) 0.8638(5)
O37A O 0.1600(10) 0.2267(9) 0.6931(5)
O38A O 0.0834(9) 0.3434(9) 0.7879(4)
O39A O 0.0209(9) 0.1483(9) 0.7783(4)
O40A O -0.4299(13) 0.4015(13) 0.8041(8)
O41A O -0.4016(17) 0.4170(13) 0.6811(7)
O42A O -0.3245(15) 0.1844(15) 0.6595(6)
O43A O -0.2737(11) 0.9120(11) 0.7409(6)
O44A O -0.6381(10) 0.9299(9) 1.0932(5)
C1A C 0.0045(16) 0.7278(16) 0.6252(8)
H1A H 0.0730 0.7387 0.6385
C2A C 0.0101(15) 0.6986(14) 0.5691(7)
C3A C -0.0914(15) 0.6933(15) 0.5457(6)
H2A H -0.0870 0.6806 0.5068
C4A C -0.2013(13) 0.7076(12) 0.5826(6)
C5A C -0.2043(14) 0.7297(13) 0.6390(7)
H3A H -0.2779 0.7379 0.6637
C6A C 0.2382(15) 0.6090(13) 0.5491(7)
H4A H 0.2488 0.5630 0.5838
C7A C 0.2760(16) 0.6962(15) 0.4665(8)
H5A H 0.3195 0.7217 0.4339
C8A C 0.1492(17) 0.7379(18) 0.4818(8)
H6A H 0.0900 0.7918 0.4604
C9A C -0.428(2) 0.780(2) 0.5695(12)
H7A H -0.4504 0.8551 0.5824
C10A C -0.4998(17) 0.7253(16) 0.5490(8)
H8A H -0.5848 0.7607 0.5458
C11A C -0.3204(16) 0.6005(16) 0.5439(8)
H9A H -0.2529 0.5334 0.5366
C12A C 0.0006(15) 0.7493(13) 0.8515(6)
H10A H 0.0715 0.7494 0.8263
C13A C 0.0015(14) 0.7456(14) 0.9102(7)
C14A C -0.1085(14) 0.7510(14) 0.9496(6)
H11A H -0.1085 0.7481 0.9896
C15A C -0.2112(15) 0.7605(14) 0.9250(7)
C16A C -0.2112(14) 0.7613(12) 0.8656(6)
H12A H -0.2848 0.7679 0.8505
C17A C -0.4404(17) 0.8210(16) 0.9618(8)
H13A H -0.4661 0.8810 0.9334
C18A C -0.3174(18) 0.6719(17) 1.0092(9)
H14A H -0.2463 0.6161 1.0219
C19A C -0.4414(17) 0.689(2) 1.0343(9)
H15A H -0.4714 0.6444 1.0638
C20A C 0.1290(13) 0.8072(13) 0.9689(6)
H16A H 0.0621 0.8633 0.9875
C21A C 0.2330(17) 0.668(2) 0.9148(10)
H17A H 0.2540 0.6129 0.8871
C22A C 0.3090(18) 0.690(2) 0.9448(11)
H18A H 0.3936 0.6476 0.9448
N1A N -0.1045(11) 0.7402(10) 0.6603(5)
N2A N 0.1279(11) 0.6845(11) 0.5344(5)
N3A N 0.3281(13) 0.6100(14) 0.5075(6)
N4A N -0.3109(12) 0.6941(12) 0.5658(6)
N5A N -0.4355(13) 0.6135(14) 0.5337(6)
N6A N -0.1089(10) 0.7530(10) 0.8306(5)
N7A N -0.3194(12) 0.7495(13) 0.9638(6)
N8A N -0.5113(13) 0.7956(12) 1.0025(6)
N9A N 0.1162(13) 0.7406(12) 0.9316(5)
N10A N 0.2463(12) 0.7868(13) 0.9774(6)
Cu1_2 Cu 1.10846(17) 1.24324(16) 0.25486(7)
Cu1A_2 Cu -0.10846(17) -0.24324(16) 0.74514(7)
Cu2_2 Cu -0.30816(17) 0.13081(17) 0.97236(8)
Cu2_3 Cu 0.69184(17) 0.13081(17) -0.02764(8)
Cu2_4 Cu 0.69184(17) 1.13081(17) -0.02764(8)
Cu2A_2 Cu 0.30816(17) -0.13081(17) 1.02764(8)
Cu2A_3 Cu 0.30816(17) 0.86919(17) 1.02764(8)
Cu2A_4 Cu 1.30816(17) 0.86919(17) 0.02764(8)
Cu3_2 Cu -0.5000 0.5000 0.5000
Cu3_3 Cu 1.5000 0.5000 0.5000
Eu1_2 Eu 0.26236(7) 0.73370(7) 0.25992(4)
Eu1A_2 Eu 0.73764(7) 0.26630(7) 0.74008(4)
O3_2 O 0.9880(11) 0.1528(9) 0.2683(5)
O3A_2 O 0.0120(11) 0.8472(9) 0.7317(5)
O8_2 O 1.7074(10) -0.0212(9) 0.0387(5)
O8A_2 O -0.7074(10) 1.0212(9) 0.9613(5)
O10_2 O -0.8636(9) 0.9310(9) 1.0660(5)
O10A_2 O 1.8636(9) 0.0690(9) -0.0660(5)
O11_2 O 1.4101(9) 0.8306(10) 0.2184(5)
O11A_2 O -0.4101(9) 0.1694(10) 0.7816(5)
N5_2 N 0.4355(13) 0.3865(14) 0.4663(6)
N5A_2 N 0.5645(13) 0.6135(14) 0.5337(6)
N10_2 N 1.7537(12) 0.2132(13) 0.0226(6)
N10A_2 N -0.7537(12) 0.7868(13) 0.9774(6)
O45 O 1.425(2) 0.385(3) 0.1594(15)
O46 O 1.409(3) -0.033(2) 0.4520(14)
O47 O 1.345(4) 0.581(3) 0.0949(18)
O48 O 1.179(4) 0.996(3) 0.3995(18)
O49 O 0.969(4) 0.025(4) 0.4600(19)
O50 O 1.559(3) 0.376(3) 0.3155(14)
O51 O 0.725(4) 0.262(3) 0.3377(17)
loop_
_geom_bond_atom_site_label_1
_geom_bond_atom_site_label_2
_geom_bond_site_symmetry_1
_geom_bond_site_symmetry_2
W1 O1 1_555 1_555
W2 O2 1_555 1_555
W3 O3 1_555 1_555
W4 O4 1_555 1_555
W5 O5 1_555 1_555
W6 O6 1_555 1_555
W7 O7 1_555 1_555
W8 O8 1_555 1_555
W9 O9 1_555 1_555
W10 O10 1_555 1_555
W11 O11 1_555 1_555
Cu1 O1 1_555 1_555
Cu2 O44 1_555 1_555
Cu3 N3 1_555 1_555
Eu1 O19 1_555 1_555
Si1 O12 1_555 1_555
O3 Cu1_2 1_555 1_555
O8 Cu2_4 1_555 1_555
O10 Cu2A_4 1_555 1_555
O11 Eu1_2 1_555 1_555
O12 W8 1_555 1_555
O13 W4 1_555 1_555
O14 W2 1_555 1_555
O15 W2 1_555 1_555
O16 W4 1_555 1_555
O17 W5 1_555 1_555
O18 W1 1_555 1_555
O19 W2 1_555 1_555
O20 W3 1_555 1_555
O21 W3 1_555 1_555
O22 W1 1_555 1_555
O23 W10 1_555 1_555
O24 W3 1_555 1_555
O25 W8 1_555 1_555
O26 W8 1_555 1_555
O27 W7 1_555 1_555
O28 W1 1_555 1_555
O29 W1 1_555 1_555
O30 W9 1_555 1_555
O31 W6 1_555 1_555
O32 W6 1_555 1_555
O33 W7 1_555 1_555
O34 W5 1_555 1_555
O35 W3 1_555 1_555
O36 W8 1_555 1_555
O37 W2 1_555 1_555
O38 W1 1_555 1_555
O39 W3 1_555 1_555
O40 Eu1 1_555 1_555
O41 Eu1 1_555 1_555
O42 Eu1 1_555 1_555
O43 Cu1 1_555 1_555
C1 H1 1_555 1_555
C2 C1 1_555 1_555
C3 C2 1_555 1_555
H2 C3 1_555 1_555
C4 C3 1_555 1_555
C5 C4 1_555 1_555
H3 C5 1_555 1_555
C6 H4 1_555 1_555
C7 H5 1_555 1_555
C8 C7 1_555 1_555
H6 C8 1_555 1_555
C9 H7 1_555 1_555
C10 C9 1_555 1_555
H8 C10 1_555 1_555
C11 H9 1_555 1_555
C12 H10 1_555 1_555
C13 C12 1_555 1_555
C14 C13 1_555 1_555
H11 C14 1_555 1_555
C15 C14 1_555 1_555
C16 C15 1_555 1_555
H12 C16 1_555 1_555
C17 H13 1_555 1_555
C18 H14 1_555 1_555
C19 C18 1_555 1_555
H15 C19 1_555 1_555
C20 H16 1_555 1_555
C21 H17 1_555 1_555
C22 C21 1_555 1_555
H18 C22 1_555 1_555
N1 Cu1 1_555 1_555
N2 C2 1_555 1_555
N3 C6 1_555 1_555
N4 C4 1_555 1_555
N5 C10 1_555 1_555
N6 Cu1 1_555 1_555
N7 C15 1_555 1_555
N8 Cu2 1_555 1_555
N9 C13 1_555 1_555
N10 C20 1_555 1_555
W1A O1A 1_555 1_555
W2A O2A 1_555 1_555
W3A O3A 1_555 1_555
W4A O4A 1_555 1_555
W5A O5A 1_555 1_555
W6A O6A 1_555 1_555
W7A O7A 1_555 1_555
W8A O8A 1_555 1_555
W9A O9A 1_555 1_555
W10A O10A 1_555 1_555
W11A O11A 1_555 1_555
Cu1A O1A 1_555 1_555
Cu2A O44A 1_555 1_555
Eu1A O19A 1_555 1_555
Si1A O12A 1_555 1_555
O3A Cu1A_2 1_555 1_555
O8A Cu2A_2 1_555 1_555
O10A Cu2_2 1_555 1_555
O11A Eu1A_2 1_555 1_555
O12A W8A 1_555 1_555
O13A W4A 1_555 1_555
O14A W2A 1_555 1_555
O15A W2A 1_555 1_555
O16A W4A 1_555 1_555
O17A W5A 1_555 1_555
O18A W1A 1_555 1_555
O19A W2A 1_555 1_555
O20A W3A 1_555 1_555
O21A W3A 1_555 1_555
O22A W1A 1_555 1_555
O23A W10A 1_555 1_555
O24A W3A 1_555 1_555
O25A W8A 1_555 1_555
O26A W8A 1_555 1_555
O27A W7A 1_555 1_555
O28A W1A 1_555 1_555
O29A W1A 1_555 1_555
O30A W9A 1_555 1_555
O31A W6A 1_555 1_555
O32A W6A 1_555 1_555
O33A W7A 1_555 1_555
O34A W5A 1_555 1_555
O35A W3A 1_555 1_555
O36A W8A 1_555 1_555
O37A W2A 1_555 1_555
O38A W1A 1_555 1_555
O39A W3A 1_555 1_555
O40A Eu1A 1_555 1_555
O41A Eu1A 1_555 1_555
O42A Eu1A 1_555 1_555
O43A Cu1A 1_555 1_555
C1A H1A 1_555 1_555
C2A C1A 1_555 1_555
C3A C2A 1_555 1_555
H2A C3A 1_555 1_555
C4A C3A 1_555 1_555
C5A C4A 1_555 1_555
H3A C5A 1_555 1_555
C6A H4A 1_555 1_555
C7A H5A 1_555 1_555
C8A C7A 1_555 1_555
H6A C8A 1_555 1_555
C9A H7A 1_555 1_555
C10A C9A 1_555 1_555
H8A C10A 1_555 1_555
C11A H9A 1_555 1_555
C12A H10A 1_555 1_555
C13A C12A 1_555 1_555
C14A C13A 1_555 1_555
H11A C14A 1_555 1_555
C15A C14A 1_555 1_555
C16A C15A 1_555 1_555
H12A C16A 1_555 1_555
C17A H13A 1_555 1_555
C18A H14A 1_555 1_555
C19A C18A 1_555 1_555
H15A C19A 1_555 1_555
C20A H16A 1_555 1_555
C21A H17A 1_555 1_555
C22A C21A 1_555 1_555
H18A C22A 1_555 1_555
N1A Cu1A 1_555 1_555
N2A C2A 1_555 1_555
N3A Cu3 1_555 1_555
N4A C4A 1_555 1_555
N5A C10A 1_555 1_555
N6A Cu1A 1_555 1_555
N7A C15A 1_555 1_555
N8A Cu2A 1_555 1_555
N9A C13A 1_555 1_555
N10A C20A 1_555 1_555
Cu2_3 N10 1_555 1_555
Cu2A_3 N10A 1_555 1_555
Cu3_2 N5A 1_555 1_555
Cu3_3 N5 1_555 1_555
O3_2 Cu1 1_555 1_555
O3A_2 Cu1A 1_555 1_555
O8_2 Cu2 1_555 1_555
O8A_2 Cu2A 1_555 1_555
O10_2 Cu2A 1_555 1_555
O10A_2 Cu2 1_555 1_555
O11_2 Eu1 1_555 1_555
O11A_2 Eu1A 1_555 1_555
N5_2 Cu3 1_555 1_555
N5A_2 Cu3 1_555 1_555
N10_2 Cu2 1_555 1_555
N10A_2 Cu2A 1_555 1_555
W2 O18 1_555 1_555
W4 O14 1_555 1_555
W4 O35 1_555 1_555
W4 O37 1_555 1_555
W5 O13 1_555 1_555
W5 O15 1_555 1_555
W5 O37 1_555 1_555
W6 O17 1_555 1_555
W6 O29 1_555 1_555
W6 O38 1_555 1_555
W7 O28 1_555 1_555
W7 O31 1_555 1_555
W7 O38 1_555 1_555
W8 O27 1_555 1_555
W9 O12 1_555 1_555
W9 O16 1_555 1_555
W9 O20 1_555 1_555
W9 O26 1_555 1_555
W10 O24 1_555 1_555
W10 O25 1_555 1_555
W10 O33 1_555 1_555
W10 O39 1_555 1_555
W11 O12 1_555 1_555
W11 O30 1_555 1_555
W11 O32 1_555 1_555
W11 O34 1_555 1_555
W11 O36 1_555 1_555
Cu1 O29 1_555 1_555
Eu1 O21 1_555 1_555
Eu1 O22 1_555 1_555
Eu1 O23 1_555 1_555
Si1 O37 1_555 1_555
Si1 O38 1_555 1_555
Si1 O39 1_555 1_555
C1 N1 1_555 1_555
C5 N1 1_555 1_555
C6 N2 1_555 1_555
C7 N3 1_555 1_555
C8 N2 1_555 1_555
C9 N4 1_555 1_555
C11 N4 1_555 1_555
C11 N5 1_555 1_555
C12 N6 1_555 1_555
C16 N6 1_555 1_555
C17 N7 1_555 1_555
C17 N8 1_555 1_555
C18 N7 1_555 1_555
C19 N8 1_555 1_555
C20 N9 1_555 1_555
C21 N9 1_555 1_555
C22 N10 1_555 1_555
W2A O18A 1_555 1_555
W4A O14A 1_555 1_555
W4A O35A 1_555 1_555
W4A O37A 1_555 1_555
W5A O13A 1_555 1_555
W5A O15A 1_555 1_555
W5A O37A 1_555 1_555
W6A O17A 1_555 1_555
W6A O29A 1_555 1_555
W6A O38A 1_555 1_555
W7A O28A 1_555 1_555
W7A O31A 1_555 1_555
W7A O38A 1_555 1_555
W8A O27A 1_555 1_555
W9A O12A 1_555 1_555
W9A O16A 1_555 1_555
W9A O20A 1_555 1_555
W9A O26A 1_555 1_555
W10A O24A 1_555 1_555
W10A O25A 1_555 1_555
W10A O33A 1_555 1_555
W10A O39A 1_555 1_555
W11A O12A 1_555 1_555
W11A O30A 1_555 1_555
W11A O32A 1_555 1_555
W11A O34A 1_555 1_555
W11A O36A 1_555 1_555
Cu1A O29A 1_555 1_555
Eu1A O21A 1_555 1_555
Eu1A O22A 1_555 1_555
Eu1A O23A 1_555 1_555
Si1A O37A 1_555 1_555
Si1A O38A 1_555 1_555
Si1A O39A 1_555 1_555
C1A N1A 1_555 1_555
C5A N1A 1_555 1_555
C6A N2A 1_555 1_555
C6A N3A 1_555 1_555
C7A N3A 1_555 1_555
C8A N2A 1_555 1_555
C9A N4A 1_555 1_555
C11A N4A 1_555 1_555
C11A N5A 1_555 1_555
C12A N6A 1_555 1_555
C16A N6A 1_555 1_555
C17A N7A 1_555 1_555
C17A N8A 1_555 1_555
C18A N7A 1_555 1_555
C19A N8A 1_555 1_555
C20A N9A 1_555 1_555
C21A N9A 1_555 1_555
C22A N10A 1_555 1_555

#END
