
#######################################################################
#
#                 Cambridge Crystallographic Data Centre
#                                CCDC 
#
#######################################################################
#
# If this CIF has been generated from an entry in the Cambridge 
# Structural Database, then it will include bibliographic, chemical, 
# crystal, experimental, refinement or atomic coordinate data resulting 
# from the CCDC's data processing and validation procedures.
#
#######################################################################

data_POXLIZ
_symmetry_cell_setting           cubic
_symmetry_space_group_name_H-M   'F m -3 m'
_symmetry_Int_Tables_number      225
_space_group_name_Hall           '-F 4 2 3'
loop_
_symmetry_equiv_pos_site_id
_symmetry_equiv_pos_as_xyz
1 x,y,z
2 -x,-y,z
3 -x,y,-z
4 x,-y,-z
5 z,x,y
6 z,-x,-y
7 -z,-x,y
8 -z,x,-y
9 y,z,x
10 -y,z,-x
11 y,-z,-x
12 -y,-z,x
13 y,x,-z
14 -y,-x,-z
15 y,-x,z
16 -y,x,z
17 x,z,-y
18 -x,z,y
19 -x,-z,-y
20 x,-z,y
21 z,y,-x
22 z,-y,x
23 -z,y,x
24 -z,-y,-x
25 x,1/2+y,1/2+z
26 -x,1/2-y,1/2+z
27 -x,1/2+y,1/2-z
28 x,1/2-y,1/2-z
29 z,1/2+x,1/2+y
30 z,1/2-x,1/2-y
31 -z,1/2-x,1/2+y
32 -z,1/2+x,1/2-y
33 y,1/2+z,1/2+x
34 -y,1/2+z,1/2-x
35 y,1/2-z,1/2-x
36 -y,1/2-z,1/2+x
37 y,1/2+x,1/2-z
38 -y,1/2-x,1/2-z
39 y,1/2-x,1/2+z
40 -y,1/2+x,1/2+z
41 x,1/2+z,1/2-y
42 -x,1/2+z,1/2+y
43 -x,1/2-z,1/2-y
44 x,1/2-z,1/2+y
45 z,1/2+y,1/2-x
46 z,1/2-y,1/2+x
47 -z,1/2+y,1/2+x
48 -z,1/2-y,1/2-x
49 1/2+x,y,1/2+z
50 1/2-x,-y,1/2+z
51 1/2-x,y,1/2-z
52 1/2+x,-y,1/2-z
53 1/2+z,x,1/2+y
54 1/2+z,-x,1/2-y
55 1/2-z,-x,1/2+y
56 1/2-z,x,1/2-y
57 1/2+y,z,1/2+x
58 1/2-y,z,1/2-x
59 1/2+y,-z,1/2-x
60 1/2-y,-z,1/2+x
61 1/2+y,x,1/2-z
62 1/2-y,-x,1/2-z
63 1/2+y,-x,1/2+z
64 1/2-y,x,1/2+z
65 1/2+x,z,1/2-y
66 1/2-x,z,1/2+y
67 1/2-x,-z,1/2-y
68 1/2+x,-z,1/2+y
69 1/2+z,y,1/2-x
70 1/2+z,-y,1/2+x
71 1/2-z,y,1/2+x
72 1/2-z,-y,1/2-x
73 1/2+x,1/2+y,z
74 1/2-x,1/2-y,z
75 1/2-x,1/2+y,-z
76 1/2+x,1/2-y,-z
77 1/2+z,1/2+x,y
78 1/2+z,1/2-x,-y
79 1/2-z,1/2-x,y
80 1/2-z,1/2+x,-y
81 1/2+y,1/2+z,x
82 1/2-y,1/2+z,-x
83 1/2+y,1/2-z,-x
84 1/2-y,1/2-z,x
85 1/2+y,1/2+x,-z
86 1/2-y,1/2-x,-z
87 1/2+y,1/2-x,z
88 1/2-y,1/2+x,z
89 1/2+x,1/2+z,-y
90 1/2-x,1/2+z,y
91 1/2-x,1/2-z,-y
92 1/2+x,1/2-z,y
93 1/2+z,1/2+y,-x
94 1/2+z,1/2-y,x
95 1/2-z,1/2+y,x
96 1/2-z,1/2-y,-x
97 -x,-y,-z
98 x,y,-z
99 x,-y,z
100 -x,y,z
101 -z,-x,-y
102 -z,x,y
103 z,x,-y
104 z,-x,y
105 -y,-z,-x
106 y,-z,x
107 -y,z,x
108 y,z,-x
109 -y,-x,z
110 y,x,z
111 -y,x,-z
112 y,-x,-z
113 -x,-z,y
114 x,-z,-y
115 x,z,y
116 -x,z,-y
117 -z,-y,x
118 -z,y,-x
119 z,-y,-x
120 z,y,x
121 -x,1/2-y,1/2-z
122 x,1/2+y,1/2-z
123 x,1/2-y,1/2+z
124 -x,1/2+y,1/2+z
125 -z,1/2-x,1/2-y
126 -z,1/2+x,1/2+y
127 z,1/2+x,1/2-y
128 z,1/2-x,1/2+y
129 -y,1/2-z,1/2-x
130 y,1/2-z,1/2+x
131 -y,1/2+z,1/2+x
132 y,1/2+z,1/2-x
133 -y,1/2-x,1/2+z
134 y,1/2+x,1/2+z
135 -y,1/2+x,1/2-z
136 y,1/2-x,1/2-z
137 -x,1/2-z,1/2+y
138 x,1/2-z,1/2-y
139 x,1/2+z,1/2+y
140 -x,1/2+z,1/2-y
141 -z,1/2-y,1/2+x
142 -z,1/2+y,1/2-x
143 z,1/2-y,1/2-x
144 z,1/2+y,1/2+x
145 1/2-x,-y,1/2-z
146 1/2+x,y,1/2-z
147 1/2+x,-y,1/2+z
148 1/2-x,y,1/2+z
149 1/2-z,-x,1/2-y
150 1/2-z,x,1/2+y
151 1/2+z,x,1/2-y
152 1/2+z,-x,1/2+y
153 1/2-y,-z,1/2-x
154 1/2+y,-z,1/2+x
155 1/2-y,z,1/2+x
156 1/2+y,z,1/2-x
157 1/2-y,-x,1/2+z
158 1/2+y,x,1/2+z
159 1/2-y,x,1/2-z
160 1/2+y,-x,1/2-z
161 1/2-x,-z,1/2+y
162 1/2+x,-z,1/2-y
163 1/2+x,z,1/2+y
164 1/2-x,z,1/2-y
165 1/2-z,-y,1/2+x
166 1/2-z,y,1/2-x
167 1/2+z,-y,1/2-x
168 1/2+z,y,1/2+x
169 1/2-x,1/2-y,-z
170 1/2+x,1/2+y,-z
171 1/2+x,1/2-y,z
172 1/2-x,1/2+y,z
173 1/2-z,1/2-x,-y
174 1/2-z,1/2+x,y
175 1/2+z,1/2+x,-y
176 1/2+z,1/2-x,y
177 1/2-y,1/2-z,-x
178 1/2+y,1/2-z,x
179 1/2-y,1/2+z,x
180 1/2+y,1/2+z,-x
181 1/2-y,1/2-x,z
182 1/2+y,1/2+x,z
183 1/2-y,1/2+x,-z
184 1/2+y,1/2-x,-z
185 1/2-x,1/2-z,y
186 1/2+x,1/2-z,-y
187 1/2+x,1/2+z,y
188 1/2-x,1/2+z,-y
189 1/2-z,1/2-y,x
190 1/2-z,1/2+y,-x
191 1/2+z,1/2-y,-x
192 1/2+z,1/2+y,x
_cell_length_a                   21.9606(13)
_cell_length_b                   21.9606(13)
_cell_length_c                   21.9606(13)
_cell_angle_alpha                90
_cell_angle_beta                 90
_cell_angle_gamma                90
_cell_volume                     10590.9
loop_
_atom_site_label
_atom_site_type_symbol
_atom_site_fract_x
_atom_site_fract_y
_atom_site_fract_z
O1 O 0.1746(3) -0.1018(3) 0.0000
O2 O 0.2492(7) 0.0000 0.0000
C1 C 0.1569(3) -0.1569(3) 0.0000
C2 C 0.2050(3) -0.2050(3) 0.0000
C3 C 0.2650(5) -0.1897(5) 0.0000
H1 H 0.2762 -0.1488 0.0000
O3 O 0.0618(5) 0.0618(5) 0.0618(5)
Th1 Th 0.128560(19) 0.0000 0.0000
O1M O 0.1018(3) -0.1746(3) 0.0000
C3M C 0.1897(5) -0.2650(5) 0.0000
H1M H 0.1488 -0.2762 0.0000
O1FC O 0.3982(3) -0.3254(3) 0.0000
C1UB C 0.3431(3) -0.3431(3) 0.0000
C2UB C 0.2950(3) -0.2950(3) 0.0000
C3FC C 0.3103(5) -0.2350(5) 0.0000
H1FC H 0.3512 -0.2238 0.0000
O1UB O 0.3254(3) -0.3982(3) 0.0000
C3UB C 0.2350(5) -0.3103(5) 0.0000
H1UB H 0.2238 -0.3512 0.0000
O1C O 0.1746(3) 0.1018(3) 0.0000
C1C C 0.1569(3) 0.1569(3) 0.0000
C2C C 0.2050(3) 0.2050(3) 0.0000
C3C C 0.2650(5) 0.1897(5) 0.0000
H1C H 0.2762 0.1488 0.0000
O3C O 0.0618(5) -0.0618(5) -0.0618(5)
O1O O 0.1018(3) 0.1746(3) 0.0000
C3O C 0.1897(5) 0.2650(5) 0.0000
H1O H 0.1488 0.2762 0.0000
O1HC O 0.3982(3) 0.3254(3) 0.0000
C1VB C 0.3431(3) 0.3431(3) 0.0000
C2VB C 0.2950(3) 0.2950(3) 0.0000
C3HC C 0.3103(5) 0.2350(5) 0.0000
H1HC H 0.3512 0.2238 0.0000
O1VB O 0.3254(3) 0.3982(3) 0.0000
C3VB C 0.2350(5) 0.3103(5) 0.0000
H1VB H 0.2238 0.3512 0.0000
O1D O 0.0000 0.1746(3) -0.1018(3)
O2D O 0.0000 0.2492(7) 0.0000
C1D C 0.0000 0.1569(3) -0.1569(3)
C2D C 0.0000 0.2050(3) -0.2050(3)
C3D C 0.0000 0.2650(5) -0.1897(5)
H1D H 0.0000 0.2762 -0.1488
Th1D Th 0.0000 0.128560(19) 0.0000
O1W O 0.0000 0.1018(3) -0.1746(3)
C3W C 0.0000 0.1897(5) -0.2650(5)
H1W H 0.0000 0.1488 -0.2762
O1TA O 0.0000 0.3982(3) -0.3254(3)
C1CA C 0.0000 0.3431(3) -0.3431(3)
C2CA C 0.0000 0.2950(3) -0.2950(3)
C3TA C 0.0000 0.3103(5) -0.2350(5)
H1TA H 0.0000 0.3512 -0.2238
O1CA O 0.0000 0.3254(3) -0.3982(3)
C3CA C 0.0000 0.2350(5) -0.3103(5)
H1CA H 0.0000 0.2238 -0.3512
O2E O 0.0000 -0.2492(7) 0.0000
Th1E Th 0.0000 -0.128560(19) 0.0000
O3A O -0.0618(5) -0.0618(5) 0.0618(5)
O3B O -0.0618(5) 0.0618(5) -0.0618(5)
O1E O 0.0000 -0.1746(3) 0.1018(3)
O1F O 0.0000 -0.1746(3) -0.1018(3)
O1G O 0.0000 0.1746(3) 0.1018(3)
O1L O -0.1018(3) 0.1746(3) 0.0000
O1N O -0.1018(3) -0.1746(3) 0.0000
O1P O 0.1746(3) 0.0000 0.1018(3)
O1S O 0.1746(3) 0.0000 -0.1018(3)
O3L O 0.0618(5) 0.0618(5) -0.0618(5)
O3M O -0.0618(5) -0.0618(5) -0.0618(5)
O3N O 0.0618(5) -0.0618(5) 0.0618(5)
O3O O -0.0618(5) 0.0618(5) 0.0618(5)
Th1A Th -0.128560(19) 0.0000 0.0000
Th1H Th 0.0000 0.0000 0.128560(19)
Th1I Th 0.0000 0.0000 -0.128560(19)
Th1CA Th 0.0000 0.371440(19) -0.5000
Th1FA Th 0.0000 0.5000 -0.371440(19)
Th1UB Th 0.371440(19) -0.5000 0.0000
Th1UB_2 Th 0.371440(19) 0.5000 0.0000
Th1XB Th 0.5000 -0.371440(19) 0.0000
Th1YB Th 0.5000 0.371440(19) 0.0000
loop_
_geom_bond_atom_site_label_1
_geom_bond_atom_site_label_2
_geom_bond_site_symmetry_1
_geom_bond_site_symmetry_2
O1 C1 1_555 1_555
O2 Th1 1_555 1_555
C1 C2 1_555 1_555
C2 C3 1_555 1_555
C3 H1 1_555 1_555
O3 Th1 1_555 1_555
Th1 O1 1_555 1_555
O1M C1 1_555 1_555
C3M C2 1_555 1_555
H1M C3M 1_555 1_555
O1FC C1UB 1_555 1_555
C1UB C2UB 1_555 1_555
C2UB C3FC 1_555 1_555
C3FC C3 1_555 1_555
H1FC C3FC 1_555 1_555
O1UB C1UB 1_555 1_555
C3UB C3M 1_555 1_555
H1UB C3UB 1_555 1_555
O1C Th1 1_555 1_555
C1C O1C 1_555 1_555
C2C C1C 1_555 1_555
C3C C2C 1_555 1_555
H1C C3C 1_555 1_555
O3C Th1 1_555 1_555
O1O C1C 1_555 1_555
C3O C2C 1_555 1_555
H1O C3O 1_555 1_555
O1HC C1VB 1_555 1_555
C1VB C2VB 1_555 1_555
C2VB C3HC 1_555 1_555
C3HC C3C 1_555 1_555
H1HC C3HC 1_555 1_555
O1VB C1VB 1_555 1_555
C3VB C3O 1_555 1_555
H1VB C3VB 1_555 1_555
O1D C1D 1_555 1_555
O2D Th1D 1_555 1_555
C1D C2D 1_555 1_555
C2D C3D 1_555 1_555
C3D H1D 1_555 1_555
Th1D O3 1_555 1_555
O1W C1D 1_555 1_555
C3W C2D 1_555 1_555
H1W C3W 1_555 1_555
O1TA C1CA 1_555 1_555
C1CA C2CA 1_555 1_555
C2CA C3TA 1_555 1_555
C3TA C3D 1_555 1_555
H1TA C3TA 1_555 1_555
O1CA C1CA 1_555 1_555
C3CA C3W 1_555 1_555
H1CA C3CA 1_555 1_555
O2E Th1E 1_555 1_555
Th1E O1M 1_555 1_555
O3A Th1E 1_555 1_555
O3B Th1D 1_555 1_555
O1E Th1E 1_555 1_555
O1F Th1E 1_555 1_555
O1G Th1D 1_555 1_555
O1L Th1D 1_555 1_555
O1N Th1E 1_555 1_555
O1P Th1 1_555 1_555
O1S Th1 1_555 1_555
O3L Th1 1_555 1_555
O3M Th1E 1_555 1_555
O3N Th1 1_555 1_555
O3O Th1D 1_555 1_555
Th1A O3A 1_555 1_555
Th1H O3 1_555 1_555
Th1I O3C 1_555 1_555
Th1CA O1CA 1_555 1_555
Th1FA O1TA 1_555 1_555
Th1UB O1UB 1_555 1_555
Th1UB_2 O1VB 1_555 1_555
Th1XB O1FC 1_555 1_555
Th1YB O1HC 1_555 1_555
C2UB C3UB 1_555 1_555
O3C Th1E 1_555 1_555
O1O Th1D 1_555 1_555
C2VB C3VB 1_555 1_555
O1D Th1D 1_555 1_555
Th1D O3L 1_555 1_555
O1W Th1I 1_555 1_555
C2CA C3CA 1_555 1_555
Th1E O3N 1_555 1_555
O3A Th1H 1_555 1_555
O3B Th1A 1_555 1_555
O3B Th1I 1_555 1_555
O3L Th1I 1_555 1_555
O3M Th1A 1_555 1_555
O3M Th1I 1_555 1_555
O3N Th1H 1_555 1_555
O3O Th1A 1_555 1_555
O3O Th1H 1_555 1_555

#END
