
#######################################################################
#
#                 Cambridge Crystallographic Data Centre
#                                CCDC 
#
#######################################################################
#
# If this CIF has been generated from an entry in the Cambridge 
# Structural Database, then it will include bibliographic, chemical, 
# crystal, experimental, refinement or atomic coordinate data resulting 
# from the CCDC's data processing and validation procedures.
#
#######################################################################

data_POYPAW
_symmetry_cell_setting           orthorhombic
_symmetry_space_group_name_H-M   'I m m 2'
_symmetry_Int_Tables_number      44
_space_group_name_Hall           'I 2 -2'
loop_
_symmetry_equiv_pos_site_id
_symmetry_equiv_pos_as_xyz
1 x,y,z
2 -x,-y,z
3 x,-y,z
4 -x,y,z
5 1/2+x,1/2+y,1/2+z
6 1/2-x,1/2-y,1/2+z
7 1/2+x,1/2-y,1/2+z
8 1/2-x,1/2+y,1/2+z
_cell_length_a                   23.9011(8)
_cell_length_b                   34.6395(8)
_cell_length_c                   13.4553(3)
_cell_angle_alpha                90
_cell_angle_beta                 90
_cell_angle_gamma                90
_cell_volume                     11139.9
loop_
_atom_site_label
_atom_site_type_symbol
_atom_site_fract_x
_atom_site_fract_y
_atom_site_fract_z
C1 C 0.30508(11) 0.43955(8) 0.57735(19)
H1 H 0.3282 0.4543 0.5369
C2 C 0.31341(11) 0.43417(8) 0.68109(18)
H2 H 0.3421 0.4445 0.7197
C3 C 0.27112(11) 0.41096(7) 0.71251(19)
H3 H 0.2654 0.4023 0.7771
C4 C 0.23725(10) 0.40237(7) 0.62866(16)
C5 C 0.18937(10) 0.37874(6) 0.62600(16)
C6 C 0.15852(10) 0.36849(6) 0.54353(17)
C7 C 0.10821(11) 0.34586(7) 0.54009(19)
H4 H 0.0900 0.3350 0.5943
C8 C 0.09187(12) 0.34319(8) 0.44249(19)
H5 H 0.0610 0.3300 0.4175
C9 C 0.13185(12) 0.36466(7) 0.38799(19)
H6 H 0.1306 0.3680 0.3194
C10 C 0.16924(10) 0.36375(7) 0.72374(16)
C11 C 0.15393(10) 0.38926(7) 0.79938(17)
H7 H 0.1569 0.4157 0.7886
C12 C 0.13437(10) 0.37606(7) 0.89021(17)
H8 H 0.1240 0.3934 0.9398
C13 C 0.13055(10) 0.33646(6) 0.90581(18)
C14 C 0.14551(11) 0.31032(7) 0.83199(18)
H9 H 0.1429 0.2839 0.8433
C15 C 0.16438(11) 0.32430(7) 0.74098(17)
H10 H 0.1739 0.3070 0.6909
C16 C 0.11564(12) 0.33867(8) 1.09222(18)
H11 H 0.1341 0.3614 1.1084
C17 C 0.08867(11) 0.31470(7) 1.1543(2)
H12 H 0.0859 0.3183 1.2226
C18 C 0.07961(11) 0.28934(7) 1.01031(17)
H13 H 0.0698 0.2727 0.9589
C19 C 0.17746(14) 0.14255(8) 1.92087(19)
H14 H 0.1768 0.1390 1.9894
C20 C 0.14389(16) 0.17003(9) 1.8713(2)
H15 H 0.1185 0.1872 1.8996
C21 C 0.15681(14) 0.16592(9) 1.7725(2)
H16 H 0.1417 0.1799 1.7200
C22 C 0.19784(12) 0.13619(7) 1.76575(17)
C23 C 0.22218(10) 0.12172(7) 1.67880(16)
C24 C 0.26636(10) 0.09484(7) 1.67296(17)
C25 C 0.28794(11) 0.07792(7) 1.58439(18)
H17 H 0.2748 0.0818 1.5201
C26 C 0.33183(13) 0.05474(8) 1.61195(19)
H18 H 0.3544 0.0400 1.5705
C27 C 0.33555(12) 0.05792(7) 1.71565(18)
H19 H 0.3623 0.0452 1.7537
C28 C 0.19955(11) 0.13565(7) 1.58249(17)
C29 C 0.14439(12) 0.12826(9) 1.5566(2)
H20 H 0.1211 0.1155 1.6013
C30 C 0.12341(12) 0.13969(9) 1.4643(2)
H21 H 0.0870 0.1336 1.4459
C31 C 0.15752(10) 0.16000(7) 1.40145(18)
C32 C 0.21213(11) 0.16787(7) 1.42530(17)
H22 H 0.2350 0.1812 1.3810
C33 C 0.23273(11) 0.15575(7) 1.51599(18)
H23 H 0.2696 0.1612 1.5327
C34 C 0.16186(12) 0.17813(9) 1.21897(18)
H24 H 0.1986 0.1716 1.2039
C35 C 0.12366(11) 0.19393(8) 1.1578(2)
H25 H 0.1301 0.2002 1.0916
C36 C 0.08252(11) 0.18768(7) 1.29799(18)
H26 H 0.0562 0.1888 1.3488
C37 C 0.09664(15) 0.5000 0.4869(3)
H27 H 0.0601 0.5000 0.5105
C38 C 0.12484(10) 0.46583(7) 0.46879(18)
H28 H 0.1067 0.4424 0.4795
C39 C 0.20108(14) 0.5000 0.4199(2)
C40 C 0.25833(14) 0.5000 0.3780(2)
C41 C 0.33217(11) 0.46630(8) 0.3165(2)
H29 H 0.3493 0.4429 0.3010
C42 C 0.35958(17) 0.5000 0.2942(3)
H30 H 0.3949 0.5000 0.2654
N1 N 0.25978(9) 0.42073(5) 0.54551(14)
N2 N 0.17143(9) 0.37951(5) 0.44620(13)
N3 N 0.11003(9) 0.32214(6) 0.99850(14)
N4 N 0.06584(9) 0.28421(6) 1.10382(14)
N5 N 0.20971(9) 0.12244(6) 1.86118(15)
N6 N 0.29686(9) 0.08106(6) 1.75368(14)
N7 N 0.13479(9) 0.17370(6) 1.30900(15)
N8 N 0.07340(9) 0.19955(6) 1.20702(14)
N9 N 0.28163(9) 0.46578(6) 0.35992(15)
N10 N 0.17763(8) 0.46591(5) 0.43608(13)
Cl1 Cl 0.0000 0.20937(2) 0.97769(6)
Cl2 Cl 0.0000 0.26967(2) 1.33432(6)
Ni1 Ni 0.230963(13) 0.417056(7) 0.40097(2)
Cd1 Cd 0.0000 0.238327(6) 1.157241(15)
C38B C 0.12484(10) 0.53417(7) 0.46879(18)
H28B H 0.1067 0.5576 0.4795
C41B C 0.33217(11) 0.53370(8) 0.3165(2)
H29B H 0.3493 0.5571 0.3010
N9B N 0.28163(9) 0.53422(6) 0.35992(15)
N10B N 0.17763(8) 0.53409(5) 0.43608(13)
C1B C 0.30508(11) 0.56045(8) 0.57735(19)
H1B H 0.3282 0.5457 0.5369
C2B C 0.31341(11) 0.56583(8) 0.68109(18)
H2B H 0.3421 0.5555 0.7197
C3B C 0.27112(11) 0.58904(7) 0.71251(19)
H3B H 0.2654 0.5977 0.7771
C4B C 0.23725(10) 0.59763(7) 0.62866(16)
C5B C 0.18937(10) 0.62126(6) 0.62600(16)
C6B C 0.15852(10) 0.63151(6) 0.54353(17)
C7B C 0.10821(11) 0.65414(7) 0.54009(19)
H4B H 0.0900 0.6650 0.5943
C8B C 0.09187(12) 0.65681(8) 0.44249(19)
H5B H 0.0610 0.6700 0.4175
C9B C 0.13185(12) 0.63534(7) 0.38799(19)
H6B H 0.1306 0.6320 0.3194
C10B C 0.16924(10) 0.63625(7) 0.72374(16)
C11B C 0.15393(10) 0.61074(7) 0.79938(17)
H7B H 0.1569 0.5843 0.7886
C12B C 0.13437(10) 0.62394(7) 0.89021(17)
H8B H 0.1240 0.6066 0.9398
C13B C 0.13055(10) 0.66354(6) 0.90581(18)
C14B C 0.14551(11) 0.68968(7) 0.83199(18)
H9B H 0.1429 0.7161 0.8433
C15B C 0.16438(11) 0.67570(7) 0.74098(17)
H10B H 0.1739 0.6930 0.6909
C16B C 0.11564(12) 0.66133(8) 1.09222(18)
H11B H 0.1341 0.6386 1.1084
C17B C 0.08867(11) 0.68530(7) 1.1543(2)
H12B H 0.0859 0.6817 1.2226
C18B C 0.07961(11) 0.71066(7) 1.01031(17)
H13B H 0.0698 0.7273 0.9589
N1B N 0.25978(9) 0.57927(5) 0.54551(14)
N2B N 0.17143(9) 0.62049(5) 0.44620(13)
N3B N 0.11003(9) 0.67786(6) 0.99850(14)
N4B N 0.06584(9) 0.71579(6) 1.10382(14)
Ni1B Ni 0.230963(13) 0.582944(7) 0.40097(2)
C19E C 0.32254(14) 0.35745(8) 0.42087(19)
H14E H 0.3232 0.3610 0.4894
C20E C 0.35611(16) 0.32997(9) 0.3713(2)
H15E H 0.3815 0.3128 0.3996
C21E C 0.34319(14) 0.33408(9) 0.2725(2)
H16E H 0.3583 0.3201 0.2200
C22E C 0.30216(12) 0.36381(7) 0.26575(17)
C23E C 0.27782(10) 0.37828(7) 0.17880(16)
C24E C 0.23364(10) 0.40516(7) 0.17296(17)
C25E C 0.21206(11) 0.42208(7) 0.08439(18)
H17E H 0.2252 0.4182 0.0201
C26E C 0.16817(13) 0.44526(8) 0.11195(19)
H18E H 0.1456 0.4600 0.0705
C27E C 0.16445(12) 0.44208(7) 0.21565(18)
H19E H 0.1377 0.4548 0.2537
C28E C 0.30045(11) 0.36435(7) 0.08249(17)
C29E C 0.35561(12) 0.37174(9) 0.0566(2)
H20E H 0.3789 0.3845 0.1013
C30E C 0.37659(12) 0.36031(9) -0.0357(2)
H21E H 0.4130 0.3664 -0.0541
C31E C 0.34248(10) 0.34000(7) -0.09855(18)
C32E C 0.28787(11) 0.33213(7) -0.07470(17)
H22E H 0.2650 0.3188 -0.1190
C33E C 0.26727(11) 0.34425(7) 0.01599(18)
H23E H 0.2304 0.3388 0.0327
C34E C 0.33814(12) 0.32187(9) -0.28103(18)
H24E H 0.3014 0.3284 -0.2961
C35E C 0.37634(11) 0.30607(8) -0.3422(2)
H25E H 0.3699 0.2998 -0.4084
C36E C 0.41748(11) 0.31232(7) -0.20201(18)
H26E H 0.4438 0.3112 -0.1512
N5E N 0.29029(9) 0.37756(6) 0.36118(15)
N6E N 0.20314(9) 0.41894(6) 0.25368(14)
N7E N 0.36521(9) 0.32630(6) -0.19100(15)
N8E N 0.42660(9) 0.30045(6) -0.29298(14)
N4C N -0.06584(9) 0.28421(6) 1.10382(14)
N5G N 0.29029(9) 0.62244(6) 0.36118(15)
N6G N 0.20314(9) 0.58106(6) 0.25368(14)
N8C N -0.07340(9) 0.19955(6) 1.20702(14)
Ni1E Ni 0.269037(13) 0.082944(7) 1.90097(2)
Cd1A Cd 0.0000 0.761673(6) 1.157241(15)
Cd1E Cd 0.5000 0.261673(6) -0.342759(15)
C43 C 0.0000 0.4074(4) 0.5858(11)
H31 H 0.0000 0.3850 0.5478
C44 C 0.0000 0.4333(6) 0.7438(17)
N11 N 0.0000 0.4032(4) 0.6814(12)
O1 O 0.0000 0.4392(3) 0.5391(9)
C45 C 0.0000 0.36615(15) 0.7365(5)
C46 C 0.1209(2) 0.5000 0.8351(4)
H32 H 0.0931 0.5000 0.7868
C47 C 0.2183(2) 0.5000 0.8708(4)
C48 C 0.1855(3) 0.5000 0.7000(3)
N12 N 0.17336(18) 0.5000 0.8035(3)
O2 O 0.10548(18) 0.5000 0.9219(3)
C49 C 0.1483(2) 0.25232(13) 0.5067(5)
H33 H 0.1159 0.2498 0.4691
C50 C 0.1973(3) 0.27367(14) 0.3536(4)
H34 H 0.1644 0.2646 0.3200
H35 H 0.2298 0.2623 0.3239
H36 H 0.1995 0.3013 0.3481
C51 C 0.2466(2) 0.26745(14) 0.5160(4)
H37 H 0.2420 0.2568 0.5814
H38 H 0.2554 0.2944 0.5212
H39 H 0.2764 0.2543 0.4824
N13 N 0.1945(2) 0.26271(9) 0.4598(3)
O3 O 0.14509(18) 0.24588(9) 0.5935(3)
C52 C 0.0000 0.2091(2) 0.5488(5)
H40 H 0.0000 0.2313 0.5099
C53 C 0.0000 0.2540(4) 0.6878(7)
C54 C 0.0000 0.1777(4) 0.7098(5)
N14 N 0.0000 0.21445(18) 0.6445(4)
O4 O 0.0000 0.17823(13) 0.5034(3)
C55? C 0.0000 0.4257(8) 0.644(2)
H41? H 0.0000 0.4107 0.5869
C56? C 0.0000 0.4294(4) 0.8350(19)
H42? H 0.0224 0.4154 0.8819
H43? H -0.0376 0.4314 0.8594
H44? H 0.0152 0.4549 0.8262
N15? N 0.0000 0.4086(4) 0.7369(17)
O5? O 0.0000 0.4601(5) 0.639(2)
H45? H 0.0170 0.4552 0.7119
H46? H -0.0378 0.4396 0.7618
H47? H 0.0208 0.4269 0.8025
H48? H 0.1997 0.5249 0.6810
H49? H 0.1520 0.4945 0.6633
H50? H 0.2131 0.4806 0.6860
H51? H 0.2463 0.5180 0.8489
H52? H 0.2342 0.4746 0.8742
H53? H 0.2051 0.5074 0.9355
H54? H -0.0276 0.2555 0.7396
H55? H 0.0363 0.2596 0.7149
H56? H -0.0087 0.2725 0.6369
H57? H -0.0251 0.1590 0.6818
H58? H 0.0371 0.1672 0.7124
H59? H -0.0121 0.1842 0.7758
loop_
_geom_bond_atom_site_label_1
_geom_bond_atom_site_label_2
_geom_bond_site_symmetry_1
_geom_bond_site_symmetry_2
C1 H1 1_555 1_555
C2 C1 1_555 1_555
H2 C2 1_555 1_555
C3 C2 1_555 1_555
H3 C3 1_555 1_555
C4 C3 1_555 1_555
C5 C4 1_555 1_555
C6 C5 1_555 1_555
C7 C6 1_555 1_555
H4 C7 1_555 1_555
C8 C7 1_555 1_555
H5 C8 1_555 1_555
C9 C8 1_555 1_555
H6 C9 1_555 1_555
C10 C5 1_555 1_555
C11 C10 1_555 1_555
H7 C11 1_555 1_555
C12 C11 1_555 1_555
H8 C12 1_555 1_555
C13 C12 1_555 1_555
C14 C13 1_555 1_555
H9 C14 1_555 1_555
C15 C10 1_555 1_555
H10 C15 1_555 1_555
C16 H11 1_555 1_555
C17 C16 1_555 1_555
H12 C17 1_555 1_555
C18 H13 1_555 1_555
C19 H14 1_555 1_555
C20 C19 1_555 1_555
H15 C20 1_555 1_555
C21 C20 1_555 1_555
H16 C21 1_555 1_555
C22 C21 1_555 1_555
C23 C22 1_555 1_555
C24 C23 1_555 1_555
C25 C24 1_555 1_555
H17 C25 1_555 1_555
C26 C25 1_555 1_555
H18 C26 1_555 1_555
C27 C26 1_555 1_555
H19 C27 1_555 1_555
C28 C23 1_555 1_555
C29 C28 1_555 1_555
H20 C29 1_555 1_555
C30 C29 1_555 1_555
H21 C30 1_555 1_555
C31 C30 1_555 1_555
C32 C31 1_555 1_555
H22 C32 1_555 1_555
C33 C28 1_555 1_555
H23 C33 1_555 1_555
C34 H24 1_555 1_555
C35 C34 1_555 1_555
H25 C35 1_555 1_555
C36 H26 1_555 1_555
C37 H27 1_555 1_555
C38 C37 1_555 1_555
H28 C38 1_555 1_555
C39 C40 1_555 1_555
C40 N9 1_555 1_555
C41 H29 1_555 1_555
C42 C41 1_555 1_555
H30 C42 1_555 1_555
N1 C1 1_555 1_555
N2 C6 1_555 1_555
N3 C13 1_555 1_555
N4 C17 1_555 1_555
N5 C19 1_555 1_555
N6 C24 1_555 1_555
N7 C31 1_555 1_555
N8 C35 1_555 1_555
N9 C41 1_555 1_555
N10 C38 1_555 1_555
Cl1 Cd1 1_555 1_555
Cl2 Cd1 1_555 1_555
Ni1 N1 1_555 1_555
Cd1 N4 1_555 1_555
C43 H31 1_555 1_555
C44 N11 1_555 1_555
N11 C43 1_555 1_555
O1 C43 1_555 1_555
C45 N11 1_555 1_555
C46 H32 1_555 1_555
C47 N12 1_555 1_555
C48 N12 1_555 1_555
N12 C46 1_555 1_555
O2 C46 1_555 1_555
C49 H33 1_555 1_555
C50 H34 1_555 1_555
H35 C50 1_555 1_555
H36 C50 1_555 1_555
C51 H37 1_555 1_555
H38 C51 1_555 1_555
H39 C51 1_555 1_555
N13 C49 1_555 1_555
O3 C49 1_555 1_555
C52 H40 1_555 1_555
C53 N14 1_555 1_555
C54 N14 1_555 1_555
N14 C52 1_555 1_555
O4 C52 1_555 1_555
C38B C37 1_555 1_555
H28B C38B 1_555 1_555
C41B C42 1_555 1_555
H29B C41B 1_555 1_555
N9B C40 1_555 1_555
N10B C39 1_555 1_555
C1B H1B 1_555 1_555
C2B C1B 1_555 1_555
H2B C2B 1_555 1_555
C3B C2B 1_555 1_555
H3B C3B 1_555 1_555
C4B C3B 1_555 1_555
C5B C4B 1_555 1_555
C6B C5B 1_555 1_555
C7B C6B 1_555 1_555
H4B C7B 1_555 1_555
C8B C7B 1_555 1_555
H5B C8B 1_555 1_555
C9B C8B 1_555 1_555
H6B C9B 1_555 1_555
C10B C5B 1_555 1_555
C11B C10B 1_555 1_555
H7B C11B 1_555 1_555
C12B C11B 1_555 1_555
H8B C12B 1_555 1_555
C13B C12B 1_555 1_555
C14B C13B 1_555 1_555
H9B C14B 1_555 1_555
C15B C10B 1_555 1_555
H10B C15B 1_555 1_555
C16B H11B 1_555 1_555
C17B C16B 1_555 1_555
H12B C17B 1_555 1_555
C18B H13B 1_555 1_555
N1B C1B 1_555 1_555
N2B C6B 1_555 1_555
N3B C13B 1_555 1_555
N4B C17B 1_555 1_555
Ni1B N9B 1_555 1_555
C19E H14E 1_555 1_555
C20E C19E 1_555 1_555
H15E C20E 1_555 1_555
C21E C20E 1_555 1_555
H16E C21E 1_555 1_555
C22E C21E 1_555 1_555
C23E C22E 1_555 1_555
C24E C23E 1_555 1_555
C25E C24E 1_555 1_555
H17E C25E 1_555 1_555
C26E C25E 1_555 1_555
H18E C26E 1_555 1_555
C27E C26E 1_555 1_555
H19E C27E 1_555 1_555
C28E C23E 1_555 1_555
C29E C28E 1_555 1_555
H20E C29E 1_555 1_555
C30E C29E 1_555 1_555
H21E C30E 1_555 1_555
C31E C30E 1_555 1_555
C32E C31E 1_555 1_555
H22E C32E 1_555 1_555
C33E C28E 1_555 1_555
H23E C33E 1_555 1_555
C34E H24E 1_555 1_555
C35E C34E 1_555 1_555
H25E C35E 1_555 1_555
C36E H26E 1_555 1_555
N5E Ni1 1_555 1_555
N6E Ni1 1_555 1_555
N7E C31E 1_555 1_555
N8E C35E 1_555 1_555
N4C Cd1 1_555 1_555
N5G Ni1B 1_555 1_555
N6G Ni1B 1_555 1_555
N8C Cd1 1_555 1_555
Ni1E N5 1_555 1_555
Cd1A N4B 1_555 1_555
Cd1E N8E 1_555 1_555
C4 N1 1_555 1_555
C9 N2 1_555 1_555
C14 C15 1_555 1_555
C16 N3 1_555 1_555
C18 N3 1_555 1_555
C18 N4 1_555 1_555
C22 N5 1_555 1_555
C27 N6 1_555 1_555
C32 C33 1_555 1_555
C34 N7 1_555 1_555
C36 N7 1_555 1_555
C36 N8 1_555 1_555
C39 N10 1_555 1_555
N2 Ni1 1_555 1_555
N6 Ni1E 1_555 1_555
N8 Cd1 1_555 1_555
N9 Ni1 1_555 1_555
N10 Ni1 1_555 1_555
C50 N13 1_555 1_555
C51 N13 1_555 1_555
C38B N10B 1_555 1_555
C41B N9B 1_555 1_555
N10B Ni1B 1_555 1_555
C4B N1B 1_555 1_555
C9B N2B 1_555 1_555
C14B C15B 1_555 1_555
C16B N3B 1_555 1_555
C18B N3B 1_555 1_555
C18B N4B 1_555 1_555
N1B Ni1B 1_555 1_555
N2B Ni1B 1_555 1_555
C19E N5E 1_555 1_555
C22E N5E 1_555 1_555
C24E N6E 1_555 1_555
C27E N6E 1_555 1_555
C32E C33E 1_555 1_555
C34E N7E 1_555 1_555
C36E N7E 1_555 1_555
C36E N8E 1_555 1_555

#END
