
#######################################################################
#
#                 Cambridge Crystallographic Data Centre
#                                CCDC 
#
#######################################################################
#
# If this CIF has been generated from an entry in the Cambridge 
# Structural Database, then it will include bibliographic, chemical, 
# crystal, experimental, refinement or atomic coordinate data resulting 
# from the CCDC's data processing and validation procedures.
#
#######################################################################

data_PUDSUD
_symmetry_cell_setting           monoclinic
_symmetry_space_group_name_H-M   'C 2/c'
_symmetry_Int_Tables_number      15
_space_group_name_Hall           '-C 2yn'
loop_
_symmetry_equiv_pos_site_id
_symmetry_equiv_pos_as_xyz
1 x,y,z
2 -x,y,1/2-z
3 1/2+x,1/2+y,z
4 1/2-x,1/2+y,1/2-z
5 -x,-y,-z
6 x,-y,1/2+z
7 1/2-x,1/2-y,-z
8 1/2+x,1/2-y,1/2+z
_cell_length_a                   35.3729(11)
_cell_length_b                   15.0162(5)
_cell_length_c                   30.3812(9)
_cell_angle_alpha                90
_cell_angle_beta                 99.1260(10)
_cell_angle_gamma                90
_cell_volume                     15933.2
loop_
_atom_site_label
_atom_site_type_symbol
_atom_site_fract_x
_atom_site_fract_y
_atom_site_fract_z
Nd1 Nd 0.209147(8) 0.559649(19) 0.358951(10)
Nd2 Nd 0.084870(8) 0.525070(19) 0.343209(10)
S1 S 0.09396(5) 0.45755(14) 0.09185(6)
S2 S 0.20202(5) 1.03263(10) 0.34975(8)
S3 S 0.40078(5) 0.28058(13) 0.40169(6)
C1 C 0.13982(18) 0.5472(4) 0.2619(2)
C2 C 0.14458(18) 0.5463(4) 0.2137(2)
C3 C 0.11684(18) 0.5106(4) 0.1815(2)
H1 H 0.0940 0.4894 0.1890
C4 C 0.17843(17) 0.5776(5) 0.2011(2)
H2 H 0.1977 0.5988 0.2230
C5 C 0.12372(17) 0.5068(4) 0.1380(2)
C6 C 0.18427(18) 0.5781(5) 0.1578(2)
H3 H 0.2061 0.6039 0.1499
C7 C 0.15662(18) 0.5388(4) 0.1254(2)
C8 C 0.15842(17) 0.5263(4) 0.0778(2)
C9 C 0.12619(17) 0.4854(4) 0.0545(2)
C10 C 0.18745(19) 0.5513(5) 0.0545(2)
H4 H 0.2090 0.5809 0.0688
C11 C 0.12227(18) 0.4663(4) 0.0103(2)
H5 H 0.1002 0.4389 -0.0043
C12 C 0.18373(18) 0.5315(4) 0.0098(2)
H6 H 0.2032 0.5475 -0.0058
C13 C 0.15184(17) 0.4886(4) -0.01231(19)
C14 C 0.15003(18) 0.4666(4) -0.0613(2)
C15 C 0.13415(19) 0.7169(4) 0.3484(2)
C16 C 0.13276(17) 0.8170(3) 0.3466(2)
C17 C 0.0983(2) 0.8590(4) 0.3430(3)
H7 H 0.0760 0.8256 0.3406
C18 C 0.16653(17) 0.8640(3) 0.3494(2)
H8 H 0.1901 0.8354 0.3521
C19 C 0.0964(2) 0.9528(4) 0.3429(3)
H9 H 0.0728 0.9812 0.3408
C20 C 0.16360(18) 0.9560(4) 0.3480(2)
C21 C 0.12935(17) 1.0019(4) 0.3457(2)
C22 C 0.13393(17) 1.0982(4) 0.3474(2)
C23 C 0.10615(19) 1.1634(4) 0.3467(3)
H10 H 0.0805 1.1476 0.3444
C24 C 0.17157(17) 1.1256(4) 0.3514(2)
C25 C 0.11673(19) 1.2519(4) 0.3494(3)
H11 H 0.0980 1.2954 0.3493
C26 C 0.18306(17) 1.2136(3) 0.3545(2)
H12 H 0.2088 1.2296 0.3580
C27 C 0.15442(17) 1.2769(3) 0.3524(2)
C28 C 0.16475(17) 1.3745(3) 0.3537(2)
C29 C 0.27528(19) 0.4663(4) 0.3416(3)
C30 C 0.30834(18) 0.4072(4) 0.3339(2)
C31 C 0.33378(19) 0.3782(4) 0.3696(3)
H13 H 0.3308 0.3930 0.3986
C32 C 0.31385(19) 0.3866(5) 0.2911(3)
H14 H 0.2966 0.4077 0.2671
C33 C 0.36417(17) 0.3260(4) 0.3614(2)
C34 C 0.3444(2) 0.3355(5) 0.2832(3)
H15 H 0.3476 0.3217 0.2542
C35 C 0.36981(17) 0.3054(4) 0.3185(2)
C36 C 0.40607(16) 0.2526(4) 0.3182(2)
C37 C 0.42553(17) 0.2358(4) 0.3603(2)
C38 C 0.42103(16) 0.2226(4) 0.2819(2)
H16 H 0.4080 0.2332 0.2533
C39 C 0.45990(16) 0.1912(4) 0.3680(2)
H17 H 0.4728 0.1812 0.3967
C40 C 0.45531(16) 0.1768(4) 0.2877(2)
H18 H 0.4655 0.1565 0.2631
C41 C 0.47435(16) 0.1615(4) 0.3303(2)
C42 C 0.51242(16) 0.1118(4) 0.3369(2)
C43 C 0.0230(4) 0.3708(9) 0.4902(4)
H19 H 0.0043 0.4173 0.4839
H20 H 0.0392 0.3827 0.5180
H21 H 0.0102 0.3148 0.4920
C44 C 0.0412(2) 0.4171(5) 0.4210(3)
H22 H 0.0226 0.4611 0.4201
C45 C 0.0785(4) 0.3028(10) 0.4605(4)
H23 H 0.0931 0.3094 0.4366
H24 H 0.0687 0.2432 0.4604
H25 H 0.0947 0.3142 0.4884
C46 C 0.04492(19) 0.4107(4) 0.2524(3)
H26 H 0.0368 0.4673 0.2427
C47 C 0.0261(4) 0.3580(8) 0.1749(4)
H27 H 0.0170 0.4178 0.1694
H28 H 0.0052 0.3170 0.1674
H29 H 0.0454 0.3456 0.1568
C48 C 0.0551(4) 0.2608(8) 0.2377(4)
H30 H 0.0660 0.2635 0.2687
H31 H 0.0741 0.2398 0.2208
H32 H 0.0337 0.2207 0.2338
C49 C 0.2561(3) 0.6993(7) 0.2956(3)
H33 H 0.2568 0.6514 0.2763
C50 C 0.2771(7) 0.8489(13) 0.3121(7)
H34 H 0.2647 0.8384 0.3375
H35 H 0.2651 0.8985 0.2954
H36 H 0.3037 0.8619 0.3218
C51 C 0.2891(7) 0.7694(13) 0.2451(7)
H37 H 0.2825 0.7140 0.2301
H38 H 0.3165 0.7746 0.2518
H39 H 0.2790 0.8179 0.2262
C52 C 0.2659(6) 0.6479(12) 0.4493(6)
H40 H 0.2680 0.5935 0.4641
C53 C 0.2837(6) 0.8052(11) 0.4470(7)
H41 H 0.3002 0.8485 0.4634
H42 H 0.2574 0.8221 0.4467
H43 H 0.2889 0.8022 0.4170
C54 C 0.3116(5) 0.6971(13) 0.5159(6)
H44 H 0.3163 0.7508 0.5330
H45 H 0.3355 0.6685 0.5138
H46 H 0.2959 0.6578 0.5302
N1 N 0.0426(2) 0.3478(5) 0.2225(2)
N2 N 0.0463(2) 0.3668(5) 0.4544(2)
N3 N 0.2737(2) 0.7721(5) 0.2847(3)
N4 N 0.2903(6) 0.7203(12) 0.4676(6)
O1 O 0.10712(12) 0.5348(3) 0.27093(13)
O2 O 0.16913(13) 0.5620(3) 0.28921(15)
O3 O 0.05807(14) 0.5032(5) 0.08088(17)
O4 O 0.09225(18) 0.3635(4) 0.09763(17)
O5 O 0.11804(12) 0.4460(3) -0.08280(13)
O6 O 0.18109(12) 0.4701(3) -0.07577(14)
O7 O 0.10274(14) 0.6774(2) 0.33763(14)
O8 O 0.16609(13) 0.6830(3) 0.36199(16)
O9 O 0.21760(16) 1.0325(3) 0.3086(2)
O10 O 0.22788(14) 1.0233(3) 0.3907(2)
O11 O 0.13822(12) 1.4299(2) 0.35100(15)
O12 O 0.19796(13) 1.3967(3) 0.35697(18)
O13 O 0.27351(12) 0.4908(3) 0.38066(17)
O14 O 0.25144(13) 0.4897(3) 0.30843(17)
O15 O 0.42254(14) 0.3491(4) 0.42617(17)
O16 O 0.38587(15) 0.2113(4) 0.42639(17)
O17 O 0.53142(12) 0.1047(3) 0.37516(15)
O18 O 0.52348(11) 0.0800(3) 0.30343(15)
O19 O 0.05901(14) 0.4128(3) 0.38909(17)
O20 O 0.05704(13) 0.4010(3) 0.29229(17)
O21 O 0.24446(17) 0.6546(4) 0.41777(19)
O22 O 0.24003(16) 0.6859(4) 0.3250(2)
Nd1E Nd 0.209147(8) 0.440351(19) -0.141049(10)
Nd1_2 Nd 0.209147(8) 1.559649(19) 0.358951(10)
Nd2E Nd 0.084870(8) 0.474930(19) -0.156791(10)
Nd2_2 Nd 0.084870(8) 1.525070(19) 0.343209(10)
Nd2B Nd 0.584870(8) 0.025070(19) 0.343209(10)
O5E O 0.11804(12) 0.5540(3) 0.41720(13)
O6E O 0.18109(12) 0.5299(3) 0.42423(14)
O11_2 O 0.13822(12) 0.4299(2) 0.35100(15)
O12_2 O 0.19796(13) 0.3967(3) 0.35697(18)
O17B O 0.03142(12) 0.6047(3) 0.37516(15)
O18B O 0.02348(11) 0.5800(3) 0.30343(15)
loop_
_geom_bond_atom_site_label_1
_geom_bond_atom_site_label_2
_geom_bond_site_symmetry_1
_geom_bond_site_symmetry_2
Nd1 O2 1_555 1_555
Nd2 O1 1_555 1_555
S1 C5 1_555 1_555
S2 C20 1_555 1_555
S3 C33 1_555 1_555
C1 C2 1_555 1_555
C2 C3 1_555 1_555
C3 H1 1_555 1_555
C4 C2 1_555 1_555
H2 C4 1_555 1_555
C5 C3 1_555 1_555
C6 C4 1_555 1_555
H3 C6 1_555 1_555
C7 C5 1_555 1_555
C8 C7 1_555 1_555
C9 S1 1_555 1_555
C10 C8 1_555 1_555
H4 C10 1_555 1_555
C11 C9 1_555 1_555
H5 C11 1_555 1_555
C12 C10 1_555 1_555
H6 C12 1_555 1_555
C13 C11 1_555 1_555
C14 C13 1_555 1_555
C15 C16 1_555 1_555
C16 C17 1_555 1_555
C17 H7 1_555 1_555
C18 C16 1_555 1_555
H8 C18 1_555 1_555
C19 C17 1_555 1_555
H9 C19 1_555 1_555
C20 C18 1_555 1_555
C21 C19 1_555 1_555
C22 C21 1_555 1_555
C23 C22 1_555 1_555
H10 C23 1_555 1_555
C24 S2 1_555 1_555
C25 C23 1_555 1_555
H11 C25 1_555 1_555
C26 C24 1_555 1_555
H12 C26 1_555 1_555
C27 C25 1_555 1_555
C28 C27 1_555 1_555
C29 C30 1_555 1_555
C30 C31 1_555 1_555
C31 H13 1_555 1_555
C32 C30 1_555 1_555
H14 C32 1_555 1_555
C33 C31 1_555 1_555
C34 C32 1_555 1_555
H15 C34 1_555 1_555
C35 C33 1_555 1_555
C36 C35 1_555 1_555
C37 S3 1_555 1_555
C38 C36 1_555 1_555
H16 C38 1_555 1_555
C39 C37 1_555 1_555
H17 C39 1_555 1_555
C40 C38 1_555 1_555
H18 C40 1_555 1_555
C41 C39 1_555 1_555
C42 C41 1_555 1_555
C43 H19 1_555 1_555
H20 C43 1_555 1_555
H21 C43 1_555 1_555
C44 H22 1_555 1_555
C45 H23 1_555 1_555
H24 C45 1_555 1_555
H25 C45 1_555 1_555
C46 H26 1_555 1_555
C47 H27 1_555 1_555
H28 C47 1_555 1_555
H29 C47 1_555 1_555
C48 H30 1_555 1_555
H31 C48 1_555 1_555
H32 C48 1_555 1_555
C49 H33 1_555 1_555
C50 H34 1_555 1_555
H35 C50 1_555 1_555
H36 C50 1_555 1_555
C51 H37 1_555 1_555
H38 C51 1_555 1_555
H39 C51 1_555 1_555
C52 H40 1_555 1_555
C53 H41 1_555 1_555
H42 C53 1_555 1_555
H43 C53 1_555 1_555
C54 H44 1_555 1_555
H45 C54 1_555 1_555
H46 C54 1_555 1_555
N1 C46 1_555 1_555
N2 C43 1_555 1_555
N3 C49 1_555 1_555
N4 C52 1_555 1_555
O1 C1 1_555 1_555
O2 C1 1_555 1_555
O3 S1 1_555 1_555
O4 S1 1_555 1_555
O5 C14 1_555 1_555
O6 C14 1_555 1_555
O7 Nd2 1_555 1_555
O8 Nd1 1_555 1_555
O9 S2 1_555 1_555
O10 S2 1_555 1_555
O11 C28 1_555 1_555
O12 C28 1_555 1_555
O13 Nd1 1_555 1_555
O14 Nd1 1_555 1_555
O15 S3 1_555 1_555
O16 S3 1_555 1_555
O17 C42 1_555 1_555
O18 C42 1_555 1_555
O19 Nd2 1_555 1_555
O20 Nd2 1_555 1_555
O21 Nd1 1_555 1_555
O22 Nd1 1_555 1_555
Nd1E O6 1_555 1_555
Nd1_2 O12 1_555 1_555
Nd2E O5 1_555 1_555
Nd2_2 O11 1_555 1_555
Nd2B O17 1_555 1_555
O5E Nd2 1_555 1_555
O6E Nd1 1_555 1_555
O11_2 Nd2 1_555 1_555
O12_2 Nd1 1_555 1_555
O17B Nd2 1_555 1_555
O18B Nd2 1_555 1_555
C6 C7 1_555 1_555
C8 C9 1_555 1_555
C12 C13 1_555 1_555
C15 O7 1_555 1_555
C15 O8 1_555 1_555
C20 C21 1_555 1_555
C22 C24 1_555 1_555
C26 C27 1_555 1_555
C29 O13 1_555 1_555
C29 O14 1_555 1_555
C34 C35 1_555 1_555
C36 C37 1_555 1_555
C40 C41 1_555 1_555
C44 N2 1_555 1_555
C44 O19 1_555 1_555
C45 N2 1_555 1_555
C46 O20 1_555 1_555
C47 N1 1_555 1_555
C48 N1 1_555 1_555
C49 O22 1_555 1_555
C50 N3 1_555 1_555
C51 N3 1_555 1_555
C52 O21 1_555 1_555
C53 N4 1_555 1_555
C54 N4 1_555 1_555
O18 Nd2B 1_555 1_555

#END
