
#######################################################################
#
#                 Cambridge Crystallographic Data Centre
#                                CCDC 
#
#######################################################################
#
# If this CIF has been generated from an entry in the Cambridge 
# Structural Database, then it will include bibliographic, chemical, 
# crystal, experimental, refinement or atomic coordinate data resulting 
# from the CCDC's data processing and validation procedures.
#
#######################################################################

data_PUDSIR01
_symmetry_cell_setting           monoclinic
_symmetry_space_group_name_H-M   'C 2/c'
_symmetry_Int_Tables_number      15
_space_group_name_Hall           '-C 2yn'
loop_
_symmetry_equiv_pos_site_id
_symmetry_equiv_pos_as_xyz
1 x,y,z
2 -x,y,1/2-z
3 1/2+x,1/2+y,z
4 1/2-x,1/2+y,1/2-z
5 -x,-y,-z
6 x,-y,1/2+z
7 1/2-x,1/2-y,-z
8 1/2+x,1/2-y,1/2+z
_cell_length_a                   35.0409(17)
_cell_length_b                   14.9178(7)
_cell_length_c                   30.1429(14)
_cell_angle_alpha                90
_cell_angle_beta                 98.3860(10)
_cell_angle_gamma                90
_cell_volume                     15588.2
loop_
_atom_site_label
_atom_site_type_symbol
_atom_site_fract_x
_atom_site_fract_y
_atom_site_fract_z
Eu1 Eu 0.208881(5) 0.570767(12) 0.357284(6)
Eu2 Eu 0.085915(5) 0.531736(12) 0.343016(6)
S1 S 0.09355(3) 0.46720(10) 0.09154(4)
S2 S 0.20291(3) 1.04035(7) 0.35126(5)
S3 S 0.40332(3) 0.30040(10) 0.40205(4)
C1 C 0.14089(12) 0.5600(3) 0.26120(12)
C2 C 0.14488(12) 0.5599(3) 0.21213(12)
C3 C 0.11660(12) 0.5211(3) 0.18073(13)
H1 H 0.0943 0.4968 0.1892
C4 C 0.17744(12) 0.5972(4) 0.19837(14)
H2 H 0.1962 0.6227 0.2196
C5 C 0.12287(11) 0.5201(3) 0.13688(13)
C6 C 0.18250(12) 0.5971(4) 0.15378(14)
H3 H 0.2040 0.6243 0.1449
C7 C 0.15553(12) 0.5567(3) 0.12275(13)
C8 C 0.15646(12) 0.5420(3) 0.07442(13)
C9 C 0.12510(11) 0.4949(3) 0.05316(13)
C10 C 0.18566(13) 0.5677(3) 0.05011(14)
H4 H 0.2068 0.6007 0.0635
C11 C 0.12143(12) 0.4703(3) 0.00866(13)
H5 H 0.0998 0.4394 -0.0050
C12 C 0.18231(12) 0.5426(3) 0.00568(13)
H6 H 0.2015 0.5591 -0.0109
C13 C 0.15112(11) 0.4933(3) -0.01496(12)
C14 C 0.15075(11) 0.4629(3) -0.06296(12)
C15 C 0.13272(12) 0.7239(2) 0.34902(13)
C16 C 0.13245(12) 0.8249(3) 0.34839(14)
C17 C 0.09784(15) 0.8703(3) 0.3466(2)
H7 H 0.0752 0.8372 0.3453
C18 C 0.16657(12) 0.8729(3) 0.35052(15)
H8 H 0.1902 0.8439 0.3520
C19 C 0.09552(15) 0.9603(3) 0.3464(2)
H9 H 0.0718 0.9889 0.3443
C20 C 0.16415(12) 0.9643(3) 0.35041(17)
C21 C 0.13000(13) 1.0100(3) 0.34958(19)
C22 C 0.13468(12) 1.1090(3) 0.35143(18)
C23 C 0.10683(14) 1.1725(3) 0.3506(2)
H10 H 0.0810 1.1566 0.3489
C24 C 0.17314(12) 1.1340(3) 0.35383(16)
C25 C 0.11813(13) 1.2621(3) 0.3523(2)
H11 H 0.0994 1.3063 0.3521
C26 C 0.18454(12) 1.2225(3) 0.35596(15)
H12 H 0.2105 1.2379 0.3584
C27 C 0.15653(12) 1.2876(2) 0.35441(14)
C28 C 0.16646(11) 1.3854(2) 0.35338(13)
C29 C 0.27639(11) 0.4826(3) 0.34049(16)
C30 C 0.31010(12) 0.4251(3) 0.33322(15)
C31 C 0.33543(12) 0.3956(3) 0.36964(15)
H13 H 0.3319 0.4103 0.3987
C32 C 0.31556(13) 0.4010(4) 0.29014(16)
H14 H 0.2980 0.4204 0.2659
C33 C 0.36640(12) 0.3432(3) 0.36136(14)
C34 C 0.34669(13) 0.3486(4) 0.28247(16)
H15 H 0.3501 0.3333 0.2534
C35 C 0.37251(11) 0.3198(3) 0.31843(14)
C36 C 0.40811(11) 0.2663(3) 0.31842(14)
C37 C 0.42800(11) 0.2512(3) 0.36085(13)
C38 C 0.42309(11) 0.2320(3) 0.28185(13)
H16 H 0.4104 0.2417 0.2529
C39 C 0.46170(12) 0.2037(3) 0.36870(14)
H17 H 0.4742 0.1943 0.3977
C40 C 0.45678(11) 0.1838(3) 0.28863(13)
H18 H 0.4666 0.1598 0.2641
C41 C 0.47654(10) 0.1701(3) 0.33181(13)
C42 C 0.51372(10) 0.1185(3) 0.33809(13)
C43 C 0.0176(3) 0.3679(7) 0.4856(3)
H19 H -0.0005 0.4164 0.4800
H20 H 0.0325 0.3750 0.5147
H21 H 0.0038 0.3121 0.4844
C44 C 0.03987(15) 0.4240(4) 0.41970(17)
H22 H 0.0216 0.4692 0.4193
C45 C 0.0733(3) 0.2999(7) 0.4568(3)
H23 H 0.0959 0.3243 0.4467
H24 H 0.0646 0.2484 0.4390
H25 H 0.0794 0.2825 0.4877
C46 C 0.04642(15) 0.4162(4) 0.25350(19)
H26 H 0.0369 0.4724 0.2442
C47 C 0.0254(3) 0.3657(6) 0.1771(3)
H27 H 0.0166 0.4265 0.1730
H28 H 0.0039 0.3256 0.1706
H29 H 0.0438 0.3534 0.1573
C48 C 0.0588(3) 0.2637(6) 0.2378(3)
H30 H 0.0694 0.2659 0.2690
H31 H 0.0787 0.2471 0.2205
H32 H 0.0385 0.2201 0.2333
C49 C 0.25604(18) 0.7110(5) 0.2953(2)
H33 H 0.2576 0.6628 0.2760
C50 C 0.2787(5) 0.8583(9) 0.3138(5)
H34 H 0.2567 0.8627 0.3293
H35 H 0.2809 0.9121 0.2969
H36 H 0.3016 0.8503 0.3351
C51 C 0.2906(4) 0.7865(9) 0.2430(5)
H37 H 0.2806 0.7369 0.2245
H38 H 0.3182 0.7817 0.2496
H39 H 0.2839 0.8416 0.2273
C52 C 0.2702(4) 0.6799(8) 0.4328(5)
H40 H 0.2885 0.6343 0.4344
C53 C 0.2525(4) 0.8310(8) 0.4540(5)
H41 H 0.2645 0.8858 0.4654
H42 H 0.2351 0.8107 0.4736
H43 H 0.2386 0.8413 0.4246
C54 C 0.3161(4) 0.8052(8) 0.4394(5)
H44 H 0.3197 0.8630 0.4535
H45 H 0.3134 0.8121 0.4075
H46 H 0.3380 0.7681 0.4494
N1 N 0.04332(15) 0.3529(3) 0.22305(16)
N2 N 0.04266(15) 0.3679(3) 0.45231(15)
N3 N 0.27404(15) 0.7853(4) 0.28475(18)
N4 N 0.2817(4) 0.7638(8) 0.4515(4)
O1 O 0.10812(8) 0.5467(2) 0.27166(9)
O2 O 0.17111(9) 0.5714(2) 0.28760(9)
O3 O 0.05676(9) 0.5111(4) 0.08095(11)
O4 O 0.09309(14) 0.3722(3) 0.09817(12)
O5 O 0.11873(8) 0.4400(2) -0.08409(8)
O6 O 0.18208(8) 0.4649(2) -0.07732(9)
O7 O 0.10143(9) 0.68429(17) 0.33792(9)
O8 O 0.16441(9) 0.68716(19) 0.36077(11)
O9 O 0.21809(12) 1.0394(3) 0.30887(16)
O10 O 0.22962(11) 1.0302(2) 0.39107(17)
O11 O 0.13953(8) 1.44112(17) 0.34991(10)
O12 O 0.20120(8) 1.40676(18) 0.35627(11)
O13 O 0.27279(8) 0.5054(2) 0.37961(11)
O14 O 0.25209(8) 0.5032(2) 0.30738(11)
O15 O 0.42560(11) 0.3716(3) 0.42445(13)
O16 O 0.38891(11) 0.2343(3) 0.42975(12)
O17 O 0.53328(8) 0.1136(2) 0.37620(9)
O18 O 0.52438(8) 0.0828(2) 0.30430(9)
O19 O 0.05944(10) 0.4229(2) 0.38867(12)
O20 O 0.06069(9) 0.4089(2) 0.29314(11)
O21 O 0.24084(11) 0.6655(3) 0.41651(13)
O22 O 0.23931(11) 0.6975(3) 0.32366(14)
Eu1E Eu 0.208881(5) 0.429233(12) -0.142716(6)
Eu1_2 Eu 0.208881(5) 1.570767(12) 0.357284(6)
Eu2E Eu 0.085915(5) 0.468264(12) -0.156984(6)
Eu2_2 Eu 0.085915(5) 1.531736(12) 0.343016(6)
Eu2B Eu 0.585915(5) 0.031736(12) 0.343016(6)
O5E O 0.11873(8) 0.5600(2) 0.41591(8)
O6E O 0.18208(8) 0.5351(2) 0.42268(9)
O11_2 O 0.13953(8) 0.44112(17) 0.34991(10)
O12_2 O 0.20120(8) 0.40676(18) 0.35627(11)
O17B O 0.03328(8) 0.6136(2) 0.37620(9)
O18B O 0.02438(8) 0.5828(2) 0.30430(9)
loop_
_geom_bond_atom_site_label_1
_geom_bond_atom_site_label_2
_geom_bond_site_symmetry_1
_geom_bond_site_symmetry_2
Eu1 O2 1_555 1_555
Eu2 O1 1_555 1_555
S1 C5 1_555 1_555
S2 C20 1_555 1_555
S3 C33 1_555 1_555
C1 C2 1_555 1_555
C2 C3 1_555 1_555
C3 H1 1_555 1_555
C4 C2 1_555 1_555
H2 C4 1_555 1_555
C5 C3 1_555 1_555
C6 C4 1_555 1_555
H3 C6 1_555 1_555
C7 C5 1_555 1_555
C8 C7 1_555 1_555
C9 S1 1_555 1_555
C10 C8 1_555 1_555
H4 C10 1_555 1_555
C11 C9 1_555 1_555
H5 C11 1_555 1_555
C12 C10 1_555 1_555
H6 C12 1_555 1_555
C13 C11 1_555 1_555
C14 C13 1_555 1_555
C15 C16 1_555 1_555
C16 C17 1_555 1_555
C17 H7 1_555 1_555
C18 C16 1_555 1_555
H8 C18 1_555 1_555
C19 C17 1_555 1_555
H9 C19 1_555 1_555
C20 C18 1_555 1_555
C21 C19 1_555 1_555
C22 C21 1_555 1_555
C23 C22 1_555 1_555
H10 C23 1_555 1_555
C24 S2 1_555 1_555
C25 C23 1_555 1_555
H11 C25 1_555 1_555
C26 C24 1_555 1_555
H12 C26 1_555 1_555
C27 C25 1_555 1_555
C28 C27 1_555 1_555
C29 C30 1_555 1_555
C30 C31 1_555 1_555
C31 H13 1_555 1_555
C32 C30 1_555 1_555
H14 C32 1_555 1_555
C33 C31 1_555 1_555
C34 C32 1_555 1_555
H15 C34 1_555 1_555
C35 C33 1_555 1_555
C36 C35 1_555 1_555
C37 S3 1_555 1_555
C38 C36 1_555 1_555
H16 C38 1_555 1_555
C39 C37 1_555 1_555
H17 C39 1_555 1_555
C40 C38 1_555 1_555
H18 C40 1_555 1_555
C41 C39 1_555 1_555
C42 C41 1_555 1_555
C43 H19 1_555 1_555
H20 C43 1_555 1_555
H21 C43 1_555 1_555
C44 H22 1_555 1_555
C45 H23 1_555 1_555
H24 C45 1_555 1_555
H25 C45 1_555 1_555
C46 H26 1_555 1_555
C47 H27 1_555 1_555
H28 C47 1_555 1_555
H29 C47 1_555 1_555
C48 H30 1_555 1_555
H31 C48 1_555 1_555
H32 C48 1_555 1_555
C49 H33 1_555 1_555
C50 H34 1_555 1_555
H35 C50 1_555 1_555
H36 C50 1_555 1_555
C51 H37 1_555 1_555
H38 C51 1_555 1_555
H39 C51 1_555 1_555
C52 H40 1_555 1_555
C53 H41 1_555 1_555
H42 C53 1_555 1_555
H43 C53 1_555 1_555
C54 H44 1_555 1_555
H45 C54 1_555 1_555
H46 C54 1_555 1_555
N1 C46 1_555 1_555
N2 C43 1_555 1_555
N3 C49 1_555 1_555
N4 C52 1_555 1_555
O1 C1 1_555 1_555
O2 C1 1_555 1_555
O3 S1 1_555 1_555
O4 S1 1_555 1_555
O5 C14 1_555 1_555
O6 C14 1_555 1_555
O7 Eu2 1_555 1_555
O8 Eu1 1_555 1_555
O9 S2 1_555 1_555
O10 S2 1_555 1_555
O11 C28 1_555 1_555
O12 C28 1_555 1_555
O13 Eu1 1_555 1_555
O14 Eu1 1_555 1_555
O15 S3 1_555 1_555
O16 S3 1_555 1_555
O17 C42 1_555 1_555
O18 C42 1_555 1_555
O19 Eu2 1_555 1_555
O20 Eu2 1_555 1_555
O21 Eu1 1_555 1_555
O22 Eu1 1_555 1_555
Eu1E O6 1_555 1_555
Eu1_2 O12 1_555 1_555
Eu2E O5 1_555 1_555
Eu2_2 O11 1_555 1_555
Eu2B O17 1_555 1_555
O5E Eu2 1_555 1_555
O6E Eu1 1_555 1_555
O11_2 Eu2 1_555 1_555
O12_2 Eu1 1_555 1_555
O17B Eu2 1_555 1_555
O18B Eu2 1_555 1_555
C6 C7 1_555 1_555
C8 C9 1_555 1_555
C12 C13 1_555 1_555
C15 O7 1_555 1_555
C15 O8 1_555 1_555
C20 C21 1_555 1_555
C22 C24 1_555 1_555
C26 C27 1_555 1_555
C29 O13 1_555 1_555
C29 O14 1_555 1_555
C34 C35 1_555 1_555
C36 C37 1_555 1_555
C40 C41 1_555 1_555
C44 N2 1_555 1_555
C44 O19 1_555 1_555
C45 N2 1_555 1_555
C46 O20 1_555 1_555
C47 N1 1_555 1_555
C48 N1 1_555 1_555
C49 O22 1_555 1_555
C50 N3 1_555 1_555
C51 N3 1_555 1_555
C52 O21 1_555 1_555
C53 N4 1_555 1_555
C54 N4 1_555 1_555
O18 Eu2B 1_555 1_555

#END
