
#######################################################################
#
#                 Cambridge Crystallographic Data Centre
#                                CCDC 
#
#######################################################################
#
# If this CIF has been generated from an entry in the Cambridge 
# Structural Database, then it will include bibliographic, chemical, 
# crystal, experimental, refinement or atomic coordinate data resulting 
# from the CCDC's data processing and validation procedures.
#
#######################################################################

data_PUFQIS
_symmetry_cell_setting           monoclinic
_symmetry_space_group_name_H-M   'P 21/n'
_symmetry_Int_Tables_number      14
_space_group_name_Hall           '-P 2yn'
loop_
_symmetry_equiv_pos_site_id
_symmetry_equiv_pos_as_xyz
1 x,y,z
2 1/2-x,1/2+y,1/2-z
3 -x,-y,-z
4 1/2+x,1/2-y,1/2+z
_cell_length_a                   10.349(2)
_cell_length_b                   32.284(7)
_cell_length_c                   26.084(5)
_cell_angle_alpha                90
_cell_angle_beta                 90.00(3)
_cell_angle_gamma                90
_cell_volume                     8714.85
loop_
_atom_site_label
_atom_site_type_symbol
_atom_site_fract_x
_atom_site_fract_y
_atom_site_fract_z
C41 C 0.2579(10) 0.3831(3) 0.7967(4)
H21 H 0.2288 0.3929 0.7730
H22 H 0.2931 0.3580 0.7828
H23 H 0.1801 0.3769 0.8153
C42 C 0.3624(10) 0.3731(3) 0.8630(4)
H24 H 0.4241 0.3848 0.8864
H25 H 0.2839 0.3670 0.8811
H26 H 0.3968 0.3480 0.8587
N3 N 0.3383(9) 0.3941(3) 0.8280(4)
H27 H 0.3063 0.4178 0.8412
H28 H 0.4115 0.4001 0.8110
C1 C 0.2644(9) 0.5288(3) 0.7523(4)
C2 C 0.3796(9) 0.5038(3) 0.7547(4)
C3 C 0.5001(8) 0.5254(3) 0.7566(4)
H1 H 0.5014 0.5544 0.7600
C4 C 0.6166(9) 0.5031(3) 0.7534(4)
C5 C 0.6161(10) 0.4611(3) 0.7484(4)
H2 H 0.6946 0.4468 0.7445
C6 C 0.5022(10) 0.4397(4) 0.7491(5)
C7 C 0.3841(10) 0.4612(4) 0.7513(5)
H3 H 0.3064 0.4461 0.7504
C8 C 0.7410(9) 0.5278(3) 0.7528(4)
C9 C 0.5838(14) 0.3690(5) 0.7234(6)
C10 C 0.5758(9) 0.3247(2) 0.7278(4)
C11 C 0.6405(9) 0.2969(3) 0.6962(3)
H4 H 0.6868 0.3067 0.6676
C12 C 0.6369(8) 0.2548(3) 0.7068(3)
H5 H 0.6807 0.2360 0.6854
C13 C 0.5684(7) 0.2404(2) 0.7490(3)
C14 C 0.5036(8) 0.2681(3) 0.7806(3)
H6 H 0.4573 0.2584 0.8092
C15 C 0.5073(9) 0.3103(3) 0.7700(3)
H7 H 0.4635 0.3291 0.7914
C16 C 0.5589(12) 0.1986(2) 0.7603(5)
C17 C 0.0003(10) 0.5400(4) 0.5992(4)
C18 C -0.0022(13) 0.5177(5) 0.5461(5)
C19 C 0.0430(13) 0.5403(5) 0.5051(5)
C20 C -0.0545(14) 0.4788(5) 0.5441(5)
C21 C -0.2631(11) 0.6423(4) 0.6506(5)
C22 C -0.3816(11) 0.6606(5) 0.6312(5)
C23 C -0.5006(11) 0.6428(5) 0.6486(5)
H8 H -0.5004 0.6202 0.6713
C24 C -0.6173(11) 0.6597(4) 0.6310(5)
C25 C -0.6158(11) 0.6859(4) 0.5868(5)
H9 H -0.6935 0.6949 0.5718
C26 C -0.4984(12) 0.6978(5) 0.5667(5)
C27 C -0.3858(11) 0.6857(4) 0.5870(5)
H10 H -0.3081 0.6941 0.5715
C28 C -0.7364(10) 0.6408(4) 0.6500(5)
C29 C -0.5914(18) 0.7505(7) 0.5059(8)
C30 C -0.5609(13) 0.7770(4) 0.4653(5)
C31 C -0.6637(9) 0.7973(4) 0.4420(5)
H11 H -0.7489 0.7915 0.4522
C32 C -0.6404(9) 0.8263(4) 0.4037(4)
H12 H -0.7099 0.8401 0.3879
C33 C -0.5144(11) 0.8349(3) 0.3887(4)
C34 C -0.4116(8) 0.8146(4) 0.4120(5)
H13 H -0.3264 0.8204 0.4018
C35 C -0.4349(11) 0.7856(4) 0.4503(5)
H14 H -0.3654 0.7718 0.4660
C36 C -0.5070(10) 0.8632(3) 0.3467(4)
C37 C 0.1137(17) 0.5789(6) 0.5023(6)
H15 H 0.1159 0.5868 0.5371
C38 C 0.1539(19) 0.6006(7) 0.4688(8)
H16 H 0.1885 0.6252 0.4842
C39 C -0.1122(18) 0.4551(6) 0.5763(8)
H17 H -0.1093 0.4635 0.6104
C40 C -0.1566(17) 0.4188(7) 0.5816(7)
H18 H -0.1779 0.4141 0.6170
N1 N 0.4995(8) 0.3961(3) 0.7449(4)
H19 H 0.4302 0.3839 0.7422
N2 N -0.5032(9) 0.7260(3) 0.5284(4)
H20 H -0.4242 0.7322 0.5161
O1 O 0.1588(5) 0.5093(2) 0.7345(2)
O2 O 0.2597(5) 0.56381(18) 0.7704(2)
O3 O 0.7394(5) 0.56366(17) 0.7703(2)
O4 O 0.8441(5) 0.50938(19) 0.7351(2)
O5 O 0.6794(11) 0.3836(3) 0.6953(5)
O6 O 0.4967(8) 0.1873(3) 0.7912(4)
O7 O 0.6574(10) 0.1798(4) 0.7322(4)
O8 O 0.0002(6) 0.5169(2) 0.6368(2)
O9 O -0.0031(7) 0.5784(2) 0.6008(2)
O10 O -0.1562(5) 0.6496(2) 0.6278(2)
O11 O -0.2681(7) 0.6229(3) 0.6905(4)
O12 O -0.7313(7) 0.6219(3) 0.6909(4)
O13 O -0.8424(5) 0.6499(2) 0.6280(2)
O14 O -0.7083(11) 0.7512(4) 0.5256(5)
O15 O -0.5996(9) 0.8727(3) 0.3240(3)
O16 O -0.3991(9) 0.8753(3) 0.3269(3)
O17 O -0.0004(4) 0.59329(16) 0.7172(2)
Zn1 Zn -0.15290(9) 0.61323(3) 0.75327(4)
Zn2 Zn 0.15391(9) 0.61322(3) 0.75320(4)
Zn3 Zn 0.00029(9) 0.53478(3) 0.71021(4)
Zn4 Zn 0.00000(9) 0.62435(4) 0.65364(4)
C17B C -0.0003(10) 0.4600(4) 0.4008(4)
C18B C 0.0022(13) 0.4823(5) 0.4539(5)
C19B C -0.0430(13) 0.4597(5) 0.4949(5)
C20B C 0.0545(14) 0.5212(5) 0.4559(5)
C37B C -0.1137(17) 0.4211(6) 0.4977(6)
H15B H -0.1159 0.4132 0.4629
C38B C -0.1539(19) 0.3994(7) 0.5312(8)
H16B H -0.1885 0.3748 0.5158
C39B C 0.1122(18) 0.5449(6) 0.4237(8)
H17B H 0.1093 0.5365 0.3896
C40B C 0.1566(17) 0.5812(7) 0.4184(7)
H18B H 0.1779 0.5859 0.3830
O8B O -0.0002(6) 0.4831(2) 0.3632(2)
O9B O 0.0031(7) 0.4216(2) 0.3992(2)
C1B C -0.2644(9) 0.4712(3) 0.2477(4)
C2B C -0.3796(9) 0.4962(3) 0.2453(4)
C3B C -0.5001(8) 0.4746(3) 0.2434(4)
H1B H -0.5014 0.4456 0.2400
C4B C -0.6166(9) 0.4969(3) 0.2466(4)
C5B C -0.6161(10) 0.5389(3) 0.2516(4)
H2B H -0.6946 0.5532 0.2555
C6B C -0.5022(10) 0.5603(4) 0.2509(5)
C7B C -0.3841(10) 0.5388(4) 0.2487(5)
H3B H -0.3064 0.5539 0.2496
C8B C -0.7410(9) 0.4722(3) 0.2472(4)
C9B C -0.5838(14) 0.6310(5) 0.2766(6)
C10B C -0.5758(9) 0.6753(2) 0.2722(4)
C11B C -0.6405(9) 0.7031(3) 0.3038(3)
H4B H -0.6868 0.6933 0.3324
C12B C -0.6369(8) 0.7452(3) 0.2932(3)
H5B H -0.6807 0.7640 0.3146
C13B C -0.5684(7) 0.7596(2) 0.2510(3)
C14B C -0.5036(8) 0.7319(3) 0.2194(3)
H6B H -0.4573 0.7416 0.1908
C15B C -0.5073(9) 0.6897(3) 0.2300(3)
H7B H -0.4635 0.6709 0.2086
C16B C -0.5589(12) 0.8014(2) 0.2397(5)
C21B C 0.2631(11) 0.3577(4) 0.3494(5)
C22B C 0.3816(11) 0.3394(5) 0.3688(5)
C23B C 0.5006(11) 0.3572(5) 0.3514(5)
H8B H 0.5004 0.3798 0.3287
C24B C 0.6173(11) 0.3403(4) 0.3690(5)
C25B C 0.6158(11) 0.3141(4) 0.4132(5)
H9B H 0.6935 0.3051 0.4282
C26B C 0.4984(12) 0.3022(5) 0.4333(5)
C27B C 0.3858(11) 0.3143(4) 0.4130(5)
H10B H 0.3081 0.3059 0.4285
C28B C 0.7364(10) 0.3592(4) 0.3500(5)
C29B C 0.5914(18) 0.2495(7) 0.4941(8)
C30B C 0.5609(13) 0.2230(4) 0.5347(5)
C31B C 0.6637(9) 0.2027(4) 0.5580(5)
H11B H 0.7489 0.2085 0.5478
C32B C 0.6404(9) 0.1737(4) 0.5963(4)
H12B H 0.7099 0.1599 0.6121
C33B C 0.5144(11) 0.1651(3) 0.6113(4)
C34B C 0.4116(8) 0.1854(4) 0.5880(5)
H13B H 0.3264 0.1796 0.5982
C35B C 0.4349(11) 0.2144(4) 0.5497(5)
H14B H 0.3654 0.2282 0.5340
C36B C 0.5070(10) 0.1368(3) 0.6533(4)
N1B N -0.4995(8) 0.6039(3) 0.2551(4)
H19B H -0.4302 0.6161 0.2578
N2B N 0.5032(9) 0.2740(3) 0.4716(4)
H20B H 0.4242 0.2678 0.4839
O1B O -0.1588(5) 0.4907(2) 0.2655(2)
O2B O -0.2597(5) 0.43619(18) 0.2296(2)
O3B O -0.7394(5) 0.43634(17) 0.2297(2)
O4B O -0.8441(5) 0.49062(19) 0.2649(2)
O5B O -0.6794(11) 0.6164(3) 0.3047(5)
O6B O -0.4967(8) 0.8127(3) 0.2088(4)
O7B O -0.6574(10) 0.8202(4) 0.2678(4)
O10B O 0.1562(5) 0.3504(2) 0.3722(2)
O11B O 0.2681(7) 0.3771(3) 0.3095(4)
O12B O 0.7313(7) 0.3781(3) 0.3091(4)
O13B O 0.8424(5) 0.3501(2) 0.3720(2)
O14B O 0.7083(11) 0.2488(4) 0.4744(5)
O15B O 0.5996(9) 0.1273(3) 0.6760(3)
O16B O 0.3991(9) 0.1247(3) 0.6731(3)
O17B O 0.0004(4) 0.40671(16) 0.2828(2)
Zn1B Zn 0.15290(9) 0.38677(3) 0.24673(4)
Zn2B Zn -0.15391(9) 0.38678(3) 0.24680(4)
Zn3B Zn -0.00029(9) 0.46522(3) 0.28979(4)
Zn4B Zn 0.00000(9) 0.37565(4) 0.34636(4)
O3_2 O -0.2606(5) 0.56366(17) 0.7703(2)
O3B_2 O 0.2606(5) 0.43634(17) 0.2297(2)
O4_2 O -0.1559(5) 0.50938(19) 0.7351(2)
O4B_2 O 0.1559(5) 0.49062(19) 0.2649(2)
O6A O 0.0033(8) 0.6873(3) 0.7088(4)
O6C O -0.0033(8) 0.3127(3) 0.2912(4)
O7A O -0.1574(10) 0.6798(4) 0.7678(4)
O7C O 0.1574(10) 0.3202(4) 0.2322(4)
O12_2 O 0.2687(7) 0.6219(3) 0.6909(4)
O12B_2 O -0.2687(7) 0.3781(3) 0.3091(4)
O13_2 O 0.1576(5) 0.6499(2) 0.6280(2)
O13B_2 O -0.1576(5) 0.3501(2) 0.3720(2)
O15A O 0.0996(9) 0.3727(3) 0.1760(3)
O15C O -0.0996(9) 0.6273(3) 0.8240(3)
O16A O -0.1009(9) 0.3753(3) 0.1731(3)
O16C O 0.1009(9) 0.6247(3) 0.8269(3)
Zn1_2 Zn 0.84710(9) 0.61323(3) 0.75327(4)
Zn1A Zn 0.65290(9) 0.11323(3) 0.74673(4)
Zn1B_2 Zn -0.84710(9) 0.38677(3) 0.24673(4)
Zn1C Zn -0.65290(9) 0.88677(3) 0.25327(4)
Zn2_2 Zn -0.84609(9) 0.61322(3) 0.75320(4)
Zn2A Zn 0.34609(9) 0.11322(3) 0.74680(4)
Zn2B_2 Zn 0.84609(9) 0.38678(3) 0.24680(4)
Zn2C Zn -0.34609(9) 0.88678(3) 0.25320(4)
Zn3_2 Zn 1.00029(9) 0.53478(3) 0.71021(4)
Zn3B_2 Zn -1.00029(9) 0.46522(3) 0.28979(4)
Zn4_2 Zn -1.00000(9) 0.62435(4) 0.65364(4)
Zn4A Zn 0.50000(9) 0.12435(4) 0.84636(4)
Zn4B_2 Zn 1.00000(9) 0.37565(4) 0.34636(4)
Zn4C Zn -0.50000(9) 0.87565(4) 0.15364(4)
loop_
_geom_bond_atom_site_label_1
_geom_bond_atom_site_label_2
_geom_bond_site_symmetry_1
_geom_bond_site_symmetry_2
C1 C2 1_555 1_555
C2 C3 1_555 1_555
C3 H1 1_555 1_555
C4 C3 1_555 1_555
C5 C4 1_555 1_555
H2 C5 1_555 1_555
C6 C5 1_555 1_555
C7 C2 1_555 1_555
H3 C7 1_555 1_555
C8 C4 1_555 1_555
C9 C10 1_555 1_555
C10 C11 1_555 1_555
C11 H4 1_555 1_555
C12 C11 1_555 1_555
H5 C12 1_555 1_555
C13 C12 1_555 1_555
C14 C13 1_555 1_555
H6 C14 1_555 1_555
C15 C10 1_555 1_555
H7 C15 1_555 1_555
C16 C13 1_555 1_555
C17 C18 1_555 1_555
C18 C19 1_555 1_555
C19 C37 1_555 1_555
C20 C18 1_555 1_555
C21 C22 1_555 1_555
C22 C23 1_555 1_555
C23 H8 1_555 1_555
C24 C23 1_555 1_555
C25 C24 1_555 1_555
H9 C25 1_555 1_555
C26 C25 1_555 1_555
C27 C22 1_555 1_555
H10 C27 1_555 1_555
C28 C24 1_555 1_555
C29 C30 1_555 1_555
C30 C31 1_555 1_555
C31 H11 1_555 1_555
C32 C31 1_555 1_555
H12 C32 1_555 1_555
C33 C32 1_555 1_555
C34 C33 1_555 1_555
H13 C34 1_555 1_555
C35 C30 1_555 1_555
H14 C35 1_555 1_555
C36 C33 1_555 1_555
C37 H15 1_555 1_555
C38 C37 1_555 1_555
H16 C38 1_555 1_555
C39 C20 1_555 1_555
H17 C39 1_555 1_555
C40 C39 1_555 1_555
H18 C40 1_555 1_555
N1 C6 1_555 1_555
H19 N1 1_555 1_555
N2 C26 1_555 1_555
H20 N2 1_555 1_555
O1 C1 1_555 1_555
O2 C1 1_555 1_555
O3 C8 1_555 1_555
O4 C8 1_555 1_555
O5 C9 1_555 1_555
O6 C16 1_555 1_555
O7 C16 1_555 1_555
O8 C17 1_555 1_555
O9 C17 1_555 1_555
O10 C21 1_555 1_555
O11 C21 1_555 1_555
O12 C28 1_555 1_555
O13 C28 1_555 1_555
O14 C29 1_555 1_555
O15 C36 1_555 1_555
O16 C36 1_555 1_555
O17 Zn1 1_555 1_555
Zn1 O11 1_555 1_555
Zn2 O2 1_555 1_555
Zn3 O1 1_555 1_555
Zn4 O9 1_555 1_555
C41 H21 1_555 1_555
H22 C41 1_555 1_555
H23 C41 1_555 1_555
C42 H24 1_555 1_555
H25 C42 1_555 1_555
H26 C42 1_555 1_555
N3 C41 1_555 1_555
H27 N3 1_555 1_555
H28 N3 1_555 1_555
C17B C18B 1_555 1_555
C18B C19B 1_555 1_555
C19B C20 1_555 1_555
C20B C19 1_555 1_555
C37B C19B 1_555 1_555
H15B C37B 1_555 1_555
C38B C40 1_555 1_555
H16B C38B 1_555 1_555
C39B C20B 1_555 1_555
H17B C39B 1_555 1_555
C40B C38 1_555 1_555
H18B C40B 1_555 1_555
O8B C17B 1_555 1_555
O9B C17B 1_555 1_555
C1B C2B 1_555 1_555
C2B C3B 1_555 1_555
C3B H1B 1_555 1_555
C4B C3B 1_555 1_555
C5B C4B 1_555 1_555
H2B C5B 1_555 1_555
C6B C5B 1_555 1_555
C7B C2B 1_555 1_555
H3B C7B 1_555 1_555
C8B C4B 1_555 1_555
C9B C10B 1_555 1_555
C10B C11B 1_555 1_555
C11B H4B 1_555 1_555
C12B C11B 1_555 1_555
H5B C12B 1_555 1_555
C13B C12B 1_555 1_555
C14B C13B 1_555 1_555
H6B C14B 1_555 1_555
C15B C10B 1_555 1_555
H7B C15B 1_555 1_555
C16B C13B 1_555 1_555
C21B C22B 1_555 1_555
C22B C23B 1_555 1_555
C23B H8B 1_555 1_555
C24B C23B 1_555 1_555
C25B C24B 1_555 1_555
H9B C25B 1_555 1_555
C26B C25B 1_555 1_555
C27B C22B 1_555 1_555
H10B C27B 1_555 1_555
C28B C24B 1_555 1_555
C29B C30B 1_555 1_555
C30B C31B 1_555 1_555
C31B H11B 1_555 1_555
C32B C31B 1_555 1_555
H12B C32B 1_555 1_555
C33B C32B 1_555 1_555
C34B C33B 1_555 1_555
H13B C34B 1_555 1_555
C35B C30B 1_555 1_555
H14B C35B 1_555 1_555
C36B C33B 1_555 1_555
N1B C6B 1_555 1_555
H19B N1B 1_555 1_555
N2B C26B 1_555 1_555
H20B N2B 1_555 1_555
O1B C1B 1_555 1_555
O2B C1B 1_555 1_555
O3B C8B 1_555 1_555
O4B C8B 1_555 1_555
O5B C9B 1_555 1_555
O6B C16B 1_555 1_555
O7B C16B 1_555 1_555
O10B C21B 1_555 1_555
O11B C21B 1_555 1_555
O12B C28B 1_555 1_555
O13B C28B 1_555 1_555
O14B C29B 1_555 1_555
O15B C36B 1_555 1_555
O16B C36B 1_555 1_555
O17B Zn1B 1_555 1_555
Zn1B O11B 1_555 1_555
Zn2B O2B 1_555 1_555
Zn3B O8B 1_555 1_555
Zn4B O9B 1_555 1_555
O3_2 Zn1 1_555 1_555
O3B_2 Zn1B 1_555 1_555
O4_2 Zn3 1_555 1_555
O4B_2 Zn3B 1_555 1_555
O6A Zn4 1_555 1_555
O6C Zn4B 1_555 1_555
O7A Zn1 1_555 1_555
O7C Zn1B 1_555 1_555
O12_2 Zn2 1_555 1_555
O12B_2 Zn2B 1_555 1_555
O13_2 Zn4 1_555 1_555
O13B_2 Zn4B 1_555 1_555
O15A Zn1B 1_555 1_555
O15C Zn1 1_555 1_555
O16A Zn2B 1_555 1_555
O16C Zn2 1_555 1_555
Zn1_2 O3 1_555 1_555
Zn1A O7 1_555 1_555
Zn1B_2 O3B 1_555 1_555
Zn1C O15 1_555 1_555
Zn2_2 O12 1_555 1_555
Zn2A O16B 1_555 1_555
Zn2B_2 O12B 1_555 1_555
Zn2C O16 1_555 1_555
Zn3_2 O4 1_555 1_555
Zn3B_2 O4B 1_555 1_555
Zn4_2 O13 1_555 1_555
Zn4A O6 1_555 1_555
Zn4B_2 O13B 1_555 1_555
Zn4C O6B 1_555 1_555
C6 C7 1_555 1_555
C9 N1 1_555 1_555
C14 C15 1_555 1_555
C26 C27 1_555 1_555
C29 N2 1_555 1_555
C34 C35 1_555 1_555
O8 Zn3 1_555 1_555
O10 Zn4 1_555 1_555
O17 Zn2 1_555 1_555
O17 Zn3 1_555 1_555
O17 Zn4 1_555 1_555
C42 N3 1_555 1_555
C18B C20B 1_555 1_555
C37B C38B 1_555 1_555
C39B C40B 1_555 1_555
C6B C7B 1_555 1_555
C9B N1B 1_555 1_555
C14B C15B 1_555 1_555
C26B C27B 1_555 1_555
C29B N2B 1_555 1_555
C34B C35B 1_555 1_555
O1B Zn3B 1_555 1_555
O7B Zn1C 1_555 1_555
O10B Zn4B 1_555 1_555
O15B Zn1A 1_555 1_555
O17B Zn2B 1_555 1_555
O17B Zn3B 1_555 1_555
O17B Zn4B 1_555 1_555

#END
