
#######################################################################
#
#                 Cambridge Crystallographic Data Centre
#                                CCDC 
#
#######################################################################
#
# If this CIF has been generated from an entry in the Cambridge 
# Structural Database, then it will include bibliographic, chemical, 
# crystal, experimental, refinement or atomic coordinate data resulting 
# from the CCDC's data processing and validation procedures.
#
#######################################################################

data_PUFRIT
_symmetry_cell_setting           monoclinic
_symmetry_space_group_name_H-M   'P 21/n'
_symmetry_Int_Tables_number      14
_space_group_name_Hall           '-P 2yn'
loop_
_symmetry_equiv_pos_site_id
_symmetry_equiv_pos_as_xyz
1 x,y,z
2 1/2-x,1/2+y,1/2-z
3 -x,-y,-z
4 1/2+x,1/2-y,1/2+z
_cell_length_a                   10.3371(8)
_cell_length_b                   31.988(2)
_cell_length_c                   31.939(2)
_cell_angle_alpha                90
_cell_angle_beta                 91.9370(10)
_cell_angle_gamma                90
_cell_volume                     10555
loop_
_atom_site_label
_atom_site_type_symbol
_atom_site_fract_x
_atom_site_fract_y
_atom_site_fract_z
C1 C 0.4707(2) 0.88992(7) 0.11218(7)
C2 C 0.4794(2) 0.92328(7) 0.07864(7)
C3 C 0.4736(2) 0.91138(8) 0.03656(7)
H1 H 0.4634 0.8834 0.0291
C4 C 0.4829(2) 0.94085(8) 0.00726(8)
H2 H 0.4809 0.9328 -0.0207
C5 C 0.4956(2) 0.98368(7) 0.01701(7)
C6 C 0.5015(2) 0.99356(8) 0.06066(7)
H3 H 0.5124 1.0213 0.0687
C7 C 0.4921(2) 0.96479(7) 0.08988(7)
H4 H 0.4939 0.9724 0.1180
C8 C 0.7255(2) 0.77312(7) 0.13040(7)
C9 C 0.8479(2) 0.76411(7) 0.10869(6)
C10 C 0.96702(19) 0.76652(6) 0.13137(6)
H5 H 0.9698 0.7703 0.1603
C11 C 1.08069(19) 0.76313(6) 0.10928(6)
C12 C 1.0772(2) 0.75568(7) 0.06657(7)
H6 H 1.1542 0.7527 0.0526
C13 C 0.9616(2) 0.75267(7) 0.04464(7)
C14 C 0.8444(2) 0.75723(7) 0.06555(7)
H7 H 0.7656 0.7557 0.0507
C15 C 1.2052(2) 0.76762(7) 0.13321(7)
C16 C 0.8661(2) 0.74069(8) -0.02569(7)
C17 C 0.8947(2) 0.73836(8) -0.07130(7)
C18 C 1.0156(2) 0.72526(9) -0.08548(7)
H8 H 1.0848 0.7210 -0.0666
C19 C 1.0301(2) 0.71875(8) -0.12833(7)
H9 H 1.1091 0.7097 -0.1381
C20 C 0.9273(2) 0.72574(7) -0.15621(7)
C21 C 0.8073(2) 0.73819(8) -0.14187(8)
H10 H 0.7370 0.7417 -0.1605
C22 C 0.7942(2) 0.74544(8) -0.09835(8)
H11 H 0.7161 0.7551 -0.0885
C23 C 0.9341(2) 0.71878(7) -0.20278(7)
C24 C 0.2803(2) 0.37278(7) 0.26946(7)
C25 C 0.4032(2) 0.39568(6) 0.26196(6)
C26 C 0.40647(19) 0.43936(7) 0.25531(7)
H12 H 0.3296 0.4545 0.2534
C27 C 0.5234(2) 0.45961(7) 0.25159(7)
C28 C 0.63757(18) 0.43751(6) 0.25293(7)
H13 H 0.7154 0.4514 0.2493
C29 C 0.6376(2) 0.39459(7) 0.25970(7)
C30 C 0.5199(2) 0.37354(6) 0.26323(7)
H14 H 0.5193 0.3446 0.2664
C31 C 0.75942(19) 0.37024(6) 0.26403(6)
C32 C 0.6139(2) 0.52996(7) 0.24092(7)
C33 C 0.5822(2) 0.57538(7) 0.23706(7)
C34 C 0.4603(2) 0.59068(7) 0.22617(7)
H15 H 0.3907 0.5725 0.2224
C35 C 0.4428(2) 0.63328(7) 0.22092(7)
H16 H 0.3608 0.6436 0.2139
C36 C 0.5450(2) 0.66066(7) 0.22596(7)
C37 C 0.6690(2) 0.64545(7) 0.23716(7)
H17 H 0.7380 0.6639 0.2411
C38 C 0.6880(2) 0.60269(7) 0.24234(8)
H18 H 0.7699 0.5923 0.2492
C39 C 0.5269(2) 0.70710(6) 0.22146(7)
N1 N 0.95938(17) 0.74623(6) 0.00084(5)
H19 H 1.0346 0.7460 -0.0098
N2 N 0.51850(18) 0.50302(5) 0.24555(6)
H20 H 0.4421 0.5137 0.2447
O1 O 0.47494(13) 0.81261(4) 0.19148(4)
O2 O 0.47520(14) 0.90205(4) 0.14917(5)
O3 O 0.46758(14) 0.85279(4) 0.10045(4)
O4 O 0.62224(14) 0.77282(4) 0.11025(4)
O5 O 0.73824(14) 0.77874(5) 0.16929(5)
O6 O 1.20150(13) 0.76566(4) 0.17225(4)
O7 O 1.30707(14) 0.77423(5) 0.11270(5)
O8 O 0.74740(15) 0.74083(5) -0.01517(5)
O9 O 0.83636(14) 0.72955(5) -0.22343(5)
O10 O 1.03773(15) 0.70575(5) -0.21640(5)
O11 O 0.17893(13) 0.39461(4) 0.27134(4)
O12 O 0.28756(14) 0.33475(4) 0.27309(5)
O13 O 0.75130(13) 0.33134(4) 0.26126(4)
O14 O 0.86158(13) 0.39043(4) 0.27063(4)
O15 O 0.72532(15) 0.51681(5) 0.23489(5)
O16 O 0.42386(14) 0.72051(4) 0.20850(5)
O17 O 0.62393(14) 0.72787(4) 0.23212(4)
Zn1 Zn 0.62304(2) 0.787939(7) 0.221637(8)
Zn2 Zn 0.47424(2) 0.871327(7) 0.202720(8)
Zn3 Zn 0.46984(2) 0.800104(7) 0.132487(7)
Zn4 Zn 0.33195(2) 0.782246(8) 0.216387(8)
C1B C 0.5293(2) 1.11008(7) -0.11218(7)
C2B C 0.5206(2) 1.07672(7) -0.07864(7)
C3B C 0.5264(2) 1.08862(8) -0.03656(7)
H1B H 0.5366 1.1166 -0.0291
C4B C 0.5171(2) 1.05915(8) -0.00726(8)
H2B H 0.5191 1.0672 0.0207
C5B C 0.5044(2) 1.01632(7) -0.01701(7)
C6B C 0.4985(2) 1.00644(8) -0.06066(7)
H3B H 0.4876 0.9787 -0.0687
C7B C 0.5079(2) 1.03521(7) -0.08988(7)
H4B H 0.5061 1.0276 -0.1180
O2B O 0.52480(14) 1.09795(4) -0.14917(5)
O3B O 0.53242(14) 1.14721(4) -0.10045(4)
C8B C 0.2745(2) 1.22688(7) -0.13040(7)
C9B C 0.1521(2) 1.23589(7) -0.10869(6)
C10B C 0.03298(19) 1.23348(6) -0.13137(6)
H5B H 0.0302 1.2297 -0.1603
C11B C -0.08069(19) 1.23687(6) -0.10928(6)
C12B C -0.0772(2) 1.24432(7) -0.06657(7)
H6B H -0.1542 1.2473 -0.0526
C13B C 0.0384(2) 1.24733(7) -0.04464(7)
C14B C 0.1556(2) 1.24277(7) -0.06555(7)
H7B H 0.2344 1.2443 -0.0507
C15B C -0.2052(2) 1.23238(7) -0.13321(7)
C16B C 0.1339(2) 1.25931(8) 0.02569(7)
C17B C 0.1053(2) 1.26164(8) 0.07130(7)
C18B C -0.0156(2) 1.27474(9) 0.08548(7)
H8B H -0.0848 1.2790 0.0666
C19B C -0.0301(2) 1.28125(8) 0.12833(7)
H9B H -0.1091 1.2903 0.1381
C20B C 0.0727(2) 1.27426(7) 0.15621(7)
C21B C 0.1927(2) 1.26181(8) 0.14187(8)
H10B H 0.2630 1.2583 0.1605
C22B C 0.2058(2) 1.25456(8) 0.09835(8)
H11B H 0.2839 1.2449 0.0885
C23B C 0.0659(2) 1.28122(7) 0.20278(7)
C24B C 0.7197(2) 1.62722(7) -0.26946(7)
C25B C 0.5968(2) 1.60432(6) -0.26196(6)
C26B C 0.59353(19) 1.56064(7) -0.25531(7)
H12B H 0.6704 1.5455 -0.2534
C27B C 0.4766(2) 1.54039(7) -0.25159(7)
C28B C 0.36243(18) 1.56249(6) -0.25293(7)
H13B H 0.2846 1.5486 -0.2493
C29B C 0.3624(2) 1.60541(7) -0.25970(7)
C30B C 0.4801(2) 1.62646(6) -0.26323(7)
H14B H 0.4807 1.6554 -0.2664
C31B C 0.24058(19) 1.62976(6) -0.26403(6)
C32B C 0.3861(2) 1.47004(7) -0.24092(7)
C33B C 0.4178(2) 1.42462(7) -0.23706(7)
C34B C 0.5397(2) 1.40932(7) -0.22617(7)
H15B H 0.6093 1.4275 -0.2224
C35B C 0.5572(2) 1.36672(7) -0.22092(7)
H16B H 0.6392 1.3564 -0.2139
C36B C 0.4550(2) 1.33934(7) -0.22596(7)
C37B C 0.3310(2) 1.35455(7) -0.23716(7)
H17B H 0.2620 1.3361 -0.2411
C38B C 0.3120(2) 1.39731(7) -0.24234(8)
H18B H 0.2301 1.4077 -0.2492
C39B C 0.4731(2) 1.29290(6) -0.22146(7)
N1B N 0.04062(17) 1.25377(6) -0.00084(5)
H19B H -0.0346 1.2540 0.0098
N2B N 0.48150(18) 1.49698(5) -0.24555(6)
H20B H 0.5579 1.4863 -0.2447
O1B O 0.52506(13) 1.18739(4) -0.19148(4)
O4B O 0.37776(14) 1.22718(4) -0.11025(4)
O5B O 0.26176(14) 1.22126(5) -0.16929(5)
O6B O -0.20150(13) 1.23434(4) -0.17225(4)
O7B O -0.30707(14) 1.22577(5) -0.11270(5)
O8B O 0.25260(15) 1.25917(5) 0.01517(5)
O9B O 0.16364(14) 1.27045(5) 0.22343(5)
O10B O -0.03773(15) 1.29425(5) 0.21640(5)
O11B O 0.82107(13) 1.60539(4) -0.27134(4)
O12B O 0.71244(14) 1.66525(4) -0.27309(5)
O13B O 0.24870(13) 1.66866(4) -0.26126(4)
O14B O 0.13842(13) 1.60957(4) -0.27063(4)
O15B O 0.27468(15) 1.48319(5) -0.23489(5)
O16B O 0.57614(14) 1.27949(4) -0.20850(5)
O17B O 0.37607(14) 1.27213(4) -0.23212(4)
Zn1B Zn 0.37696(2) 1.212061(7) -0.221637(8)
Zn2B Zn 0.52576(2) 1.128673(7) -0.202720(8)
Zn3B Zn 0.53016(2) 1.199896(7) -0.132487(7)
Zn4B Zn 0.66805(2) 1.217754(8) -0.216387(8)
O6_2 O 0.20150(13) 0.76566(4) 0.17225(4)
O6B_2 O 0.79850(13) 1.23434(4) -0.17225(4)
O7_2 O 0.30707(14) 0.77423(5) 0.11270(5)
O7B_2 O 0.69293(14) 1.22577(5) -0.11270(5)
O9A O 0.66364(14) 1.22955(5) -0.27657(5)
O9C O 0.33636(14) 0.77045(5) 0.27657(5)
O10A O 0.46227(15) 1.20575(5) -0.28360(5)
O10C O 0.53773(15) 0.79425(5) 0.28360(5)
O11A O 0.32107(13) 0.89461(4) 0.22866(4)
O11C O 0.67893(13) 1.10539(4) -0.22866(4)
O12A O 0.21244(14) 0.83475(4) 0.22691(5)
O12C O 0.78756(14) 1.16525(4) -0.22691(5)
O13A O 0.74870(13) 0.83134(4) 0.23874(4)
O13C O 0.25130(13) 1.16866(4) -0.23874(4)
O14A O 0.63842(13) 0.89043(4) 0.22937(4)
O14C O 0.36158(13) 1.10957(4) -0.22937(4)
Zn1A Zn -0.12304(2) 1.287939(7) 0.278363(8)
Zn1A_2 Zn 0.87696(2) 0.287939(7) 0.278363(8)
Zn1C Zn 0.12304(2) 1.712061(7) -0.278363(8)
Zn1C_2 Zn 1.12304(2) 0.712061(7) -0.278363(8)
Zn2A Zn 0.02576(2) 0.371327(7) 0.297280(8)
Zn2A_2 Zn 1.02576(2) 0.371327(7) 0.297280(8)
Zn2C Zn -0.02576(2) 1.628673(7) -0.297280(8)
Zn2C_2 Zn 0.97424(2) 1.628673(7) -0.297280(8)
Zn3_2 Zn 1.46984(2) 0.800104(7) 0.132487(7)
Zn3B_2 Zn -0.46984(2) 1.199896(7) -0.132487(7)
Zn4_2 Zn 1.33195(2) 0.782246(8) 0.216387(8)
Zn4A Zn 0.16805(2) 0.282246(8) 0.283613(8)
Zn4A_2 Zn 0.16805(2) 1.282246(8) 0.283613(8)
Zn4B_2 Zn -0.33195(2) 1.217754(8) -0.216387(8)
Zn4C Zn 0.83195(2) 0.717754(8) -0.283613(8)
Zn4C_2 Zn 0.83195(2) 1.717754(8) -0.283613(8)
C40 C 0.5873(2) 0.23984(7) 0.17241(7)
H21 H 0.6258 0.2206 0.1534
H22 H 0.6538 0.2566 0.1857
H23 H 0.5274 0.2576 0.1572
C41 C 0.4639(2) 0.17667(7) 0.18730(8)
H24 H 0.4408 0.1804 0.1582
H25 H 0.3883 0.1691 0.2022
H26 H 0.5275 0.1549 0.1903
N3 N 0.5180(2) 0.21620(6) 0.20460(7)
H27 H 0.4534 0.2320 0.2142
H28 H 0.5729 0.2104 0.2263
loop_
_geom_bond_atom_site_label_1
_geom_bond_atom_site_label_2
_geom_bond_site_symmetry_1
_geom_bond_site_symmetry_2
C1 C2 1_555 1_555
C2 C3 1_555 1_555
C3 H1 1_555 1_555
C4 C3 1_555 1_555
H2 C4 1_555 1_555
C5 C4 1_555 1_555
C6 C5 1_555 1_555
H3 C6 1_555 1_555
C7 C2 1_555 1_555
H4 C7 1_555 1_555
C8 C9 1_555 1_555
C9 C10 1_555 1_555
C10 H5 1_555 1_555
C11 C10 1_555 1_555
C12 C11 1_555 1_555
H6 C12 1_555 1_555
C13 C12 1_555 1_555
C14 C9 1_555 1_555
H7 C14 1_555 1_555
C15 C11 1_555 1_555
C16 C17 1_555 1_555
C17 C18 1_555 1_555
C18 H8 1_555 1_555
C19 C18 1_555 1_555
H9 C19 1_555 1_555
C20 C19 1_555 1_555
C21 C20 1_555 1_555
H10 C21 1_555 1_555
C22 C17 1_555 1_555
H11 C22 1_555 1_555
C23 C20 1_555 1_555
C24 C25 1_555 1_555
C25 C26 1_555 1_555
C26 H12 1_555 1_555
C27 C26 1_555 1_555
C28 C27 1_555 1_555
H13 C28 1_555 1_555
C29 C28 1_555 1_555
C30 C25 1_555 1_555
H14 C30 1_555 1_555
C31 C29 1_555 1_555
C32 C33 1_555 1_555
C33 C34 1_555 1_555
C34 H15 1_555 1_555
C35 C34 1_555 1_555
H16 C35 1_555 1_555
C36 C35 1_555 1_555
C37 C36 1_555 1_555
H17 C37 1_555 1_555
C38 C33 1_555 1_555
H18 C38 1_555 1_555
C39 C36 1_555 1_555
N1 C13 1_555 1_555
H19 N1 1_555 1_555
N2 C27 1_555 1_555
H20 N2 1_555 1_555
O1 Zn1 1_555 1_555
O2 C1 1_555 1_555
O3 C1 1_555 1_555
O4 C8 1_555 1_555
O5 C8 1_555 1_555
O6 C15 1_555 1_555
O7 C15 1_555 1_555
O8 C16 1_555 1_555
O9 C23 1_555 1_555
O10 C23 1_555 1_555
O11 C24 1_555 1_555
O12 C24 1_555 1_555
O13 C31 1_555 1_555
O14 C31 1_555 1_555
O15 C32 1_555 1_555
O16 C39 1_555 1_555
O17 C39 1_555 1_555
Zn1 O5 1_555 1_555
Zn2 O1 1_555 1_555
Zn3 O1 1_555 1_555
Zn4 O1 1_555 1_555
C40 H21 1_555 1_555
H22 C40 1_555 1_555
H23 C40 1_555 1_555
C41 H24 1_555 1_555
H25 C41 1_555 1_555
H26 C41 1_555 1_555
N3 C40 1_555 1_555
H27 N3 1_555 1_555
H28 N3 1_555 1_555
C1B C2B 1_555 1_555
C2B C3B 1_555 1_555
C3B H1B 1_555 1_555
C4B C3B 1_555 1_555
H2B C4B 1_555 1_555
C5B C5 1_555 1_555
C6B C5B 1_555 1_555
H3B C6B 1_555 1_555
C7B C2B 1_555 1_555
H4B C7B 1_555 1_555
O2B C1B 1_555 1_555
O3B C1B 1_555 1_555
C8B C9B 1_555 1_555
C9B C10B 1_555 1_555
C10B H5B 1_555 1_555
C11B C10B 1_555 1_555
C12B C11B 1_555 1_555
H6B C12B 1_555 1_555
C13B C12B 1_555 1_555
C14B C9B 1_555 1_555
H7B C14B 1_555 1_555
C15B C11B 1_555 1_555
C16B C17B 1_555 1_555
C17B C18B 1_555 1_555
C18B H8B 1_555 1_555
C19B C18B 1_555 1_555
H9B C19B 1_555 1_555
C20B C19B 1_555 1_555
C21B C20B 1_555 1_555
H10B C21B 1_555 1_555
C22B C17B 1_555 1_555
H11B C22B 1_555 1_555
C23B C20B 1_555 1_555
C24B C25B 1_555 1_555
C25B C26B 1_555 1_555
C26B H12B 1_555 1_555
C27B C26B 1_555 1_555
C28B C27B 1_555 1_555
H13B C28B 1_555 1_555
C29B C28B 1_555 1_555
C30B C25B 1_555 1_555
H14B C30B 1_555 1_555
C31B C29B 1_555 1_555
C32B C33B 1_555 1_555
C33B C34B 1_555 1_555
C34B H15B 1_555 1_555
C35B C34B 1_555 1_555
H16B C35B 1_555 1_555
C36B C35B 1_555 1_555
C37B C36B 1_555 1_555
H17B C37B 1_555 1_555
C38B C33B 1_555 1_555
H18B C38B 1_555 1_555
C39B C36B 1_555 1_555
N1B C13B 1_555 1_555
H19B N1B 1_555 1_555
N2B C27B 1_555 1_555
H20B N2B 1_555 1_555
O1B Zn1B 1_555 1_555
O4B C8B 1_555 1_555
O5B C8B 1_555 1_555
O6B C15B 1_555 1_555
O7B C15B 1_555 1_555
O8B C16B 1_555 1_555
O9B C23B 1_555 1_555
O10B C23B 1_555 1_555
O11B C24B 1_555 1_555
O12B C24B 1_555 1_555
O13B C31B 1_555 1_555
O14B C31B 1_555 1_555
O15B C32B 1_555 1_555
O16B C39B 1_555 1_555
O17B C39B 1_555 1_555
Zn1B O5B 1_555 1_555
Zn2B O2B 1_555 1_555
Zn3B O3B 1_555 1_555
Zn4B O1B 1_555 1_555
O6_2 Zn4 1_555 1_555
O6B_2 Zn4B 1_555 1_555
O7_2 Zn3 1_555 1_555
O7B_2 Zn3B 1_555 1_555
O9A Zn4B 1_555 1_555
O9C Zn4 1_555 1_555
O10A Zn1B 1_555 1_555
O10C Zn1 1_555 1_555
O11A Zn2 1_555 1_555
O11C Zn2B 1_555 1_555
O12A Zn4 1_555 1_555
O12C Zn4B 1_555 1_555
O13A Zn1 1_555 1_555
O13C Zn1B 1_555 1_555
O14A Zn2 1_555 1_555
O14C Zn2B 1_555 1_555
Zn1A O10B 1_555 1_555
Zn1A_2 O13 1_555 1_555
Zn1C O13B 1_555 1_555
Zn1C_2 O10 1_555 1_555
Zn2A O11 1_555 1_555
Zn2A_2 O14 1_555 1_555
Zn2C O14B 1_555 1_555
Zn2C_2 O11B 1_555 1_555
Zn3_2 O7 1_555 1_555
Zn3B_2 O7B 1_555 1_555
Zn4_2 O6 1_555 1_555
Zn4A O12 1_555 1_555
Zn4A_2 O9B 1_555 1_555
Zn4B_2 O6B 1_555 1_555
Zn4C O9 1_555 1_555
Zn4C_2 O12B 1_555 1_555
C6 C7 1_555 1_555
C13 C14 1_555 1_555
C16 N1 1_555 1_555
C21 C22 1_555 1_555
C29 C30 1_555 1_555
C32 N2 1_555 1_555
C37 C38 1_555 1_555
O2 Zn2 1_555 1_555
O3 Zn3 1_555 1_555
O4 Zn3 1_555 1_555
O16 Zn4 1_555 1_555
O17 Zn1 1_555 1_555
C41 N3 1_555 1_555
C4B C5B 1_555 1_555
C6B C7B 1_555 1_555
C13B C14B 1_555 1_555
C16B N1B 1_555 1_555
C21B C22B 1_555 1_555
C29B C30B 1_555 1_555
C32B N2B 1_555 1_555
C37B C38B 1_555 1_555
O1B Zn2B 1_555 1_555
O1B Zn3B 1_555 1_555
O4B Zn3B 1_555 1_555
O16B Zn4B 1_555 1_555
O17B Zn1B 1_555 1_555

#END
