
#######################################################################
#
#                 Cambridge Crystallographic Data Centre
#                                CCDC 
#
#######################################################################
#
# If this CIF has been generated from an entry in the Cambridge 
# Structural Database, then it will include bibliographic, chemical, 
# crystal, experimental, refinement or atomic coordinate data resulting 
# from the CCDC's data processing and validation procedures.
#
#######################################################################

data_PUFXIZ
_symmetry_cell_setting           monoclinic
_symmetry_space_group_name_H-M   'P 21/n'
_symmetry_Int_Tables_number      14
_space_group_name_Hall           '-P 2yn'
loop_
_symmetry_equiv_pos_site_id
_symmetry_equiv_pos_as_xyz
1 x,y,z
2 1/2-x,1/2+y,1/2-z
3 -x,-y,-z
4 1/2+x,1/2-y,1/2+z
_cell_length_a                   10.2515(10)
_cell_length_b                   12.3845(9)
_cell_length_c                   16.6038(18)
_cell_angle_alpha                90
_cell_angle_beta                 94.922(8)
_cell_angle_gamma                90
_cell_volume                     2100.24
loop_
_atom_site_label
_atom_site_type_symbol
_atom_site_fract_x
_atom_site_fract_y
_atom_site_fract_z
C1 C 0.2334(4) 0.6345(4) 0.0605(3)
C2 C 0.1105(4) 0.5847(4) 0.0892(2)
C3 C 0.1198(4) 0.4948(4) 0.1395(2)
H1 H 0.2013 0.4624 0.1540
C4 C 0.0072(4) 0.4542(4) 0.1675(2)
C5 C -0.1151(4) 0.4970(4) 0.1446(2)
H2 H -0.1909 0.4663 0.1630
C6 C -0.1233(4) 0.5863(4) 0.0937(2)
C7 C -0.0105(4) 0.6313(4) 0.0674(3)
H3 H -0.0161 0.6934 0.0347
C8 C -0.2554(4) 0.6355(4) 0.0685(3)
C9 C 0.0378(7) 0.2135(5) 0.1251(3)
H4 H 0.0553 0.1366 0.1284
H5 H 0.1079 0.2493 0.0998
H6 H -0.0446 0.2258 0.0931
C10 C 0.0297(5) 0.2577(4) 0.2076(3)
C11 C 0.0068(4) 0.3706(4) 0.3055(3)
C12 C -0.0060(4) 0.4715(4) 0.3511(2)
C13 C -0.1113(4) 0.4865(4) 0.3971(3)
H7 H -0.1787 0.4349 0.3964
C14 C -0.1156(4) 0.5784(4) 0.4441(3)
H8 H -0.1880 0.5886 0.4744
C15 C 0.0777(4) 0.6399(4) 0.4022(3)
H9 H 0.1430 0.6933 0.4034
C16 C 0.0893(5) 0.5516(4) 0.3527(3)
H10 H 0.1602 0.5456 0.3207
Cd1 Cd 0.48499(3) 0.70055(2) 0.033946(17)
N1 N 0.0163(3) 0.3654(3) 0.2243(2)
N2 N 0.0280(4) 0.2011(3) 0.2740(2)
N3 N 0.0133(4) 0.2740(3) 0.3364(2)
N4 N -0.0212(4) 0.6537(3) 0.4484(2)
O1 O 0.3343(3) 0.5764(3) 0.0668(2)
O2 O 0.2316(3) 0.7267(3) 0.0341(2)
O3 O -0.2625(3) 0.7197(3) 0.0288(2)
O4 O -0.3543(3) 0.5874(3) 0.0903(2)
O5 O 0.4921(4) 0.6025(3) -0.0855(2)
Cd1_2 Cd -0.51501(3) 0.70055(2) 0.033946(17)
Cd1A Cd 0.01501(3) 0.20055(2) 0.466054(17)
Cd1C Cd -0.01501(3) 0.79945(2) 0.533946(17)
N3A N 0.4867(4) 0.7740(3) 0.1636(2)
N4C N 0.4788(4) 0.8463(3) -0.0516(2)
O3_2 O 0.7375(3) 0.7197(3) 0.0288(2)
O4_2 O 0.6457(3) 0.5874(3) 0.0903(2)
O6 O 0.1283(7) 0.9200(6) 0.0954(5)
H11 H 0.131(7) 0.899(8) 0.144(2)
H12 H 0.048(3) 0.912(8) 0.079(4)
O7 O 0.8750(8) 0.9220(6) 0.0289(6)
O8 O 0.0719(9) 0.9636(6) 0.2552(5)
H13 H 0.103(13) 1.024(5) 0.256(10)
H14 H -0.005(6) 0.969(12) 0.235(10)
O9 O 0.6825(13) 0.2559(12) 0.2367(9)
O10 O 0.6887(12) 0.3565(13) 0.2628(8)
loop_
_geom_bond_atom_site_label_1
_geom_bond_atom_site_label_2
_geom_bond_site_symmetry_1
_geom_bond_site_symmetry_2
C1 C2 1_555 1_555
C2 C3 1_555 1_555
C3 H1 1_555 1_555
C4 C3 1_555 1_555
C5 C4 1_555 1_555
H2 C5 1_555 1_555
C6 C5 1_555 1_555
C7 C2 1_555 1_555
H3 C7 1_555 1_555
C8 C6 1_555 1_555
C9 H4 1_555 1_555
H5 C9 1_555 1_555
H6 C9 1_555 1_555
C10 C9 1_555 1_555
C11 C12 1_555 1_555
C12 C13 1_555 1_555
C13 H7 1_555 1_555
C14 C13 1_555 1_555
H8 C14 1_555 1_555
C15 H9 1_555 1_555
C16 C12 1_555 1_555
H10 C16 1_555 1_555
Cd1 O1 1_555 1_555
N1 C4 1_555 1_555
N2 C10 1_555 1_555
N3 C11 1_555 1_555
N4 C14 1_555 1_555
O1 C1 1_555 1_555
O2 C1 1_555 1_555
O3 C8 1_555 1_555
O4 C8 1_555 1_555
O5 Cd1 1_555 1_555
O6 H11 1_555 1_555
H12 O6 1_555 1_555
O8 H13 1_555 1_555
H14 O8 1_555 1_555
Cd1_2 O3 1_555 1_555
Cd1A N3 1_555 1_555
Cd1C N4 1_555 1_555
N3A Cd1 1_555 1_555
N4C Cd1 1_555 1_555
O3_2 Cd1 1_555 1_555
O4_2 Cd1 1_555 1_555
C6 C7 1_555 1_555
C10 N1 1_555 1_555
C11 N1 1_555 1_555
C15 C16 1_555 1_555
C15 N4 1_555 1_555
Cd1 O2 1_555 1_555
N2 N3 1_555 1_555
O4 Cd1_2 1_555 1_555

#END
