
#######################################################################
#
#                 Cambridge Crystallographic Data Centre
#                                CCDC 
#
#######################################################################
#
# If this CIF has been generated from an entry in the Cambridge 
# Structural Database, then it will include bibliographic, chemical, 
# crystal, experimental, refinement or atomic coordinate data resulting 
# from the CCDC's data processing and validation procedures.
#
#######################################################################

data_PUGYIB
_symmetry_cell_setting           monoclinic
_symmetry_space_group_name_H-M   'P 21/c'
_symmetry_Int_Tables_number      14
_space_group_name_Hall           '-P 2ybc'
loop_
_symmetry_equiv_pos_site_id
_symmetry_equiv_pos_as_xyz
1 x,y,z
2 -x,1/2+y,1/2-z
3 -x,-y,-z
4 x,1/2-y,1/2+z
_cell_length_a                   13.087(2)
_cell_length_b                   14.050(2)
_cell_length_c                   14.029(2)
_cell_angle_alpha                90
_cell_angle_beta                 114.782(4)
_cell_angle_gamma                90
_cell_volume                     2341.99
loop_
_atom_site_label
_atom_site_type_symbol
_atom_site_fract_x
_atom_site_fract_y
_atom_site_fract_z
Co1 Co 0.0000 0.0000 0.0000
C1 C 0.2362(3) 0.0078(3) 0.1763(3)
N1 N -0.1027(3) 0.0874(2) 0.0273(3)
N2 N 0.1262(3) 0.0416(2) 0.1332(3)
C2 C 0.1234(3) 0.1094(3) 0.2019(3)
N3 N 0.0411(3) 0.3803(3) 0.4101(3)
C3 C -0.1760(4) 0.2041(3) 0.0984(4)
H1 H -0.1800 0.2497 0.1448
C4 C 0.4024(4) -0.0846(3) 0.1818(4)
C5 C -0.2602(4) 0.1760(3) 0.0100(4)
H2 H -0.3333 0.1995 -0.0175
C6 C 0.0381(4) 0.2183(3) 0.3644(4)
H3 H 0.0364 0.1553 0.3840
C7 C -0.2179(4) 0.1018(3) -0.0364(3)
F1 F 0.6595(2) -0.0615(3) 0.1479(3)
C8 C 0.0404(3) 0.2378(3) 0.2705(3)
F2 F 0.7372(3) -0.1566(3) 0.3251(3)
C9 C 0.0382(4) 0.2904(3) 0.4311(4)
H4 H 0.0361 0.2739 0.4945
C10 C 0.0299(3) 0.1624(3) 0.1929(3)
C11 C -0.0772(3) 0.1510(3) 0.1097(3)
C12 C 0.3009(4) 0.0570(3) 0.2726(3)
H5 H 0.3767 0.0477 0.3158
C13 C 0.2800(4) -0.0576(3) 0.1293(3)
C14 C 0.5552(4) -0.1645(4) 0.3270(4)
N4 N 0.5985(4) -0.2132(3) 0.4226(4)
C15 C 0.2318(4) 0.1188(3) 0.2887(4)
H6 H 0.2505 0.1600 0.3453
C16 C 0.0504(4) 0.3332(3) 0.2506(3)
H7 H 0.0570 0.3511 0.1897
C17 C 0.4419(4) -0.1360(4) 0.2747(4)
H8 H 0.3919 -0.1522 0.3035
C18 C 0.0503(4) 0.4009(3) 0.3205(4)
H9 H 0.0571 0.4644 0.3053
C19 C 0.4740(4) -0.0585(4) 0.1386(4)
H10 H 0.4485 -0.0225 0.0774
C20 C 0.5874(4) -0.0872(5) 0.1885(4)
C21 C 0.6239(4) -0.1358(4) 0.2764(5)
C22 C 0.5234(5) -0.2206(6) 0.4706(5)
H11 H 0.5018 -0.1580 0.4827
H12 H 0.5595 -0.2535 0.5363
H13 H 0.4577 -0.2553 0.4254
C23 C 0.6622(6) -0.2995(5) 0.4258(6)
H14 H 0.6111 -0.3503 0.3911
H15 H 0.7071 -0.3168 0.4976
H16 H 0.7104 -0.2880 0.3909
C1B C -0.2362(3) -0.0078(3) -0.1763(3)
N1B N 0.1027(3) -0.0874(2) -0.0273(3)
N2B N -0.1262(3) -0.0416(2) -0.1332(3)
C2B C -0.1234(3) -0.1094(3) -0.2019(3)
N3B N -0.0411(3) -0.3803(3) -0.4101(3)
C3B C 0.1760(4) -0.2041(3) -0.0984(4)
H1B H 0.1800 -0.2497 -0.1448
C4B C -0.4024(4) 0.0846(3) -0.1818(4)
C5B C 0.2602(4) -0.1760(3) -0.0100(4)
H2B H 0.3333 -0.1995 0.0175
C6B C -0.0381(4) -0.2183(3) -0.3644(4)
H3B H -0.0364 -0.1553 -0.3840
C7B C 0.2179(4) -0.1018(3) 0.0364(3)
F1B F -0.6595(2) 0.0615(3) -0.1479(3)
C8B C -0.0404(3) -0.2378(3) -0.2705(3)
F2B F -0.7372(3) 0.1566(3) -0.3251(3)
C9B C -0.0382(4) -0.2904(3) -0.4311(4)
H4B H -0.0361 -0.2739 -0.4945
C10B C -0.0299(3) -0.1624(3) -0.1929(3)
C11B C 0.0772(3) -0.1510(3) -0.1097(3)
C12B C -0.3009(4) -0.0570(3) -0.2726(3)
H5B H -0.3767 -0.0477 -0.3158
C13B C -0.2800(4) 0.0576(3) -0.1293(3)
C14B C -0.5552(4) 0.1645(4) -0.3270(4)
N4B N -0.5985(4) 0.2132(3) -0.4226(4)
C15B C -0.2318(4) -0.1188(3) -0.2887(4)
H6B H -0.2505 -0.1600 -0.3453
C16B C -0.0504(4) -0.3332(3) -0.2506(3)
H7B H -0.0570 -0.3511 -0.1897
C17B C -0.4419(4) 0.1360(4) -0.2747(4)
H8B H -0.3919 0.1522 -0.3035
C18B C -0.0503(4) -0.4009(3) -0.3205(4)
H9B H -0.0571 -0.4644 -0.3053
C19B C -0.4740(4) 0.0585(4) -0.1386(4)
H10B H -0.4485 0.0225 -0.0774
C20B C -0.5874(4) 0.0872(5) -0.1885(4)
C21B C -0.6239(4) 0.1358(4) -0.2764(5)
C22B C -0.5234(5) 0.2206(6) -0.4706(5)
H11B H -0.5018 0.1580 -0.4827
H12B H -0.5595 0.2535 -0.5363
H13B H -0.4577 0.2553 -0.4254
C23B C -0.6622(6) 0.2995(5) -0.4258(6)
H14B H -0.6111 0.3503 -0.3911
H15B H -0.7071 0.3168 -0.4976
H16B H -0.7104 0.2880 -0.3909
Co1A Co 0.0000 -0.5000 -0.5000
Co1A_2 Co 0.0000 0.5000 0.5000
N3A N -0.0411(3) -0.1197(3) 0.0899(3)
N3C N 0.0411(3) 0.1197(3) -0.0899(3)
N5 N 0.7390(4) 0.0728(4) 0.4195(5)
C24 C 0.7374(14) 0.1240(11) 0.3293(9)
H17 H 0.7841 0.0916 0.3021
H18 H 0.7654 0.1874 0.3499
H19 H 0.6617 0.1269 0.2761
C25 C 0.6201(8) 0.0973(11) 0.3829(9)
H20 H 0.5724 0.1328 0.3255
O1 O 0.6021(7) 0.0534(8) 0.4565(7)
C26 C 0.8585(10) 0.0358(14) 0.4709(16)
H21 H 0.8731 -0.0038 0.4222
H22 H 0.8683 -0.0007 0.5320
H23 H 0.9100 0.0885 0.4912
loop_
_geom_bond_atom_site_label_1
_geom_bond_atom_site_label_2
_geom_bond_site_symmetry_1
_geom_bond_site_symmetry_2
Co1 N1 1_555 1_555
C1 N2 1_555 1_555
N1 C7 1_555 1_555
N2 Co1 1_555 1_555
C2 N2 1_555 1_555
N3 C9 1_555 1_555
C3 H1 1_555 1_555
C4 C13 1_555 1_555
C5 C3 1_555 1_555
H2 C5 1_555 1_555
C6 H3 1_555 1_555
C7 C5 1_555 1_555
F1 C20 1_555 1_555
C8 C6 1_555 1_555
F2 C21 1_555 1_555
C9 C6 1_555 1_555
H4 C9 1_555 1_555
C10 C2 1_555 1_555
C11 N1 1_555 1_555
C12 C1 1_555 1_555
H5 C12 1_555 1_555
C13 C1 1_555 1_555
C14 N4 1_555 1_555
N4 C22 1_555 1_555
C15 C2 1_555 1_555
H6 C15 1_555 1_555
C16 C8 1_555 1_555
H7 C16 1_555 1_555
C17 C4 1_555 1_555
H8 C17 1_555 1_555
C18 N3 1_555 1_555
H9 C18 1_555 1_555
C19 C4 1_555 1_555
H10 C19 1_555 1_555
C20 C19 1_555 1_555
C21 C14 1_555 1_555
C22 H11 1_555 1_555
H12 C22 1_555 1_555
H13 C22 1_555 1_555
C23 N4 1_555 1_555
H14 C23 1_555 1_555
H15 C23 1_555 1_555
H16 C23 1_555 1_555
N5 C24 1_555 1_555
C24 H17 1_555 1_555
H18 C24 1_555 1_555
H19 C24 1_555 1_555
C25 N5 1_555 1_555
H20 C25 1_555 1_555
O1 C25 1_555 1_555
C26 N5 1_555 1_555
H21 C26 1_555 1_555
H22 C26 1_555 1_555
H23 C26 1_555 1_555
C1B N2B 1_555 1_555
N1B Co1 1_555 1_555
N2B Co1 1_555 1_555
C2B N2B 1_555 1_555
N3B C9B 1_555 1_555
C3B H1B 1_555 1_555
C4B C13B 1_555 1_555
C5B C3B 1_555 1_555
H2B C5B 1_555 1_555
C6B H3B 1_555 1_555
C7B C13 1_555 1_555
F1B C20B 1_555 1_555
C8B C6B 1_555 1_555
F2B C21B 1_555 1_555
C9B C6B 1_555 1_555
H4B C9B 1_555 1_555
C10B C2B 1_555 1_555
C11B N1B 1_555 1_555
C12B C1B 1_555 1_555
H5B C12B 1_555 1_555
C13B C7 1_555 1_555
C14B N4B 1_555 1_555
N4B C22B 1_555 1_555
C15B C2B 1_555 1_555
H6B C15B 1_555 1_555
C16B C8B 1_555 1_555
H7B C16B 1_555 1_555
C17B C4B 1_555 1_555
H8B C17B 1_555 1_555
C18B N3B 1_555 1_555
H9B C18B 1_555 1_555
C19B C4B 1_555 1_555
H10B C19B 1_555 1_555
C20B C19B 1_555 1_555
C21B C14B 1_555 1_555
C22B H11B 1_555 1_555
H12B C22B 1_555 1_555
H13B C22B 1_555 1_555
C23B N4B 1_555 1_555
H14B C23B 1_555 1_555
H15B C23B 1_555 1_555
H16B C23B 1_555 1_555
Co1A N3B 1_555 1_555
Co1A_2 N3 1_555 1_555
N3A Co1 1_555 1_555
N3C Co1 1_555 1_555
C3 C11 1_555 1_555
C8 C10 1_555 1_555
C10 C11 1_555 1_555
C12 C15 1_555 1_555
C14 C17 1_555 1_555
C16 C18 1_555 1_555
C20 C21 1_555 1_555
C1B C13B 1_555 1_555
N1B C7B 1_555 1_555
C3B C11B 1_555 1_555
C5B C7B 1_555 1_555
C8B C10B 1_555 1_555
C10B C11B 1_555 1_555
C12B C15B 1_555 1_555
C14B C17B 1_555 1_555
C16B C18B 1_555 1_555
C20B C21B 1_555 1_555

#END
