
#######################################################################
#
#                 Cambridge Crystallographic Data Centre
#                                CCDC 
#
#######################################################################
#
# If this CIF has been generated from an entry in the Cambridge 
# Structural Database, then it will include bibliographic, chemical, 
# crystal, experimental, refinement or atomic coordinate data resulting 
# from the CCDC's data processing and validation procedures.
#
#######################################################################

data_PULLUF
_symmetry_cell_setting           monoclinic
_symmetry_space_group_name_H-M   'P 21'
_symmetry_Int_Tables_number      4
_space_group_name_Hall           'P 2yb'
loop_
_symmetry_equiv_pos_site_id
_symmetry_equiv_pos_as_xyz
1 x,y,z
2 -x,1/2+y,-z
_cell_length_a                   15.235(5)
_cell_length_b                   10.594(5)
_cell_length_c                   20.241(5)
_cell_angle_alpha                90
_cell_angle_beta                 108.180(5)
_cell_angle_gamma                90
_cell_volume                     3103.81
loop_
_atom_site_label
_atom_site_type_symbol
_atom_site_fract_x
_atom_site_fract_y
_atom_site_fract_z
C1 C 0.2389(2) 0.6583(4) 0.48255(18)
H1 H 0.2558 0.7374 0.5085
C2 C 0.2176(2) 0.5609(4) 0.52977(18)
H2 H 0.1689 0.5958 0.5465
C3 C 0.1801(2) 0.4393(4) 0.49066(18)
H3 H 0.2305 0.3953 0.4799
C4 C 0.1047(2) 0.4652(4) 0.42425(18)
H4 H 0.0481 0.4878 0.4348
C5 C 0.1295(3) 0.5718(4) 0.3814(2)
H5 H 0.1768 0.5436 0.3611
C6 C 0.0435(4) 0.6191(6) 0.3246(3)
H6 H 0.0589 0.6930 0.3021
H7 H 0.0210 0.5540 0.2896
C7 C 0.5685(3) 0.7591(4) 0.4614(2)
H8 H 0.6189 0.8198 0.4672
C8 C 0.5586(3) 0.7302(5) 0.5327(2)
H9 H 0.5522 0.8098 0.5554
C9 C 0.4741(2) 0.6482(4) 0.52651(18)
H10 H 0.4851 0.5629 0.5121
C10 C 0.3887(3) 0.7053(4) 0.4717(2)
H11 H 0.3722 0.7855 0.4888
C11 C 0.4083(3) 0.7271(4) 0.4026(2)
H12 H 0.4218 0.6463 0.3843
C12 C 0.3299(3) 0.7918(6) 0.3491(3)
H13 H 0.2730 0.7459 0.3435
H14 H 0.3224 0.8765 0.3647
C13 C 0.7628(3) 0.5083(4) 0.32722(19)
H15 H 0.8156 0.4994 0.3096
C14 C 0.7951(2) 0.4903(4) 0.40640(18)
H16 H 0.8445 0.5515 0.4263
C15 C 0.7185(3) 0.5171(4) 0.43645(18)
H17 H 0.6724 0.4498 0.4218
C16 C 0.6710(2) 0.6422(4) 0.41172(18)
H18 H 0.7123 0.7115 0.4339
C17 C 0.6452(3) 0.6552(4) 0.33313(19)
H19 H 0.5956 0.5956 0.3109
C18 C 0.6161(4) 0.7875(5) 0.3059(2)
H20 H 0.5903 0.7847 0.2557
H21 H 0.5683 0.8172 0.3244
C19 C 0.6345(2) 0.1653(4) 0.13194(19)
H22 H 0.6401 0.1128 0.0936
C20 C 0.7041(3) 0.1206(4) 0.20062(18)
H23 H 0.7667 0.1308 0.1977
C21 C 0.6949(2) 0.1997(4) 0.25993(19)
H24 H 0.6326 0.1910 0.2636
C22 C 0.7124(2) 0.3360(4) 0.24464(17)
H25 H 0.7769 0.3453 0.2459
C23 C 0.6481(3) 0.3797(4) 0.17277(19)
H26 H 0.5842 0.3836 0.1736
C24 C 0.6770(4) 0.5083(5) 0.1533(2)
H27 H 0.6382 0.5308 0.1070
H28 H 0.6684 0.5714 0.1855
C25 C 0.2875(3) 0.0170(5) 0.0284(2)
H29 H 0.2350 -0.0154 -0.0094
C26 C 0.3633(3) -0.0805(5) 0.0461(2)
H30 H 0.3810 -0.0957 0.0042
C27 C 0.4480(3) -0.0290(4) 0.1022(2)
H31 H 0.4324 -0.0175 0.1452
C28 C 0.4747(3) 0.0980(4) 0.07937(18)
H32 H 0.4981 0.0867 0.0398
C29 C 0.3929(3) 0.1888(5) 0.0596(2)
H33 H 0.3752 0.2090 0.1010
C30 C 0.4132(4) 0.3071(6) 0.0280(3)
H34 H 0.4715 0.3410 0.0572
H35 H 0.4198 0.2879 -0.0170
C31 C 0.0213(2) 0.0244(4) 0.14537(18)
H36 H -0.0426 0.0069 0.1435
C32 C 0.0721(3) -0.0994(4) 0.1505(2)
H37 H 0.0410 -0.1513 0.1098
C33 C 0.1720(3) -0.0722(4) 0.1509(2)
H38 H 0.2038 -0.0213 0.1918
C34 C 0.1655(2) 0.0023(4) 0.08485(18)
H39 H 0.1372 -0.0502 0.0438
C35 C 0.1110(3) 0.1201(5) 0.0810(2)
H40 H 0.1427 0.1747 0.1203
C36 C 0.0968(4) 0.1926(6) 0.0132(3)
H41 H 0.0561 0.2636 0.0118
H42 H 0.1558 0.2259 0.0124
C37 C -0.0025(2) 0.3101(4) 0.35396(18)
H43 H -0.0407 0.3480 0.3796
C38 C -0.0034(2) 0.1659(4) 0.36299(19)
H44 H -0.0681 0.1386 0.3465
C39 C 0.0461(3) 0.1020(4) 0.3171(2)
H45 H 0.1120 0.1226 0.3350
C40 C 0.0084(2) 0.1494(4) 0.24330(18)
H46 H -0.0555 0.1202 0.2231
C41 C 0.0106(3) 0.2930(4) 0.24013(19)
H47 H 0.0748 0.3221 0.2572
C42 C -0.0354(3) 0.3470(5) 0.1680(2)
H48 H -0.0363 0.4383 0.1712
H49 H 0.0013 0.3249 0.1383
O1 O 0.16063(16) 0.6803(3) 0.42459(14)
O2 O 0.31457(16) 0.6177(3) 0.46165(13)
O3 O 0.29687(17) 0.5410(3) 0.58923(12)
H50 H 0.3392 0.5864 0.5866
O4 O 0.1426(2) 0.3579(3) 0.53170(14)
O5 O -0.0284(2) 0.6511(5) 0.3565(2)
O6 O 0.48766(18) 0.8103(3) 0.41609(15)
O7 O 0.59222(16) 0.6442(3) 0.43408(14)
O8 O 0.64116(18) 0.6684(4) 0.57332(15)
H51 H 0.6283 0.5987 0.5853
O9 O 0.45838(18) 0.6423(3) 0.59191(13)
H52 H 0.4129 0.5984 0.5886
O10 O 0.3478(2) 0.7977(4) 0.28375(16)
H53 H 0.3049 0.8337 0.2551
O11 O 0.72340(19) 0.6299(3) 0.31044(13)
O12 O 0.69642(17) 0.4121(3) 0.29791(13)
O13 O 0.83310(17) 0.3686(3) 0.42282(13)
O14 O 0.7575(2) 0.5123(4) 0.51110(13)
O15 O 0.6899(3) 0.8718(4) 0.3244(2)
H54 H 0.6716 0.9425 0.3100
O16 O 0.65424(18) 0.2936(3) 0.12029(12)
O17 O 0.54616(17) 0.1522(3) 0.13762(13)
O18 O 0.6868(2) -0.0105(3) 0.20645(15)
H55 H 0.6729 -0.0229 0.2419
O19 O 0.76105(18) 0.1657(3) 0.32332(13)
H56 H 0.7551 0.2109 0.3545
O20 O 0.7689(2) 0.5072(4) 0.15519(18)
H57 H 0.7759 0.4552 0.1272
O21 O 0.31559(19) 0.1304(4) 0.00787(14)
O22 O 0.25983(17) 0.0325(3) 0.08884(13)
O23 O 0.3336(2) -0.1969(3) 0.06617(16)
H58 H 0.2881 -0.2220 0.0352
O24 O 0.5209(2) -0.1185(3) 0.11427(17)
H59 H 0.5664 -0.0921 0.1447
O25 O 0.3443(3) 0.3992(5) 0.0197(3)
H60 H 0.3594 0.4634 0.0033
O26 O 0.02040(17) 0.0901(3) 0.08449(13)
O27 O 0.06374(17) 0.0968(3) 0.20535(13)
O28 O 0.0710(2) -0.1637(3) 0.21111(16)
H61 H 0.0174 -0.1763 0.2098
O29 O 0.2203(2) -0.1872(3) 0.15259(15)
H62 H 0.2729 -0.1720 0.1522
O30 O 0.0601(2) 0.1198(5) -0.04473(16)
H63 H 0.0534 0.1627 -0.0797
O31 O -0.03983(17) 0.3426(3) 0.28417(13)
O32 O 0.08975(16) 0.3502(3) 0.38497(12)
O33 O 0.0330(2) 0.1293(3) 0.43396(13)
O34 O 0.0354(2) -0.0302(3) 0.32080(15)
O35 O -0.1257(2) 0.3040(4) 0.13722(17)
H64 H -0.1573 0.3224 0.1620
K1 K 0.04138(7) -0.13815(11) 0.44536(5)
O1_2 O 0.16063(16) -0.3197(3) 0.42459(14)
O4A O -0.1426(2) -0.1421(3) 0.46830(14)
O5_2 O -0.0284(2) -0.3489(5) 0.3565(2)
O13A O 0.16690(17) -0.1314(3) 0.57718(13)
O14A O 0.2425(2) 0.0123(4) 0.48890(13)
K1_2 K 0.04138(7) 0.86185(11) 0.44536(5)
K1A K -0.04138(7) 0.36185(11) 0.55464(5)
K1A_2 K 0.95862(7) 0.36185(11) 0.55464(5)
loop_
_geom_bond_atom_site_label_1
_geom_bond_atom_site_label_2
_geom_bond_site_symmetry_1
_geom_bond_site_symmetry_2
C1 H1 1_555 1_555
C2 C1 1_555 1_555
H2 C2 1_555 1_555
C3 C2 1_555 1_555
H3 C3 1_555 1_555
C4 C3 1_555 1_555
H4 C4 1_555 1_555
C5 C4 1_555 1_555
H5 C5 1_555 1_555
C6 C5 1_555 1_555
H6 C6 1_555 1_555
H7 C6 1_555 1_555
C7 H8 1_555 1_555
C8 C7 1_555 1_555
H9 C8 1_555 1_555
C9 C8 1_555 1_555
H10 C9 1_555 1_555
C10 C9 1_555 1_555
H11 C10 1_555 1_555
C11 C10 1_555 1_555
H12 C11 1_555 1_555
C12 C11 1_555 1_555
H13 C12 1_555 1_555
H14 C12 1_555 1_555
C13 H15 1_555 1_555
C14 C13 1_555 1_555
H16 C14 1_555 1_555
C15 C14 1_555 1_555
H17 C15 1_555 1_555
C16 C15 1_555 1_555
H18 C16 1_555 1_555
C17 C16 1_555 1_555
H19 C17 1_555 1_555
C18 C17 1_555 1_555
H20 C18 1_555 1_555
H21 C18 1_555 1_555
C19 H22 1_555 1_555
C20 C19 1_555 1_555
H23 C20 1_555 1_555
C21 C20 1_555 1_555
H24 C21 1_555 1_555
C22 C21 1_555 1_555
H25 C22 1_555 1_555
C23 C22 1_555 1_555
H26 C23 1_555 1_555
C24 C23 1_555 1_555
H27 C24 1_555 1_555
H28 C24 1_555 1_555
C25 H29 1_555 1_555
C26 C25 1_555 1_555
H30 C26 1_555 1_555
C27 C26 1_555 1_555
H31 C27 1_555 1_555
C28 C27 1_555 1_555
H32 C28 1_555 1_555
C29 C28 1_555 1_555
H33 C29 1_555 1_555
C30 C29 1_555 1_555
H34 C30 1_555 1_555
H35 C30 1_555 1_555
C31 H36 1_555 1_555
C32 C31 1_555 1_555
H37 C32 1_555 1_555
C33 C32 1_555 1_555
H38 C33 1_555 1_555
C34 C33 1_555 1_555
H39 C34 1_555 1_555
C35 C34 1_555 1_555
H40 C35 1_555 1_555
C36 C35 1_555 1_555
H41 C36 1_555 1_555
H42 C36 1_555 1_555
C37 H43 1_555 1_555
C38 C37 1_555 1_555
H44 C38 1_555 1_555
C39 C38 1_555 1_555
H45 C39 1_555 1_555
C40 C39 1_555 1_555
H46 C40 1_555 1_555
C41 C40 1_555 1_555
H47 C41 1_555 1_555
C42 C41 1_555 1_555
H48 C42 1_555 1_555
H49 C42 1_555 1_555
O1 C1 1_555 1_555
O2 C1 1_555 1_555
O3 C2 1_555 1_555
H50 O3 1_555 1_555
O4 C3 1_555 1_555
O5 C6 1_555 1_555
O6 C7 1_555 1_555
O7 C7 1_555 1_555
O8 C8 1_555 1_555
H51 O8 1_555 1_555
O9 C9 1_555 1_555
H52 O9 1_555 1_555
O10 C12 1_555 1_555
H53 O10 1_555 1_555
O11 C13 1_555 1_555
O12 C13 1_555 1_555
O13 C14 1_555 1_555
O14 C15 1_555 1_555
O15 C18 1_555 1_555
H54 O15 1_555 1_555
O16 C19 1_555 1_555
O17 C19 1_555 1_555
O18 C20 1_555 1_555
H55 O18 1_555 1_555
O19 C21 1_555 1_555
H56 O19 1_555 1_555
O20 C24 1_555 1_555
H57 O20 1_555 1_555
O21 C25 1_555 1_555
O22 C25 1_555 1_555
O23 C26 1_555 1_555
H58 O23 1_555 1_555
O24 C27 1_555 1_555
H59 O24 1_555 1_555
O25 C30 1_555 1_555
H60 O25 1_555 1_555
O26 C31 1_555 1_555
O27 C31 1_555 1_555
O28 C32 1_555 1_555
H61 O28 1_555 1_555
O29 C33 1_555 1_555
H62 O29 1_555 1_555
O30 C36 1_555 1_555
H63 O30 1_555 1_555
O31 C37 1_555 1_555
O32 C4 1_555 1_555
O33 C38 1_555 1_555
O34 C39 1_555 1_555
O35 C42 1_555 1_555
H64 O35 1_555 1_555
K1 O33 1_555 1_555
O1_2 K1 1_555 1_555
O4A K1 1_555 1_555
O5_2 K1 1_555 1_555
O13A K1 1_555 1_555
O14A K1 1_555 1_555
K1_2 O1 1_555 1_555
K1A O4 1_555 1_555
K1A_2 O13 1_555 1_555
C5 O1 1_555 1_555
C10 O2 1_555 1_555
C11 O6 1_555 1_555
C16 O7 1_555 1_555
C17 O11 1_555 1_555
C22 O12 1_555 1_555
C23 O16 1_555 1_555
C28 O17 1_555 1_555
C29 O21 1_555 1_555
C34 O22 1_555 1_555
C35 O26 1_555 1_555
C37 O32 1_555 1_555
C40 O27 1_555 1_555
C41 O31 1_555 1_555
O5 K1_2 1_555 1_555
O14 K1A_2 1_555 1_555
O34 K1 1_555 1_555

#END
