
#######################################################################
#
#                 Cambridge Crystallographic Data Centre
#                                CCDC 
#
#######################################################################
#
# If this CIF has been generated from an entry in the Cambridge 
# Structural Database, then it will include bibliographic, chemical, 
# crystal, experimental, refinement or atomic coordinate data resulting 
# from the CCDC's data processing and validation procedures.
#
#######################################################################

data_PULLOZ
_symmetry_cell_setting           monoclinic
_symmetry_space_group_name_H-M   'P 21'
_symmetry_Int_Tables_number      4
_space_group_name_Hall           'P 2yb'
loop_
_symmetry_equiv_pos_site_id
_symmetry_equiv_pos_as_xyz
1 x,y,z
2 -x,1/2+y,-z
_cell_length_a                   15.237(5)
_cell_length_b                   10.596(5)
_cell_length_c                   20.202(5)
_cell_angle_alpha                90
_cell_angle_beta                 108.224(5)
_cell_angle_gamma                90
_cell_volume                     3098.04
loop_
_atom_site_label
_atom_site_type_symbol
_atom_site_fract_x
_atom_site_fract_y
_atom_site_fract_z
C1 C 0.9327(3) 0.2732(5) 0.0390(3)
H1 H 0.8826 0.2123 0.0336
C2 C 0.9415(3) 0.2983(6) -0.0332(3)
H2 H 0.9474 0.2182 -0.0557
C3 C 1.0262(3) 0.3816(6) -0.0267(2)
H3 H 1.0152 0.4666 -0.0119
C4 C 1.1109(3) 0.3236(5) 0.0279(3)
H4 H 1.1269 0.2432 0.0107
C5 C 1.0928(3) 0.3031(5) 0.0968(3)
H5 H 1.0792 0.3840 0.1150
C6 C 1.1700(4) 0.2392(9) 0.1503(3)
H6 H 1.1786 0.1557 0.1336
H7 H 1.2265 0.2866 0.1564
C7 C 0.7376(3) 0.5197(5) 0.1722(3)
H8 H 0.6849 0.5291 0.1897
C8 C 0.7052(3) 0.5376(6) 0.0945(2)
H9 H 0.6559 0.4762 0.0747
C9 C 0.7810(3) 0.5118(6) 0.0637(3)
H10 H 0.8271 0.5791 0.0784
C10 C 0.8280(3) 0.3866(6) 0.0888(2)
H11 H 0.7867 0.3172 0.0668
C11 C 0.8553(3) 0.3737(5) 0.1677(3)
H12 H 0.9046 0.4343 0.1892
C12 C 0.8859(5) 0.2445(6) 0.1957(3)
H13 H 0.9355 0.2163 0.1786
H14 H 0.9097 0.2480 0.2462
C13 C 0.8659(3) 0.8617(6) 0.3675(3)
H15 H 0.8605 0.9139 0.4060
C14 C 0.7971(3) 0.9080(5) 0.3008(2)
H16 H 0.7347 0.8974 0.3043
C15 C 0.8051(3) 0.8295(5) 0.2405(2)
H17 H 0.8672 0.8381 0.2365
C16 C 0.7874(3) 0.6920(5) 0.2555(2)
H18 H 0.7227 0.6826 0.2539
C17 C 0.8511(3) 0.6491(5) 0.3279(2)
H19 H 0.9149 0.6449 0.3267
C18 C 0.8239(4) 0.5218(6) 0.3477(3)
H20 H 0.8322 0.4585 0.3155
H21 H 0.8629 0.4997 0.3942
C19 C 1.2123(3) 1.0126(6) 0.4710(3)
H22 H 1.2645 1.0456 0.5089
C20 C 1.1348(3) 1.1089(6) 0.4536(3)
H23 H 1.1179 1.1239 0.4959
C21 C 1.0513(3) 1.0586(6) 0.3992(3)
H24 H 1.0661 1.0479 0.3557
C22 C 1.0247(3) 0.9306(6) 0.4214(3)
H25 H 1.0009 0.9410 0.4608
C23 C 1.1077(3) 0.8427(6) 0.4415(3)
H26 H 1.1253 0.8248 0.3997
C24 C 1.0882(5) 0.7195(7) 0.4712(4)
H27 H 1.0780 0.7361 0.5154
H28 H 1.0313 0.6848 0.4399
C25 C 1.4788(3) 1.0028(6) 0.3545(3)
H29 H 1.5429 1.0191 0.3567
C26 C 1.4287(3) 1.1273(5) 0.3494(2)
H30 H 1.4600 1.1782 0.3905
C27 C 1.3280(3) 1.1020(6) 0.3487(3)
H31 H 1.2956 1.0521 0.3075
C28 C 1.3336(3) 1.0268(6) 0.4145(2)
H32 H 1.3627 1.0784 0.4558
C29 C 1.3882(3) 0.9076(6) 0.4175(3)
H33 H 1.3564 0.8540 0.3777
C30 C 1.4011(4) 0.8343(7) 0.4848(3)
H34 H 1.3416 0.8022 0.4853
H35 H 1.4410 0.7625 0.4860
C31 C 1.5023(3) 0.7207(6) 0.1457(2)
H36 H 1.5405 0.6823 0.1201
C32 C 1.5045(3) 0.8615(6) 0.1362(2)
H37 H 1.5693 0.8882 0.1527
C33 C 1.4543(3) 0.9255(5) 0.1837(3)
H38 H 1.3884 0.9044 0.1659
C34 C 1.4910(3) 0.8807(5) 0.2557(2)
H39 H 1.5549 0.9099 0.2760
C35 C 1.4882(3) 0.7352(5) 0.2591(3)
H40 H 1.4239 0.7062 0.2417
C36 C 1.5337(4) 0.6825(6) 0.3310(3)
H41 H 1.4971 0.7058 0.3608
H42 H 1.5341 0.5911 0.3283
C37 C 1.2599(3) 0.3724(5) 0.0158(2)
H43 H 1.2429 0.2934 -0.0103
C38 C 1.2820(3) 0.4695(6) -0.0312(2)
H44 H 1.3311 0.4346 -0.0475
C39 C 1.3191(3) 0.5906(5) 0.0087(2)
H45 H 1.2687 0.6346 0.0194
C40 C 1.3955(3) 0.5650(5) 0.0751(2)
H46 H 1.4519 0.5426 0.0643
C41 C 1.3702(3) 0.4577(5) 0.1173(3)
H47 H 1.3231 0.4862 0.1377
C42 C 1.4570(5) 0.4105(7) 0.1750(3)
H48 H 1.4788 0.4759 0.2099
H49 H 1.4413 0.3370 0.1976
O1 O 1.0135(2) 0.2202(4) 0.08350(19)
O2 O 0.9082(2) 0.3852(4) 0.06551(17)
O3 O 0.8589(2) 0.3625(5) -0.07330(19)
H50 H 0.8139 0.3179 -0.0763
O4 O 1.0412(2) 0.3884(5) -0.09206(18)
H51 H 0.9956 0.4187 -0.1208
O5 O 1.1545(3) 0.2277(5) 0.2158(2)
H52 H 1.1474 0.2981 0.2303
O6 O 0.7763(3) 0.4013(4) 0.19016(18)
O7 O 0.8036(2) 0.6169(4) 0.20147(18)
O8 O 0.6668(2) 0.6607(4) 0.07666(18)
O9 O 0.7422(3) 0.5161(5) -0.01074(18)
H53 H 0.7828 0.5021 -0.0285
O10 O 0.8121(4) 0.1573(5) 0.1754(3)
H54 H 0.7715 0.1789 0.1917
O11 O 0.8468(2) 0.7355(4) 0.38011(16)
O12 O 0.9537(2) 0.8765(4) 0.36249(16)
O13 O 0.8128(3) 1.0388(4) 0.29316(19)
H55 H 0.8556 1.0631 0.3266
O14 O 0.7380(2) 0.8620(4) 0.17629(17)
H56 H 0.7457 0.9353 0.1665
O15 O 0.7300(3) 0.5246(5) 0.3458(3)
H57 H 0.7153 0.4552 0.3570
O16 O 1.1842(2) 0.8985(5) 0.49202(17)
O17 O 1.2395(2) 0.9991(4) 0.41076(17)
O18 O 1.1669(3) 1.2257(4) 0.4342(2)
H58 H 1.1247 1.2774 0.4246
O19 O 0.9760(3) 1.1458(4) 0.3871(2)
H59 H 0.9913 1.2141 0.3750
O20 O 1.1563(5) 0.6302(7) 0.4815(4)
H60 H 1.1627 0.6112 0.4439
O21 O 1.4782(2) 0.9353(4) 0.41547(17)
O22 O 1.4356(2) 0.9313(4) 0.29438(17)
O23 O 1.4292(3) 1.1942(4) 0.2893(2)
H61 H 1.4574 1.1535 0.2680
O24 O 1.2807(3) 1.2180(4) 0.34745(18)
H62 H 1.2638 1.2229 0.3821
O25 O 1.4398(3) 0.9088(6) 0.54523(18)
H63 H 1.4903 0.9357 0.5453
O26 O 1.5392(2) 0.6858(4) 0.21531(17)
O27 O 1.4104(2) 0.6786(3) 0.11468(17)
O28 O 1.4674(3) 0.8982(4) 0.06512(16)
O29 O 1.4642(3) 1.0588(4) 0.1783(2)
O30 O 1.6244(3) 0.7252(5) 0.3616(2)
H64 H 1.6562 0.7033 0.3375
O31 O 1.3386(2) 0.3494(3) 0.07490(17)
O32 O 1.1854(2) 0.4114(4) 0.03761(16)
O33 O 1.2037(2) 0.4884(4) -0.09042(17)
H65 H 1.1612 0.4435 -0.0875
O34 O 1.3569(3) 0.6715(4) -0.03275(18)
O35 O 1.5268(3) 0.3794(6) 0.1468(3)
Na1 Na 1.45948(10) 1.16779(15) 0.05478(7)
O8A O 1.3332(2) 1.1607(4) -0.07666(18)
O31_2 O 1.3386(2) 1.3494(3) 0.07490(17)
O34A O 1.6431(3) 1.1715(4) 0.03275(18)
O35_2 O 1.5268(3) 1.3794(6) 0.1468(3)
Na1_2 Na 1.45948(10) 0.16779(15) 0.05478(7)
Na1A Na 0.54052(10) 0.66779(15) -0.05478(7)
Na1A_2 Na 1.54052(10) 0.66779(15) -0.05478(7)
loop_
_geom_bond_atom_site_label_1
_geom_bond_atom_site_label_2
_geom_bond_site_symmetry_1
_geom_bond_site_symmetry_2
C1 H1 1_555 1_555
C2 C1 1_555 1_555
H2 C2 1_555 1_555
C3 C2 1_555 1_555
H3 C3 1_555 1_555
C4 C3 1_555 1_555
H4 C4 1_555 1_555
C5 C4 1_555 1_555
H5 C5 1_555 1_555
C6 C5 1_555 1_555
H6 C6 1_555 1_555
H7 C6 1_555 1_555
C7 H8 1_555 1_555
C8 C7 1_555 1_555
H9 C8 1_555 1_555
C9 C8 1_555 1_555
H10 C9 1_555 1_555
C10 C9 1_555 1_555
H11 C10 1_555 1_555
C11 C10 1_555 1_555
H12 C11 1_555 1_555
C12 C11 1_555 1_555
H13 C12 1_555 1_555
H14 C12 1_555 1_555
C13 H15 1_555 1_555
C14 C13 1_555 1_555
H16 C14 1_555 1_555
C15 C14 1_555 1_555
H17 C15 1_555 1_555
C16 C15 1_555 1_555
H18 C16 1_555 1_555
C17 C16 1_555 1_555
H19 C17 1_555 1_555
C18 C17 1_555 1_555
H20 C18 1_555 1_555
H21 C18 1_555 1_555
C19 H22 1_555 1_555
C20 C19 1_555 1_555
H23 C20 1_555 1_555
C21 C20 1_555 1_555
H24 C21 1_555 1_555
C22 C21 1_555 1_555
H25 C22 1_555 1_555
C23 C22 1_555 1_555
H26 C23 1_555 1_555
C24 C23 1_555 1_555
H27 C24 1_555 1_555
H28 C24 1_555 1_555
C25 H29 1_555 1_555
C26 C25 1_555 1_555
H30 C26 1_555 1_555
C27 C26 1_555 1_555
H31 C27 1_555 1_555
C28 C27 1_555 1_555
H32 C28 1_555 1_555
C29 C28 1_555 1_555
H33 C29 1_555 1_555
C30 C29 1_555 1_555
H34 C30 1_555 1_555
H35 C30 1_555 1_555
C31 H36 1_555 1_555
C32 C31 1_555 1_555
H37 C32 1_555 1_555
C33 C32 1_555 1_555
H38 C33 1_555 1_555
C34 C33 1_555 1_555
H39 C34 1_555 1_555
C35 C34 1_555 1_555
H40 C35 1_555 1_555
C36 C35 1_555 1_555
H41 C36 1_555 1_555
H42 C36 1_555 1_555
C37 H43 1_555 1_555
C38 C37 1_555 1_555
H44 C38 1_555 1_555
C39 C38 1_555 1_555
H45 C39 1_555 1_555
C40 C39 1_555 1_555
H46 C40 1_555 1_555
C41 C40 1_555 1_555
H47 C41 1_555 1_555
C42 C41 1_555 1_555
H48 C42 1_555 1_555
H49 C42 1_555 1_555
O1 C1 1_555 1_555
O2 C1 1_555 1_555
O3 C2 1_555 1_555
H50 O3 1_555 1_555
O4 C3 1_555 1_555
H51 O4 1_555 1_555
O5 C6 1_555 1_555
H52 O5 1_555 1_555
O6 C7 1_555 1_555
O7 C7 1_555 1_555
O8 C8 1_555 1_555
O9 C9 1_555 1_555
H53 O9 1_555 1_555
O10 C12 1_555 1_555
H54 O10 1_555 1_555
O11 C13 1_555 1_555
O12 C13 1_555 1_555
O13 C14 1_555 1_555
H55 O13 1_555 1_555
O14 C15 1_555 1_555
H56 O14 1_555 1_555
O15 C18 1_555 1_555
H57 O15 1_555 1_555
O16 C19 1_555 1_555
O17 C19 1_555 1_555
O18 C20 1_555 1_555
H58 O18 1_555 1_555
O19 C21 1_555 1_555
H59 O19 1_555 1_555
O20 C24 1_555 1_555
H60 O20 1_555 1_555
O21 C25 1_555 1_555
O22 C25 1_555 1_555
O23 C26 1_555 1_555
H61 O23 1_555 1_555
O24 C27 1_555 1_555
H62 O24 1_555 1_555
O25 C30 1_555 1_555
H63 O25 1_555 1_555
O26 C31 1_555 1_555
O27 C31 1_555 1_555
O28 C32 1_555 1_555
O29 C33 1_555 1_555
O30 C36 1_555 1_555
H64 O30 1_555 1_555
O31 C37 1_555 1_555
O32 C4 1_555 1_555
O33 C38 1_555 1_555
H65 O33 1_555 1_555
O34 C39 1_555 1_555
O35 C42 1_555 1_555
Na1 O28 1_555 1_555
O8A Na1 1_555 1_555
O31_2 Na1 1_555 1_555
O34A Na1 1_555 1_555
O35_2 Na1 1_555 1_555
Na1_2 O31 1_555 1_555
Na1A O8 1_555 1_555
Na1A_2 O34 1_555 1_555
C5 O1 1_555 1_555
C10 O2 1_555 1_555
C11 O6 1_555 1_555
C16 O7 1_555 1_555
C17 O11 1_555 1_555
C22 O12 1_555 1_555
C23 O16 1_555 1_555
C28 O17 1_555 1_555
C29 O21 1_555 1_555
C34 O22 1_555 1_555
C35 O26 1_555 1_555
C37 O32 1_555 1_555
C40 O27 1_555 1_555
C41 O31 1_555 1_555
O29 Na1 1_555 1_555
O35 Na1_2 1_555 1_555

#END
