
#######################################################################
#
#                 Cambridge Crystallographic Data Centre
#                                CCDC 
#
#######################################################################
#
# If this CIF has been generated from an entry in the Cambridge 
# Structural Database, then it will include bibliographic, chemical, 
# crystal, experimental, refinement or atomic coordinate data resulting 
# from the CCDC's data processing and validation procedures.
#
#######################################################################

data_PUPNAQ
_symmetry_cell_setting           monoclinic
_symmetry_space_group_name_H-M   'P 21/c'
_symmetry_Int_Tables_number      14
_space_group_name_Hall           '-P 2ybc'
loop_
_symmetry_equiv_pos_site_id
_symmetry_equiv_pos_as_xyz
1 x,y,z
2 -x,1/2+y,1/2-z
3 -x,-y,-z
4 x,1/2-y,1/2+z
_cell_length_a                   6.8890(19)
_cell_length_b                   23.851(7)
_cell_length_c                   11.606(4)
_cell_angle_alpha                90
_cell_angle_beta                 96.082(13)
_cell_angle_gamma                90
_cell_volume                     1896.24
loop_
_atom_site_label
_atom_site_type_symbol
_atom_site_fract_x
_atom_site_fract_y
_atom_site_fract_z
Zn1 Zn -0.13126(5) 0.518155(15) 0.85820(3)
O1 O 0.0411(3) 0.45277(9) 0.8463(2)
O2 O 0.2527(3) 0.47501(9) 0.99862(19)
O3 O 0.9761(3) 0.08508(9) 0.6582(2)
O4 O 1.2466(3) 0.12679(10) 0.7385(2)
N1 N -0.4969(4) 0.44157(11) 0.6046(2)
H1 H -0.5214 0.4145 0.5536
N2 N -0.3420(4) 0.49314(11) 0.7405(2)
C1 C -0.8143(4) 0.49197(13) 0.5610(3)
C2 C -0.9062(5) 0.44870(14) 0.4957(3)
H2 H -0.8432 0.4134 0.4922
C3 C -1.0889(5) 0.45676(14) 0.4359(3)
H3 H -1.1496 0.4268 0.3918
C4 C -0.6210(4) 0.48530(13) 0.6247(3)
C5 C -0.5221(5) 0.51680(14) 0.7091(3)
H4 H -0.5699 0.5500 0.7414
C6 C -0.3334(5) 0.44774(14) 0.6762(3)
H5 H -0.2253 0.4228 0.6803
C7 C 0.5815(5) 0.31430(13) 0.8172(3)
C8 C 0.4016(5) 0.32395(14) 0.7530(3)
H6 H 0.3614 0.3006 0.6885
C9 C 0.2812(5) 0.36694(13) 0.7817(3)
H7 H 0.1593 0.3727 0.7368
C10 C 0.3359(5) 0.40155(13) 0.8748(3)
C11 C 0.5169(5) 0.39346(14) 0.9374(3)
H8 H 0.5582 0.4177 1.0001
C12 C 0.6376(5) 0.35024(14) 0.9090(3)
H9 H 0.7607 0.3451 0.9530
C13 C 0.2008(4) 0.44650(13) 0.9089(3)
C14 C 0.7070(5) 0.26637(13) 0.7896(3)
C15 C 0.6260(5) 0.21870(14) 0.7330(3)
H10 H 0.4892 0.2171 0.7111
C16 C 0.7423(5) 0.17383(14) 0.7085(3)
H11 H 0.6838 0.1417 0.6710
C17 C 0.9430(5) 0.17497(14) 0.7379(3)
C18 C 1.0242(5) 0.22212(15) 0.7933(4)
H12 H 1.1612 0.2237 0.8143
C19 C 0.9085(5) 0.26707(15) 0.8186(4)
H13 H 0.9678 0.2990 0.8566
C20 C 1.0674(5) 0.12585(14) 0.7105(3)
Zn1B Zn -1.86874(5) 0.481845(15) 0.14180(3)
Zn1_2 Zn -2.13126(5) 0.518155(15) -0.14180(3)
Zn1A Zn 1.13126(5) 0.018155(15) 0.64180(3)
Zn1B_2 Zn 0.13126(5) 0.481845(15) 1.14180(3)
Zn1C Zn -3.13126(5) 0.981845(15) 0.35820(3)
O1B O -2.0411(3) 0.54723(9) 0.1537(2)
O2B O -2.2527(3) 0.52499(9) 0.00138(19)
O2_2 O -1.7473(3) 0.47501(9) -0.00138(19)
O2B_2 O -0.2527(3) 0.52499(9) 1.00138(19)
O3B O -2.9761(3) 0.91492(9) 0.3418(2)
O3A O 0.0239(3) 0.58508(9) 0.8418(2)
O3C O -2.0239(3) 0.41492(9) 0.1582(2)
O4B O -3.2466(3) 0.87321(10) 0.2615(2)
N1B N -1.5031(4) 0.55843(11) 0.3954(2)
H1B H -1.4786 0.5855 0.4464
N2B N -1.6580(4) 0.50686(11) 0.2595(2)
C1B C -1.1857(4) 0.50803(13) 0.4390(3)
C2B C -1.0938(5) 0.55130(14) 0.5043(3)
H2B H -1.1568 0.5866 0.5078
C3B C -0.9111(5) 0.54324(14) 0.5641(3)
H3B H -0.8504 0.5732 0.6082
C4B C -1.3790(4) 0.51470(13) 0.3753(3)
C5B C -1.4779(5) 0.48320(14) 0.2909(3)
H4B H -1.4301 0.4500 0.2586
C6B C -1.6666(5) 0.55226(14) 0.3238(3)
H5B H -1.7747 0.5772 0.3197
C7B C -2.5815(5) 0.68570(13) 0.1828(3)
C8B C -2.4016(5) 0.67605(14) 0.2470(3)
H6B H -2.3614 0.6994 0.3115
C9B C -2.2812(5) 0.63306(13) 0.2183(3)
H7B H -2.1593 0.6273 0.2632
C10B C -2.3359(5) 0.59845(13) 0.1252(3)
C11B C -2.5169(5) 0.60654(14) 0.0626(3)
H8B H -2.5582 0.5823 -0.0001
C12B C -2.6376(5) 0.64976(14) 0.0910(3)
H9B H -2.7607 0.6549 0.0470
C13B C -2.2008(4) 0.55350(13) 0.0911(3)
C14B C -2.7070(5) 0.73363(13) 0.2104(3)
C15B C -2.6260(5) 0.78130(14) 0.2670(3)
H10B H -2.4892 0.7829 0.2889
C16B C -2.7423(5) 0.82617(14) 0.2915(3)
H11B H -2.6838 0.8583 0.3290
C17B C -2.9430(5) 0.82503(14) 0.2621(3)
C18B C -3.0242(5) 0.77788(15) 0.2067(4)
H12B H -3.1612 0.7763 0.1857
C19B C -2.9085(5) 0.73293(15) 0.1814(4)
H13B H -2.9678 0.7010 0.1434
C20B C -3.0674(5) 0.87415(14) 0.2895(3)
O5 O 0.4527(5) 0.35118(13) 0.4497(3)
H14 H 0.396(6) 0.355(2) 0.387(3)
H15 H 0.548(5) 0.3333(18) 0.448(4)
O6 O 0.8369(17) 0.3142(5) 0.5364(9)
loop_
_geom_bond_atom_site_label_1
_geom_bond_atom_site_label_2
_geom_bond_site_symmetry_1
_geom_bond_site_symmetry_2
Zn1 O1 1_555 1_555
O1 C13 1_555 1_555
O2 C13 1_555 1_555
O3 C20 1_555 1_555
O4 C20 1_555 1_555
N1 H1 1_555 1_555
N2 Zn1 1_555 1_555
C1 C2 1_555 1_555
C2 H2 1_555 1_555
C3 C2 1_555 1_555
H3 C3 1_555 1_555
C4 N1 1_555 1_555
C5 N2 1_555 1_555
H4 C5 1_555 1_555
C6 N1 1_555 1_555
H5 C6 1_555 1_555
C7 C8 1_555 1_555
C8 H6 1_555 1_555
C9 C8 1_555 1_555
H7 C9 1_555 1_555
C10 C9 1_555 1_555
C11 C10 1_555 1_555
H8 C11 1_555 1_555
C12 C7 1_555 1_555
H9 C12 1_555 1_555
C13 C10 1_555 1_555
C14 C7 1_555 1_555
C15 C14 1_555 1_555
H10 C15 1_555 1_555
C16 C15 1_555 1_555
H11 C16 1_555 1_555
C17 C16 1_555 1_555
C18 C17 1_555 1_555
H12 C18 1_555 1_555
C19 C14 1_555 1_555
H13 C19 1_555 1_555
C20 C17 1_555 1_555
O5 H14 1_555 1_555
H15 O5 1_555 1_555
Zn1B O1B 1_555 1_555
Zn1_2 O2B 1_555 1_555
Zn1A O3 1_555 1_555
Zn1B_2 O2 1_555 1_555
Zn1C O3B 1_555 1_555
O1B C13B 1_555 1_555
O2B C13B 1_555 1_555
O2_2 Zn1B 1_555 1_555
O2B_2 Zn1 1_555 1_555
O3B C20B 1_555 1_555
O3A Zn1 1_555 1_555
O3C Zn1B 1_555 1_555
O4B C20B 1_555 1_555
N1B H1B 1_555 1_555
N2B Zn1B 1_555 1_555
C1B C3 1_555 1_555
C2B C1B 1_555 1_555
H2B C2B 1_555 1_555
C3B C1 1_555 1_555
H3B C3B 1_555 1_555
C4B N1B 1_555 1_555
C5B N2B 1_555 1_555
H4B C5B 1_555 1_555
C6B N1B 1_555 1_555
H5B C6B 1_555 1_555
C7B C8B 1_555 1_555
C8B H6B 1_555 1_555
C9B C8B 1_555 1_555
H7B C9B 1_555 1_555
C10B C9B 1_555 1_555
C11B C10B 1_555 1_555
H8B C11B 1_555 1_555
C12B C7B 1_555 1_555
H9B C12B 1_555 1_555
C13B C10B 1_555 1_555
C14B C7B 1_555 1_555
C15B C14B 1_555 1_555
H10B C15B 1_555 1_555
C16B C15B 1_555 1_555
H11B C16B 1_555 1_555
C17B C16B 1_555 1_555
C18B C17B 1_555 1_555
H12B C18B 1_555 1_555
C19B C14B 1_555 1_555
H13B C19B 1_555 1_555
C20B C17B 1_555 1_555
N2 C6 1_555 1_555
C1 C4 1_555 1_555
C4 C5 1_555 1_555
C11 C12 1_555 1_555
C18 C19 1_555 1_555
N2B C6B 1_555 1_555
C1B C4B 1_555 1_555
C2B C3B 1_555 1_555
C4B C5B 1_555 1_555
C11B C12B 1_555 1_555
C18B C19B 1_555 1_555

#END
