
#######################################################################
#
#                 Cambridge Crystallographic Data Centre
#                                CCDC 
#
#######################################################################
#
# If this CIF has been generated from an entry in the Cambridge 
# Structural Database, then it will include bibliographic, chemical, 
# crystal, experimental, refinement or atomic coordinate data resulting 
# from the CCDC's data processing and validation procedures.
#
#######################################################################

data_QAPPUT
_symmetry_cell_setting           triclinic
_symmetry_space_group_name_H-M   'P -1'
_symmetry_Int_Tables_number      2
_space_group_name_Hall           '-P 1'
loop_
_symmetry_equiv_pos_site_id
_symmetry_equiv_pos_as_xyz
1 x,y,z
2 -x,-y,-z
_cell_length_a                   10.3605(16)
_cell_length_b                   10.5224(16)
_cell_length_c                   15.014(2)
_cell_angle_alpha                89.979(2)
_cell_angle_beta                 76.656(2)
_cell_angle_gamma                89.980(2)
_cell_volume                     1592.6
loop_
_atom_site_label
_atom_site_type_symbol
_atom_site_fract_x
_atom_site_fract_y
_atom_site_fract_z
Ag1 Ag 0.63777(4) 0.38787(4) 0.51539(3)
Ag2 Ag 0.36222(4) -0.11213(4) -0.01539(3)
N1 N 0.3230(4) 0.1013(4) 0.0622(3)
N2 N -0.1690(4) 0.1267(4) 0.0583(3)
N3 N 0.4247(4) 0.1324(4) 0.1041(3)
N4 N 0.4264(4) 0.8037(4) 0.1140(3)
N5 N 0.5732(4) 0.3039(4) 0.3859(3)
N6 N 0.6775(4) 0.6013(4) 0.4373(3)
N7 N 1.1687(4) 0.6270(4) 0.4418(3)
N8 N 0.5748(4) 0.6326(4) 0.3959(3)
N9 N 0.2384(4) 0.1825(4) 0.1970(3)
N10 N 0.1509(6) 0.2384(7) 0.2730(4)
N11 N 0.7617(4) 0.6824(4) 0.3028(3)
N12 N 0.8487(6) 0.7405(8) 0.2277(4)
C1 C -0.1523(5) 0.0894(5) 0.1393(4)
C2 C -0.0606(5) 0.1637(5) -0.0031(4)
C3 C 0.5252(5) 0.7197(5) 0.0946(4)
C4 C 0.3900(6) 0.8443(6) 0.2001(4)
C5 C 0.0643(5) 0.1658(5) 0.0133(3)
C6 C 0.0800(4) 0.1280(5) 0.0988(3)
C7 C -0.0316(5) 0.0877(5) 0.1632(4)
C8 C 0.2119(4) 0.1336(4) 0.1194(3)
C9 C 0.3713(5) 0.1815(4) 0.1842(3)
C10 C 0.4435(5) 0.2241(5) 0.2530(3)
C11 C 0.4070(5) 0.1781(5) 0.3415(4)
C12 C 0.4751(5) 0.2195(5) 0.4047(4)
C13 C 0.6097(6) 0.3452(6) 0.2997(4)
C14 C 0.5488(6) 0.3078(6) 0.2316(4)
C15 C 0.6277(5) 0.6820(4) 0.3160(3)
C16 C 0.5570(5) 0.7243(5) 0.2466(3)
C17 C 0.5932(6) 0.6785(5) 0.1586(4)
C18 C 0.4509(6) 0.8079(6) 0.2692(4)
C19 C 1.0603(5) 0.6638(5) 0.5033(4)
C20 C 1.1528(5) 0.5891(6) 0.3608(4)
C21 C 0.7881(5) 0.6337(4) 0.3807(3)
C22 C 0.9205(5) 0.6278(4) 0.4012(3)
C23 C 0.9361(5) 0.6658(5) 0.4858(4)
C24 C 1.0327(5) 0.5886(5) 0.3367(4)
H1 H -0.234(6) 0.062(5) 0.187(4)
H2 H -0.079(6) 0.186(5) -0.064(4)
H3 H 0.554(6) 0.689(5) 0.035(4)
H4 H 0.322(6) 0.900(5) 0.213(4)
H5 H 0.136(5) 0.191(4) -0.031(3)
H6 H -0.029(6) 0.057(5) 0.221(4)
H7 H 1.023(6) 0.558(5) 0.283(4)
H8 H 0.340(7) 0.121(6) 0.358(5)
H9 H 0.443(6) 0.191(6) 0.467(5)
H10 H 0.676(6) 0.413(6) 0.285(4)
H11 H 0.574(6) 0.337(5) 0.179(4)
H12 H 0.658(6) 0.619(5) 0.144(4)
H13 H 0.422(5) 0.834(4) 0.326(4)
H14 H 1.073(6) 0.697(5) 0.558(4)
H15 H 1.225(6) 0.555(5) 0.319(4)
H16 H 0.866(6) 0.684(5) 0.526(4)
H17 H 0.118(7) 0.281(7) 0.256(5)
H18 H 0.901(7) 0.785(6) 0.252(5)
H19 H 0.103(8) 0.174(7) 0.307(6)
H20 H 0.885(7) 0.692(6) 0.213(5)
Ag1A Ag 1.36223(4) 0.61213(4) 0.48461(3)
Ag1A_2 Ag 0.36223(4) 0.61213(4) 0.48461(3)
Ag2A Ag -0.36222(4) 0.11213(4) 0.01539(3)
Ag2A_2 Ag 0.63778(4) 0.11213(4) 0.01539(3)
Ag2_2 Ag 0.36222(4) 0.88787(4) -0.01539(3)
N2A N 0.1690(4) -0.1267(4) -0.0583(3)
N3A N 0.5753(4) -0.1324(4) -0.1041(3)
N4_2 N 0.4264(4) -0.1963(4) 0.1140(3)
N7A N 0.8313(4) 0.3730(4) 0.5582(3)
N8A N 0.4252(4) 0.3674(4) 0.6041(3)
Cl1 Cl 0.76072(17) 1.01882(15) 0.41880(13)
O5 O 0.6974(7) 1.0662(7) 0.5080(4)
O6 O 0.6649(7) 0.9756(7) 0.3715(6)
O7 O 0.8444(7) 0.9174(6) 0.4234(8)
O8 O 0.8330(6) 1.1201(5) 0.3705(4)
Cl2 Cl 0.23922(17) 0.51858(15) 0.08120(13)
O1 O 0.3350(7) 0.4751(7) 0.1275(6)
O2 O 0.3023(7) 0.5658(7) -0.0072(4)
O3 O 0.1552(8) 0.4175(6) 0.0758(8)
O4 O 0.1664(6) 0.6203(5) 0.1293(4)
O9 O 0.1217(8) 0.5243(9) 0.8576(6)
H21 H 0.171(11) 0.557(11) 0.894(7)
H22 H 0.039(5) 0.555(11) 0.865(9)
O10 O 0.8758(8) 0.0232(10) 0.6408(6)
H23 H 0.964(5) 0.01(3) 0.624(18)
H24 H 0.924(6) 0.083(5) 0.661(4)
loop_
_geom_bond_atom_site_label_1
_geom_bond_atom_site_label_2
_geom_bond_site_symmetry_1
_geom_bond_site_symmetry_2
Ag1 N5 1_555 1_555
Ag2 N1 1_555 1_555
N1 N3 1_555 1_555
N2 C1 1_555 1_555
N3 C9 1_555 1_555
N4 C3 1_555 1_555
N5 C12 1_555 1_555
N6 Ag1 1_555 1_555
N7 C19 1_555 1_555
N8 N6 1_555 1_555
N9 N10 1_555 1_555
N10 H17 1_555 1_555
N11 N12 1_555 1_555
N12 H18 1_555 1_555
C1 C7 1_555 1_555
C2 N2 1_555 1_555
C3 C17 1_555 1_555
C4 N4 1_555 1_555
C5 C2 1_555 1_555
C6 C5 1_555 1_555
C7 C6 1_555 1_555
C8 N1 1_555 1_555
C9 N9 1_555 1_555
C10 C9 1_555 1_555
C11 C10 1_555 1_555
C12 C11 1_555 1_555
C13 N5 1_555 1_555
C14 C10 1_555 1_555
C15 N8 1_555 1_555
C16 C15 1_555 1_555
C17 C16 1_555 1_555
C18 C4 1_555 1_555
C19 C23 1_555 1_555
C20 N7 1_555 1_555
C21 N6 1_555 1_555
C22 C21 1_555 1_555
C23 C22 1_555 1_555
C24 C20 1_555 1_555
Cl1 O5 1_555 1_555
Cl2 O1 1_555 1_555
O2 Cl2 1_555 1_555
O3 Cl2 1_555 1_555
O4 Cl2 1_555 1_555
O6 Cl1 1_555 1_555
O7 Cl1 1_555 1_555
O8 Cl1 1_555 1_555
O9 H21 1_555 1_555
O10 H23 1_555 1_555
H1 C1 1_555 1_555
H2 C2 1_555 1_555
H3 C3 1_555 1_555
H4 C4 1_555 1_555
H5 C5 1_555 1_555
H6 C7 1_555 1_555
H7 C24 1_555 1_555
H8 C11 1_555 1_555
H9 C12 1_555 1_555
H10 C13 1_555 1_555
H11 C14 1_555 1_555
H12 C17 1_555 1_555
H13 C18 1_555 1_555
H14 C19 1_555 1_555
H15 C20 1_555 1_555
H16 C23 1_555 1_555
H19 N10 1_555 1_555
H20 N12 1_555 1_555
H22 O9 1_555 1_555
H24 O10 1_555 1_555
Ag1A N7 1_555 1_555
Ag1A_2 N8 1_555 1_555
Ag2A N2 1_555 1_555
Ag2A_2 N3 1_555 1_555
Ag2_2 N4 1_555 1_555
N2A Ag2 1_555 1_555
N3A Ag2 1_555 1_555
N4_2 Ag2 1_555 1_555
N7A Ag1 1_555 1_555
N8A Ag1 1_555 1_555
N9 C8 1_555 1_555
N11 C15 1_555 1_555
N11 C21 1_555 1_555
C6 C8 1_555 1_555
C13 C14 1_555 1_555
C16 C18 1_555 1_555
C22 C24 1_555 1_555

#END
