
#######################################################################
#
#                 Cambridge Crystallographic Data Centre
#                                CCDC 
#
#######################################################################
#
# If this CIF has been generated from an entry in the Cambridge 
# Structural Database, then it will include bibliographic, chemical, 
# crystal, experimental, refinement or atomic coordinate data resulting 
# from the CCDC's data processing and validation procedures.
#
#######################################################################

data_QAVDEW
_symmetry_cell_setting           monoclinic
_symmetry_space_group_name_H-M   'P 21/a'
_symmetry_Int_Tables_number      14
_space_group_name_Hall           '-P 2yab'
loop_
_symmetry_equiv_pos_site_id
_symmetry_equiv_pos_as_xyz
1 x,y,z
2 1/2+x,1/2-y,z
3 -x,-y,-z
4 1/2-x,1/2+y,-z
_cell_length_a                   20.666(9)
_cell_length_b                   9.905(5)
_cell_length_c                   6.685(4)
_cell_angle_alpha                90
_cell_angle_beta                 91.91(2)
_cell_angle_gamma                90
_cell_volume                     1367.64
loop_
_atom_site_label
_atom_site_type_symbol
_atom_site_fract_x
_atom_site_fract_y
_atom_site_fract_z
Cu1 Cu 0.0000 0.0000 0.0000
Cu2 Cu 0.27883(4) -0.29581(8) -0.32665(12)
O1 O 0.07324(17) 0.0896(4) 0.1410(6)
O2 O 0.20267(19) -0.2558(4) -0.0776(6)
N1 N 0.2219(2) -0.0522(5) 0.0930(7)
H1 H 0.2635 -0.0549 0.1043
N2 N 0.1848(2) 0.0536(5) 0.1676(7)
N3 N 0.1239(2) -0.1000(5) 0.0194(7)
N4 N 0.0643(2) -0.1526(5) -0.0539(7)
H2 H 0.0538 -0.2283 0.0120
H3 H 0.0655 -0.1709 -0.1855
C1 C 0.1244(2) 0.0226(6) 0.1140(8)
C2 C 0.1862(3) -0.1490(6) 0.0020(8)
O3 O 0.24605(18) -0.1307(4) -0.4644(6)
O4 O 0.42389(18) 0.0968(4) -0.2121(7)
N5 N 0.3341(2) 0.1590(5) -0.4099(8)
H4 H 0.3425 0.2432 -0.4256
N6 N 0.2789(2) 0.0958(5) -0.4961(7)
N7 N 0.3381(2) -0.0443(5) -0.3132(7)
N8 N 0.3532(2) -0.1712(5) -0.2297(7)
H5 H 0.3553 -0.1667 -0.0952
H6 H 0.3914 -0.2013 -0.2728
C3 C 0.2824(3) -0.0312(6) -0.4314(8)
C4 C 0.3720(3) 0.0759(6) -0.3014(8)
O5 O 0.0200(2) 0.1061(5) -0.3172(7)
O6 O 0.0490(3) 0.2860(6) -0.4707(10)
O7 O 0.1218(3) 0.1474(6) -0.3602(9)
N9 N 0.0628(3) 0.1803(6) -0.3819(9)
O1B O -0.07324(17) -0.0896(4) -0.1410(6)
O2B O -0.20267(19) 0.2558(4) 0.0776(6)
N1B N -0.2219(2) 0.0522(5) -0.0930(7)
H1B H -0.2635 0.0549 -0.1043
N2B N -0.1848(2) -0.0536(5) -0.1676(7)
N3B N -0.1239(2) 0.1000(5) -0.0194(7)
N4B N -0.0643(2) 0.1526(5) 0.0539(7)
H2B H -0.0538 0.2283 -0.0120
H3B H -0.0655 0.1709 0.1855
C1B C -0.1244(2) -0.0226(6) -0.1140(8)
C2B C -0.1862(3) 0.1490(6) -0.0020(8)
O5B O -0.0200(2) -0.1061(5) 0.3172(7)
O6B O -0.0490(3) -0.2860(6) 0.4707(10)
O7B O -0.1218(3) -0.1474(6) 0.3602(9)
N9B N -0.0628(3) -0.1803(6) 0.3819(9)
Cu2B Cu -0.27883(4) 0.29581(8) 0.32665(12)
O3C O 0.25395(18) -0.6307(4) -0.5356(6)
O4C O 0.07611(18) -0.4032(4) -0.7879(7)
N5C N 0.1659(2) -0.3410(5) -0.5901(8)
H4C H 0.1575 -0.2568 -0.5744
N6C N 0.2211(2) -0.4042(5) -0.5039(7)
N7C N 0.1619(2) -0.5443(5) -0.6868(7)
N8C N 0.1468(2) -0.6712(5) -0.7703(7)
H5C H 0.1447 -0.6667 -0.9048
H6C H 0.1086 -0.7013 -0.7272
C3C C 0.2176(3) -0.5312(6) -0.5686(8)
C4C C 0.1280(3) -0.4241(6) -0.6986(8)
N2C N 0.3152(2) -0.4464(5) -0.1676(7)
Cu2C Cu 0.22117(4) 0.20419(8) 0.32665(12)
Cu2C_2 Cu 0.22117(4) 0.20419(8) -0.67335(12)
Cu2A Cu -0.22117(4) -0.20419(8) -0.32665(12)
N2A N -0.3152(2) 0.4464(5) 0.1676(7)
O3B O -0.24605(18) 0.1307(4) 0.4644(6)
N6A N -0.2211(2) 0.4042(5) 0.5039(7)
N8B N -0.3532(2) 0.1712(5) 0.2297(7)
Cu2C_3 Cu 0.22117(4) -0.79581(8) -0.67335(12)
H5B H -0.3553 0.1667 0.0952
H6B H -0.3914 0.2013 0.2728
O8 O 0.0974(2) -0.1278(5) 0.5340(8)
H7 H 0.064(3) -0.118(8) 0.464(12)
H8 H 0.106(4) -0.052(4) 0.577(12)
O9 O 0.1450(2) 0.4179(8) 0.8302(8)
H9 H 0.121(4) 0.481(6) 0.808(12)
H10 H 0.139(5) 0.364(7) 0.742(12)
O10 O -0.0352(3) 0.4249(8) 0.2556(12)
H11 H -0.019(6) 0.379(17) 0.35(2)
H12 H -0.006(4) 0.476(9) 0.228(15)
loop_
_geom_bond_atom_site_label_1
_geom_bond_atom_site_label_2
_geom_bond_site_symmetry_1
_geom_bond_site_symmetry_2
Cu1 O1 1_555 1_555
Cu2 O2 1_555 1_555
O1 C1 1_555 1_555
O2 C2 1_555 1_555
N1 H1 1_555 1_555
N2 N1 1_555 1_555
N3 N4 1_555 1_555
N4 Cu1 1_555 1_555
H2 N4 1_555 1_555
H3 N4 1_555 1_555
C1 N2 1_555 1_555
C2 N1 1_555 1_555
O3 Cu2 1_555 1_555
O4 C4 1_555 1_555
N5 H4 1_555 1_555
N6 N5 1_555 1_555
N7 N8 1_555 1_555
N8 Cu2 1_555 1_555
H5 N8 1_555 1_555
H6 N8 1_555 1_555
C3 O3 1_555 1_555
C4 N5 1_555 1_555
O5 Cu1 1_555 1_555
O6 N9 1_555 1_555
O7 N9 1_555 1_555
N9 O5 1_555 1_555
O8 H7 1_555 1_555
O9 H9 1_555 1_555
O10 H11 1_555 1_555
H8 O8 1_555 1_555
H10 O9 1_555 1_555
H12 O10 1_555 1_555
O1B Cu1 1_555 1_555
O2B C2B 1_555 1_555
N1B H1B 1_555 1_555
N2B N1B 1_555 1_555
N3B N4B 1_555 1_555
N4B Cu1 1_555 1_555
H2B N4B 1_555 1_555
H3B N4B 1_555 1_555
C1B O1B 1_555 1_555
C2B N1B 1_555 1_555
O5B Cu1 1_555 1_555
O6B N9B 1_555 1_555
O7B N9B 1_555 1_555
N9B O5B 1_555 1_555
Cu2B O2B 1_555 1_555
O3C C3C 1_555 1_555
O4C C4C 1_555 1_555
N5C H4C 1_555 1_555
N6C Cu2 1_555 1_555
N7C N8C 1_555 1_555
N8C H5C 1_555 1_555
H6C N8C 1_555 1_555
C3C N6C 1_555 1_555
C4C N5C 1_555 1_555
N2C Cu2 1_555 1_555
Cu2C N2 1_555 1_555
Cu2C_2 N6 1_555 1_555
Cu2A N2B 1_555 1_555
N2A Cu2B 1_555 1_555
O3B Cu2B 1_555 1_555
N6A Cu2B 1_555 1_555
N8B Cu2B 1_555 1_555
Cu2C_3 O3C 1_555 1_555
H5B N8B 1_555 1_555
H6B N8B 1_555 1_555
N3 C2 1_555 1_555
N3 C1 1_555 1_555
N6 C3 1_555 1_555
N7 C4 1_555 1_555
N7 C3 1_555 1_555
N2B C1B 1_555 1_555
N3B C2B 1_555 1_555
N3B C1B 1_555 1_555
N5C N6C 1_555 1_555
N7C C4C 1_555 1_555
N7C C3C 1_555 1_555
N8C Cu2C_3 1_555 1_555

#END
