
#######################################################################
#
#                 Cambridge Crystallographic Data Centre
#                                CCDC 
#
#######################################################################
#
# If this CIF has been generated from an entry in the Cambridge 
# Structural Database, then it will include bibliographic, chemical, 
# crystal, experimental, refinement or atomic coordinate data resulting 
# from the CCDC's data processing and validation procedures.
#
#######################################################################

data_QAVYUJ
_symmetry_cell_setting           triclinic
_symmetry_space_group_name_H-M   'P -1'
_symmetry_Int_Tables_number      2
_space_group_name_Hall           '-P 1'
loop_
_symmetry_equiv_pos_site_id
_symmetry_equiv_pos_as_xyz
1 x,y,z
2 -x,-y,-z
_cell_length_a                   7.2918(16)
_cell_length_b                   9.340(2)
_cell_length_c                   14.129(3)
_cell_angle_alpha                83.816(3)
_cell_angle_beta                 85.461(3)
_cell_angle_gamma                72.646(3)
_cell_volume                     911.994
loop_
_atom_site_label
_atom_site_type_symbol
_atom_site_fract_x
_atom_site_fract_y
_atom_site_fract_z
La1 La 0.49383(5) 0.71445(4) 0.40404(2)
Ni1 Ni 0.5000 0.5000 0.0000
O1 O 0.3736(6) 0.6435(5) 0.1039(3)
O2 O 0.3515(6) 0.6657(5) 0.2601(3)
O3 O 0.5954(7) 0.1904(5) 0.4218(3)
O4 O 0.4775(6) 0.4370(5) 0.4208(3)
O5 O -0.1617(6) 0.5175(5) 0.4076(3)
O6 O -0.2246(6) 0.6597(5) 0.2740(3)
N1 N 0.2657(7) 0.3980(6) 0.0244(3)
H1 H 0.1627 0.4620 -0.0039
H2 H 0.2998 0.3141 -0.0066
N2 N 0.6319(7) 0.3770(6) 0.1164(3)
C1 C 0.7356(9) 0.2380(7) 0.1407(4)
H3 H 0.8064 0.1708 0.0979
N3 N 0.7254(7) 0.2064(6) 0.2350(4)
H4 H 0.7835 0.1222 0.2653
C2 C 0.6073(8) 0.3299(7) 0.2754(4)
C3 C 0.5493(8) 0.4375(7) 0.2005(4)
C4 C 0.4154(9) 0.5949(7) 0.1893(4)
C5 C 0.5559(9) 0.3188(7) 0.3789(4)
C6 C -0.1274(9) 0.5425(7) 0.3202(4)
C7 C 0.2041(8) 0.3580(7) 0.1190(4)
C8 C 0.0698(9) 0.4642(7) 0.1706(4)
H5 H 0.0105 0.5590 0.1411
C9 C 0.0238(8) 0.4291(7) 0.2662(4)
C10 C 0.1114(9) 0.2869(7) 0.3101(4)
H6 H 0.0815 0.2631 0.3740
C11 C 0.2886(8) 0.2157(7) 0.1629(4)
H7 H 0.3757 0.1435 0.1281
C12 C 0.2443(8) 0.1802(7) 0.2580(4)
C13 C 0.3407(9) 0.0273(7) 0.3066(4)
O8 O 0.2788(6) -0.0104(5) 0.3884(3)
O9 O 0.4801(7) -0.0609(5) 0.2651(3)
O12 O 0.7184(7) 0.8643(6) 0.4483(3)
H13 H 0.7342 0.8976 0.4996
H14 H 0.7304 0.9367 0.4090
O13 O 0.1487(7) 0.7094(6) 0.4519(3)
H15 H 0.1442 0.6242 0.4778
H16 H 0.0360 0.7414 0.4313
La1A La 0.50617(5) 0.28555(4) -0.40404(2)
La1A_2 La 0.50617(5) 0.28555(4) 0.59596(2)
La1_2 La -0.50617(5) 0.71445(4) 0.40404(2)
La1_3 La 0.49383(5) -0.28555(4) 0.40404(2)
La1_4 La 0.49383(5) 0.71445(4) -0.59596(2)
La1A_3 La 1.50617(5) 0.28555(4) -0.40404(2)
La1A_4 La 0.50617(5) 1.28555(4) -0.40404(2)
O1A O 0.6264(6) 0.3565(5) -0.1039(3)
O2A O 0.6485(6) 0.3343(5) -0.2601(3)
O3A O 0.4046(7) 0.8096(5) -0.4218(3)
O3A_2 O 0.4046(7) 0.8096(5) 0.5782(3)
O3_2 O 0.5954(7) 0.1904(5) -0.5782(3)
O4A O 0.5225(6) 0.5630(5) -0.4208(3)
O4A_2 O 0.5225(6) 0.5630(5) 0.5792(3)
O4_2 O 0.4775(6) 0.4370(5) -0.5792(3)
O5A O 1.1617(6) 0.4825(5) -0.4076(3)
O5_2 O 0.8383(6) 0.5175(5) 0.4076(3)
O5A_2 O 0.1617(6) 0.4825(5) -0.4076(3)
O6A O 1.2246(6) 0.3403(5) -0.2740(3)
O6_2 O 0.7754(6) 0.6597(5) 0.2740(3)
O6A_2 O 0.2246(6) 0.3403(5) -0.2740(3)
N1A N 0.7343(7) 0.6020(6) -0.0244(3)
H1A H 0.8373 0.5380 0.0039
H2A H 0.7002 0.6859 0.0066
N2A N 0.3681(7) 0.6230(6) -0.1164(3)
C1A C 0.2644(9) 0.7620(7) -0.1407(4)
H3A H 0.1936 0.8292 -0.0979
N3A N 0.2746(7) 0.7936(6) -0.2350(4)
H4A H 0.2165 0.8778 -0.2653
C2A C 0.3927(8) 0.6701(7) -0.2754(4)
C3A C 0.4507(8) 0.5625(7) -0.2005(4)
C4A C 0.5846(9) 0.4051(7) -0.1893(4)
C5A C 0.4441(9) 0.6812(7) -0.3789(4)
C6A C 1.1274(9) 0.4575(7) -0.3202(4)
C7A C 0.7959(8) 0.6420(7) -0.1190(4)
C8A C 0.9302(9) 0.5358(7) -0.1706(4)
H5A H 0.9895 0.4410 -0.1411
C9A C 0.9762(8) 0.5709(7) -0.2662(4)
C10A C 0.8886(9) 0.7131(7) -0.3101(4)
H6A H 0.9185 0.7369 -0.3740
C11A C 0.7114(8) 0.7843(7) -0.1629(4)
H7A H 0.6243 0.8565 -0.1281
C12A C 0.7557(8) 0.8198(7) -0.2580(4)
C13A C 0.6593(9) 0.9727(7) -0.3066(4)
O8A O 0.7212(6) 1.0104(5) -0.3884(3)
O8_2 O 0.2788(6) 0.9896(5) 0.3884(3)
O8A_2 O 0.7212(6) 0.0104(5) -0.3884(3)
O9A O 0.5199(7) 1.0609(5) -0.2651(3)
O9_2 O 0.4801(7) 0.9391(5) 0.2651(3)
O9A_2 O 0.5199(7) 0.0609(5) -0.2651(3)
O12A O 0.2816(7) 0.1357(6) -0.4483(3)
H13A H 0.2658 0.1024 -0.4996
H14A H 0.2696 0.0633 -0.4090
O13A O 0.8513(7) 0.2906(6) -0.4519(3)
H15A H 0.8558 0.3758 -0.4778
H16A H 0.9640 0.2586 -0.4313
O7 O 0.0513(10) 0.0989(9) 0.7397(7)
H8 H 0.0864 0.1784 0.7238
H17 H 0.049(9) 0.056(7) 0.688(4)
O10 O 0.036(2) 0.8807(16) 0.0574(11)
H9 H 0.0350 0.8769 0.1180
H10 H -0.0365 0.8397 0.0337
O11 O 0.6324(13) 0.8896(8) 0.0711(5)
H11 H 0.6830 0.9631 0.0688
H12 H 0.5324 0.9235 0.1049
loop_
_geom_bond_atom_site_label_1
_geom_bond_atom_site_label_2
_geom_bond_site_symmetry_1
_geom_bond_site_symmetry_2
La1 O2 1_555 1_555
Ni1 O1 1_555 1_555
O1 C4 1_555 1_555
O2 C4 1_555 1_555
O3 C5 1_555 1_555
O4 La1 1_555 1_555
O5 C6 1_555 1_555
O6 C6 1_555 1_555
N1 Ni1 1_555 1_555
H1 N1 1_555 1_555
H2 N1 1_555 1_555
N2 Ni1 1_555 1_555
C1 N2 1_555 1_555
H3 C1 1_555 1_555
N3 C1 1_555 1_555
H4 N3 1_555 1_555
C2 N3 1_555 1_555
C3 N2 1_555 1_555
C4 C3 1_555 1_555
C5 O4 1_555 1_555
C6 C9 1_555 1_555
C7 N1 1_555 1_555
C8 C7 1_555 1_555
H5 C8 1_555 1_555
C9 C8 1_555 1_555
C10 C9 1_555 1_555
H6 C10 1_555 1_555
C11 C7 1_555 1_555
H7 C11 1_555 1_555
C12 C10 1_555 1_555
O7 H8 1_555 1_555
C13 C12 1_555 1_555
O8 C13 1_555 1_555
O9 C13 1_555 1_555
O10 H9 1_555 1_555
H10 O10 1_555 1_555
O11 H11 1_555 1_555
H12 O11 1_555 1_555
O12 La1 1_555 1_555
H13 O12 1_555 1_555
H14 O12 1_555 1_555
O13 La1 1_555 1_555
H15 O13 1_555 1_555
H16 O13 1_555 1_555
H17 O7 1_555 1_555
La1A O2A 1_555 1_555
La1A_2 O3 1_555 1_555
La1_2 O5 1_555 1_555
La1_3 O8 1_555 1_555
La1_4 O3A 1_555 1_555
La1A_3 O5A 1_555 1_555
La1A_4 O8A 1_555 1_555
O1A Ni1 1_555 1_555
O2A C4A 1_555 1_555
O3A C5A 1_555 1_555
O3A_2 La1 1_555 1_555
O3_2 La1A 1_555 1_555
O4A La1A 1_555 1_555
O4A_2 La1 1_555 1_555
O4_2 La1A 1_555 1_555
O5A C6A 1_555 1_555
O5_2 La1 1_555 1_555
O5A_2 La1A 1_555 1_555
O6A La1A_3 1_555 1_555
O6_2 La1 1_555 1_555
O6A_2 La1A 1_555 1_555
N1A Ni1 1_555 1_555
H1A N1A 1_555 1_555
H2A N1A 1_555 1_555
N2A Ni1 1_555 1_555
C1A N2A 1_555 1_555
H3A C1A 1_555 1_555
N3A C1A 1_555 1_555
H4A N3A 1_555 1_555
C2A N3A 1_555 1_555
C3A N2A 1_555 1_555
C4A O1A 1_555 1_555
C5A O4A 1_555 1_555
C6A O6A 1_555 1_555
C7A N1A 1_555 1_555
C8A C7A 1_555 1_555
H5A C8A 1_555 1_555
C9A C6A 1_555 1_555
C10A C9A 1_555 1_555
H6A C10A 1_555 1_555
C11A C7A 1_555 1_555
H7A C11A 1_555 1_555
C12A C10A 1_555 1_555
C13A C12A 1_555 1_555
O8A C13A 1_555 1_555
O8_2 La1 1_555 1_555
O8A_2 La1A 1_555 1_555
O9A La1A_4 1_555 1_555
O9_2 La1 1_555 1_555
O9A_2 La1A 1_555 1_555
O12A La1A 1_555 1_555
H13A O12A 1_555 1_555
H14A O12A 1_555 1_555
O13A La1A 1_555 1_555
H15A O13A 1_555 1_555
H16A O13A 1_555 1_555
O4 La1A_2 1_555 1_555
O6 La1_2 1_555 1_555
C2 C3 1_555 1_555
C2 C5 1_555 1_555
C11 C12 1_555 1_555
O9 La1_3 1_555 1_555
La1A_2 O4A_2 1_555 1_555
La1_4 O4A 1_555 1_555
La1_4 O4_2 1_555 1_555
C2A C3A 1_555 1_555
C2A C5A 1_555 1_555
C3A C4A 1_555 1_555
C8A C9A 1_555 1_555
C11A C12A 1_555 1_555
C13A O9A 1_555 1_555

#END
