
#######################################################################
#
#                 Cambridge Crystallographic Data Centre
#                                CCDC 
#
#######################################################################
#
# If this CIF has been generated from an entry in the Cambridge 
# Structural Database, then it will include bibliographic, chemical, 
# crystal, experimental, refinement or atomic coordinate data resulting 
# from the CCDC's data processing and validation procedures.
#
#######################################################################

data_QEJYIP
_symmetry_cell_setting           monoclinic
_symmetry_space_group_name_H-M   'C 2/c'
_symmetry_Int_Tables_number      15
_space_group_name_Hall           '-C 2yn'
loop_
_symmetry_equiv_pos_site_id
_symmetry_equiv_pos_as_xyz
1 x,y,z
2 -x,y,1/2-z
3 1/2+x,1/2+y,z
4 1/2-x,1/2+y,1/2-z
5 -x,-y,-z
6 x,-y,1/2+z
7 1/2-x,1/2-y,-z
8 1/2+x,1/2-y,1/2+z
_cell_length_a                   22.382(3)
_cell_length_b                   10.7731(15)
_cell_length_c                   13.5326(18)
_cell_angle_alpha                90
_cell_angle_beta                 100.108(6)
_cell_angle_gamma                90
_cell_volume                     3212.38
loop_
_atom_site_label
_atom_site_type_symbol
_atom_site_fract_x
_atom_site_fract_y
_atom_site_fract_z
C1 C 0.4354(3) 0.1820(8) 0.1181(8)
H1 H 0.4433 0.2481 0.1627
C2 C 0.4838(3) 0.1267(7) 0.0845(7)
H2 H 0.5229 0.1564 0.1063
C3 C 0.3707(3) 0.0498(10) 0.0306(8)
H3 H 0.3316 0.0185 0.0130
C4 C 0.4165(3) -0.0075(10) -0.0075(8)
H4 H 0.4074 -0.0726 -0.0528
C5 C 0.4749(2) 0.0303(6) 0.0204(4)
C6 C 0.2405(3) 0.4903(6) 0.2264(5)
H5 H 0.2137 0.5096 0.1679
C7 C 0.2897(3) 0.5010(5) 0.3753(4)
C8 C 0.3083(3) 0.5529(7) 0.4770(5)
C9 C 0.3091(3) 0.3978(6) 0.3301(5)
C10 C 0.3548(4) 0.3037(8) 0.3647(6)
N1 N 0.3792(2) 0.1465(5) 0.0905(4)
N2 N 0.2767(2) 0.3912(4) 0.2348(3)
N3 N 0.2464(2) 0.5591(4) 0.3091(3)
O1 O 0.3643(3) 0.2190(5) 0.3082(4)
O2 O 0.3853(4) 0.3159(8) 0.4534(5)
O3 O 0.3510(3) 0.5039(7) 0.5345(5)
O4 O 0.2803(2) 0.6482(4) 0.4967(3)
Cd1 Cd 0.296951(16) 0.23212(3) 0.14135(3)
C1D C 0.5646(3) -0.1820(8) -0.1181(8)
H1D H 0.5567 -0.2481 -0.1627
C2D C 0.5162(3) -0.1267(7) -0.0845(7)
H2D H 0.4771 -0.1564 -0.1063
C3D C 0.6293(3) -0.0498(10) -0.0306(8)
H3D H 0.6684 -0.0185 -0.0130
C4D C 0.5835(3) 0.0075(10) 0.0075(8)
H4D H 0.5926 0.0726 0.0528
C5D C 0.5251(2) -0.0303(6) -0.0204(4)
C6C C 0.2595(3) -0.0097(6) 0.2736(5)
H5C H 0.2863 0.0096 0.3321
C7C C 0.2103(3) 0.0010(5) 0.1247(4)
C8C C 0.1917(3) 0.0529(7) 0.0230(5)
C9C C 0.1909(3) -0.1022(6) 0.1699(5)
C10C C 0.1452(4) -0.1963(8) 0.1353(6)
N1D N 0.6208(2) -0.1465(5) -0.0905(4)
N2C N 0.2233(2) -0.1088(4) 0.2652(3)
N2D N 0.7233(2) -0.3912(4) -0.2348(3)
N3C N 0.2536(2) 0.0591(4) 0.1909(3)
N3G N 0.7464(2) -0.0591(4) -0.1909(3)
O1C O 0.1357(3) -0.2810(5) 0.1918(4)
O1D O 0.6357(3) -0.2190(5) -0.3082(4)
O2C O 0.1147(4) -0.1841(8) 0.0466(5)
O3C O 0.1490(3) 0.0039(7) -0.0345(5)
O4C O 0.2197(2) 0.1482(4) 0.0033(3)
O4E O 0.2803(2) 0.3518(4) -0.0033(3)
O4G O 0.7803(2) -0.1482(4) -0.0033(3)
O4A O 0.7197(2) -0.3518(4) 0.0033(3)
Cd1D Cd 0.703049(16) -0.23212(3) -0.14135(3)
Cd1C Cd 0.203049(16) 0.73212(3) 0.35865(3)
Cd1E Cd 0.296951(16) 0.76788(3) 0.64135(3)
Cd1C_2 Cd 0.203049(16) -0.26788(3) 0.35865(3)
Cd1F Cd 0.203049(16) 0.26788(3) -0.14135(3)
C11 C 0.4769(10) 0.629(3) 0.4112(14)
C12 C 0.4395(10) 0.4855(19) 0.2746(13)
C13 C 0.4068(13) 0.711(2) 0.2780(17)
N4 N 0.4373(6) 0.6095(14) 0.3192(10)
O5 O 0.3692(14) 0.713(3) 0.196(2)
loop_
_geom_bond_atom_site_label_1
_geom_bond_atom_site_label_2
_geom_bond_site_symmetry_1
_geom_bond_site_symmetry_2
C1 H1 1_555 1_555
C2 C1 1_555 1_555
H2 C2 1_555 1_555
C3 H3 1_555 1_555
C4 C3 1_555 1_555
H4 C4 1_555 1_555
C5 C2 1_555 1_555
C6 H5 1_555 1_555
C7 C8 1_555 1_555
C8 O3 1_555 1_555
C9 C7 1_555 1_555
C10 C9 1_555 1_555
C11 N4 1_555 1_555
C12 N4 1_555 1_555
C13 N4 1_555 1_555
N1 C1 1_555 1_555
N2 C6 1_555 1_555
N3 C6 1_555 1_555
O1 C10 1_555 1_555
O2 C10 1_555 1_555
O4 C8 1_555 1_555
O5 C13 1_555 1_555
Cd1 N1 1_555 1_555
C1D H1D 1_555 1_555
C2D C1D 1_555 1_555
H2D C2D 1_555 1_555
C3D H3D 1_555 1_555
C4D C3D 1_555 1_555
H4D C4D 1_555 1_555
C5D C5 1_555 1_555
C6C H5C 1_555 1_555
C7C C8C 1_555 1_555
C8C O3C 1_555 1_555
C9C C7C 1_555 1_555
C10C C9C 1_555 1_555
N1D C1D 1_555 1_555
N2C C6C 1_555 1_555
N2D Cd1D 1_555 1_555
N3C Cd1 1_555 1_555
N3G Cd1D 1_555 1_555
O1C C10C 1_555 1_555
O1D Cd1D 1_555 1_555
O2C C10C 1_555 1_555
O4C Cd1 1_555 1_555
O4E Cd1 1_555 1_555
O4G Cd1D 1_555 1_555
O4A Cd1D 1_555 1_555
Cd1D N1D 1_555 1_555
Cd1C N3 1_555 1_555
Cd1E O4 1_555 1_555
Cd1C_2 N2C 1_555 1_555
Cd1F O4C 1_555 1_555
C3 N1 1_555 1_555
C4 C5 1_555 1_555
C7 N3 1_555 1_555
C9 N2 1_555 1_555
N2 Cd1 1_555 1_555
O1 Cd1 1_555 1_555
O4 Cd1C 1_555 1_555
C2D C5D 1_555 1_555
C3D N1D 1_555 1_555
C4D C5D 1_555 1_555
C6C N3C 1_555 1_555
C7C N3C 1_555 1_555
C8C O4C 1_555 1_555
C9C N2C 1_555 1_555
O1C Cd1C_2 1_555 1_555
O4E Cd1F 1_555 1_555

#END
