
#######################################################################
#
#                 Cambridge Crystallographic Data Centre
#                                CCDC 
#
#######################################################################
#
# If this CIF has been generated from an entry in the Cambridge 
# Structural Database, then it will include bibliographic, chemical, 
# crystal, experimental, refinement or atomic coordinate data resulting 
# from the CCDC's data processing and validation procedures.
#
#######################################################################

data_QEKLID01
_symmetry_cell_setting           triclinic
_symmetry_space_group_name_H-M   'P -1'
_symmetry_Int_Tables_number      2
_space_group_name_Hall           '-P 1'
loop_
_symmetry_equiv_pos_site_id
_symmetry_equiv_pos_as_xyz
1 x,y,z
2 -x,-y,-z
_cell_length_a                   7.87330(1)
_cell_length_b                   10.14320(1)
_cell_length_c                   13.528
_cell_angle_alpha                68.355(12)
_cell_angle_beta                 79.645(16)
_cell_angle_gamma                70.702(14)
_cell_volume                     945.689
loop_
_atom_site_label
_atom_site_type_symbol
_atom_site_fract_x
_atom_site_fract_y
_atom_site_fract_z
Cd1 Cd 0.17333(13) 1.34410(8) 0.45664(7)
Cd2 Cd 0.5000 1.0000 0.5000
O1 O 0.1161(15) 1.2839(9) 0.3138(7)
O2 O 0.2015(11) 1.0996(8) 0.4583(6)
O3 O 0.1189(12) 0.6033(8) 0.4789(6)
O4 O 0.2022(13) 0.5533(8) 0.3277(6)
O5 O 0.4194(13) 1.0286(9) -0.3454(7)
O6 O 0.2343(13) 1.2564(9) -0.3720(6)
O7 O 0.4983(13) 0.7525(9) 0.5836(7)
N1 N 0.3600(17) 0.6055(13) 0.7237(9)
C1 C 0.1602(16) 1.0423(12) 0.3093(8)
C2 C 0.1577(16) 0.8979(12) 0.3695(9)
H1 H 0.1467 0.8682 0.4435
C3 C 0.1721(15) 0.7975(12) 0.3174(9)
C4 C 0.1910(16) 0.8442(12) 0.2056(9)
H2 H 0.2025 0.7771 0.1713
C5 C 0.1931(16) 0.9877(12) 0.1449(8)
C6 C 0.1738(15) 1.0866(12) 0.1977(9)
H3 H 0.1697 1.1843 0.1581
C7 C 0.2237(16) 1.0289(12) 0.0258(9)
C8 C 0.3395(17) 0.9266(13) -0.0181(9)
H4 H 0.3977 0.8332 0.0268
C9 C 0.3719(18) 0.9592(14) -0.1284(9)
H5 H 0.4491 0.8881 -0.1566
C10 C 0.2874(16) 1.0985(12) -0.1945(9)
C11 C 0.1710(17) 1.2029(12) -0.1518(9)
H6 H 0.1127 1.2961 -0.1969
C12 C 0.1402(17) 1.1694(13) -0.0410(9)
H7 H 0.0643 1.2407 -0.0127
C13 C 0.1568(17) 1.1502(13) 0.3615(9)
C14 C 0.1621(16) 0.6454(12) 0.3759(9)
C15 C 0.3151(17) 1.1323(13) -0.3148(9)
C16 C 0.422(2) 0.7177(17) 0.6807(12)
H8 H 0.4131 0.7776 0.7206
C17 C 0.276(3) 0.572(2) 0.8346(14)
H9 H 0.2766 0.6456 0.8630
H10 H 0.3435 0.4761 0.8781
H11 H 0.1541 0.5723 0.8342
C18 C 0.368(3) 0.5035(19) 0.6697(14)
H12 H 0.4238 0.5344 0.5993
H13 H 0.2478 0.5028 0.6652
H14 H 0.4370 0.4056 0.7090
Cd1A Cd 0.82667(13) 0.65590(8) 0.54336(7)
Cd1A_2 Cd -0.17333(13) 0.65590(8) 0.54336(7)
Cd1_2 Cd 0.17333(13) 0.34410(8) 0.45664(7)
Cd1_3 Cd 0.17333(13) 1.34410(8) -0.54336(7)
Cd1_4 Cd 1.17333(13) 1.34410(8) 0.45664(7)
Cd1A_3 Cd 0.82667(13) 1.65590(8) 0.54336(7)
Cd1A_4 Cd 0.82667(13) 0.65590(8) 1.54336(7)
Cd2_2 Cd 0.5000 1.0000 -0.5000
Cd2_3 Cd 0.5000 1.0000 1.5000
O1A O 0.8839(15) 0.7161(9) 0.6862(7)
O2A O 0.7985(11) 0.9004(8) 0.5417(6)
O3A O 0.8811(12) 1.3967(8) 0.5211(6)
O3A_2 O -0.1189(12) 1.3967(8) 0.5211(6)
O3_2 O 1.1189(12) 0.6033(8) 0.4789(6)
O4A O 0.7978(13) 1.4467(8) 0.6723(6)
O4_2 O 0.2022(13) 1.5533(8) 0.3277(6)
O4A_2 O 0.7978(13) 0.4467(8) 0.6723(6)
O5A O 0.5806(13) 0.9714(9) 1.3454(7)
O5_2 O 0.4194(13) 1.0286(9) 0.6546(7)
O5A_2 O 0.5806(13) 0.9714(9) 0.3454(7)
O6A O 0.7657(13) 0.7436(9) 1.3720(6)
O6_2 O 0.2343(13) 1.2564(9) 0.6280(6)
O6A_2 O 0.7657(13) 0.7436(9) 0.3720(6)
O7A O 0.5017(13) 1.2475(9) 0.4164(7)
N1A N 0.6400(17) 1.3945(13) 0.2763(9)
C1A C 0.8398(16) 0.9577(12) 0.6907(8)
C2A C 0.8423(16) 1.1021(12) 0.6305(9)
H1A H 0.8533 1.1318 0.5565
C3A C 0.8279(15) 1.2025(12) 0.6826(9)
C4A C 0.8090(16) 1.1558(12) 0.7944(9)
H2A H 0.7975 1.2229 0.8287
C5A C 0.8069(16) 1.0123(12) 0.8551(8)
C6A C 0.8262(15) 0.9134(12) 0.8023(9)
H3A H 0.8303 0.8157 0.8419
C7A C 0.7763(16) 0.9711(12) 0.9742(9)
C8A C 0.6605(17) 1.0734(13) 1.0181(9)
H4A H 0.6023 1.1668 0.9732
C9A C 0.6281(18) 1.0408(14) 1.1284(9)
H5A H 0.5509 1.1119 1.1566
C10A C 0.7126(16) 0.9015(12) 1.1945(9)
C11A C 0.8290(17) 0.7971(12) 1.1518(9)
H6A H 0.8873 0.7039 1.1969
C12A C 0.8598(17) 0.8306(13) 1.0410(9)
H7A H 0.9357 0.7593 1.0127
C13A C 0.8432(17) 0.8498(13) 0.6385(9)
C14A C 0.8379(16) 1.3546(12) 0.6241(9)
C15A C 0.6849(17) 0.8677(13) 1.3148(9)
C16A C 0.578(2) 1.2823(17) 0.3193(12)
H8A H 0.5869 1.2224 0.2794
C17A C 0.724(3) 1.428(2) 0.1654(14)
H9A H 0.7234 1.3544 0.1370
H10A H 0.6565 1.5239 0.1219
H11A H 0.8459 1.4277 0.1658
C18A C 0.632(3) 1.4965(19) 0.3303(14)
H12A H 0.5762 1.4656 0.4007
H13A H 0.7522 1.4972 0.3348
H14A H 0.5630 1.5944 0.2910
O8 O 0.246(4) 0.487(2) 0.1232(16)
H15 H 0.2594 0.3979 0.1640
H16 H 0.2382 0.5099 0.0568
loop_
_geom_bond_atom_site_label_1
_geom_bond_atom_site_label_2
_geom_bond_site_symmetry_1
_geom_bond_site_symmetry_2
Cd1 O1 1_555 1_555
Cd2 O2 1_555 1_555
O1 C13 1_555 1_555
O2 Cd1 1_555 1_555
O3 C14 1_555 1_555
O4 C14 1_555 1_555
O5 C15 1_555 1_555
O6 C15 1_555 1_555
O7 Cd2 1_555 1_555
N1 C16 1_555 1_555
C1 C2 1_555 1_555
C2 H1 1_555 1_555
C3 C2 1_555 1_555
C4 C3 1_555 1_555
H2 C4 1_555 1_555
C5 C4 1_555 1_555
C6 C1 1_555 1_555
H3 C6 1_555 1_555
C7 C5 1_555 1_555
C8 C7 1_555 1_555
H4 C8 1_555 1_555
C9 C8 1_555 1_555
H5 C9 1_555 1_555
C10 C9 1_555 1_555
C11 C10 1_555 1_555
H6 C11 1_555 1_555
C12 C7 1_555 1_555
H7 C12 1_555 1_555
C13 O2 1_555 1_555
C14 C3 1_555 1_555
C15 C10 1_555 1_555
C16 O7 1_555 1_555
H8 C16 1_555 1_555
C17 N1 1_555 1_555
H9 C17 1_555 1_555
H10 C17 1_555 1_555
H11 C17 1_555 1_555
C18 N1 1_555 1_555
H12 C18 1_555 1_555
H13 C18 1_555 1_555
H14 C18 1_555 1_555
O8 H15 1_555 1_555
H16 O8 1_555 1_555
Cd1A O7 1_555 1_555
Cd1A_2 O3 1_555 1_555
Cd1_2 O4 1_555 1_555
Cd1_3 O6 1_555 1_555
Cd1_4 O3A 1_555 1_555
Cd1A_3 O4A 1_555 1_555
Cd1A_4 O6A 1_555 1_555
Cd2_2 O5 1_555 1_555
Cd2_3 O5A 1_555 1_555
O1A Cd1A 1_555 1_555
O2A Cd2 1_555 1_555
O3A C14A 1_555 1_555
O3A_2 Cd1 1_555 1_555
O3_2 Cd1A 1_555 1_555
O4A C14A 1_555 1_555
O4_2 Cd1 1_555 1_555
O4A_2 Cd1A 1_555 1_555
O5A C15A 1_555 1_555
O5_2 Cd2 1_555 1_555
O5A_2 Cd2 1_555 1_555
O6A C15A 1_555 1_555
O6_2 Cd1 1_555 1_555
O6A_2 Cd1A 1_555 1_555
O7A Cd1 1_555 1_555
N1A C16A 1_555 1_555
C1A C2A 1_555 1_555
C2A H1A 1_555 1_555
C3A C2A 1_555 1_555
C4A C3A 1_555 1_555
H2A C4A 1_555 1_555
C5A C4A 1_555 1_555
C6A C1A 1_555 1_555
H3A C6A 1_555 1_555
C7A C5A 1_555 1_555
C8A C7A 1_555 1_555
H4A C8A 1_555 1_555
C9A C8A 1_555 1_555
H5A C9A 1_555 1_555
C10A C9A 1_555 1_555
C11A C10A 1_555 1_555
H6A C11A 1_555 1_555
C12A C7A 1_555 1_555
H7A C12A 1_555 1_555
C13A O1A 1_555 1_555
C14A C3A 1_555 1_555
C15A C10A 1_555 1_555
C16A O7A 1_555 1_555
H8A C16A 1_555 1_555
C17A N1A 1_555 1_555
H9A C17A 1_555 1_555
H10A C17A 1_555 1_555
H11A C17A 1_555 1_555
C18A N1A 1_555 1_555
H12A C18A 1_555 1_555
H13A C18A 1_555 1_555
H14A C18A 1_555 1_555
Cd2 O7A 1_555 1_555
C1 C13 1_555 1_555
C5 C6 1_555 1_555
C11 C12 1_555 1_555
Cd1A O2A 1_555 1_555
O2A C13A 1_555 1_555
C1A C13A 1_555 1_555
C5A C6A 1_555 1_555
C11A C12A 1_555 1_555

#END
