
#######################################################################
#
#                 Cambridge Crystallographic Data Centre
#                                CCDC 
#
#######################################################################
#
# If this CIF has been generated from an entry in the Cambridge 
# Structural Database, then it will include bibliographic, chemical, 
# crystal, experimental, refinement or atomic coordinate data resulting 
# from the CCDC's data processing and validation procedures.
#
#######################################################################

data_QESYOD
_symmetry_cell_setting           rhombohedral
_symmetry_space_group_name_H-M   'R -3'
_symmetry_Int_Tables_number      148
_space_group_name_Hall           '-R 3'
loop_
_symmetry_equiv_pos_site_id
_symmetry_equiv_pos_as_xyz
1 x,y,z
2 -y,x-y,z
3 -x+y,-x,z
4 2/3+x,1/3+y,1/3+z
5 2/3-y,1/3+x-y,1/3+z
6 2/3-x+y,1/3-x,1/3+z
7 1/3+x,2/3+y,2/3+z
8 1/3-y,2/3+x-y,2/3+z
9 1/3-x+y,2/3-x,2/3+z
10 -x,-y,-z
11 y,-x+y,-z
12 x-y,x,-z
13 1/3-x,2/3-y,2/3-z
14 1/3+y,2/3-x+y,2/3-z
15 1/3+x-y,2/3+x,2/3-z
16 2/3-x,1/3-y,1/3-z
17 2/3+y,1/3-x+y,1/3-z
18 2/3+x-y,1/3+x,1/3-z
_cell_length_a                   26.064(2)
_cell_length_b                   26.064(2)
_cell_length_c                   19.398(2)
_cell_angle_alpha                90
_cell_angle_beta                 90
_cell_angle_gamma                120.00
_cell_volume                     11412.2
loop_
_atom_site_label
_atom_site_type_symbol
_atom_site_fract_x
_atom_site_fract_y
_atom_site_fract_z
Cu1 Cu 0.34842(2) 0.01542(2) 0.08246(2)
Cu2 Cu 0.333002(19) -0.01540(2) -0.08247(2)
I1 I 0.261390(11) -0.000006(11) 0.000004(13)
I2 I 0.333340(11) -0.071380(11) 0.166650(14)
N1 N 0.35038(13) 0.08373(13) 0.13695(14)
N2 N 0.31632(13) 0.06667(12) 0.19606(15)
N3 N 0.40001(12) -0.01760(13) -0.02940(15)
N4 N 0.41755(13) 0.01748(13) 0.02943(15)
C1 C 0.36792(15) 0.13620(15) 0.10863(17)
C2 C 0.35085(15) 0.17544(15) 0.13725(18)
C3 C 0.29892(15) 0.10160(15) 0.22441(17)
C4 C 0.26231(17) 0.08298(16) 0.28933(19)
H1 H 0.2376 0.0406 0.2900
H2 H 0.2886 0.0943 0.3282
C5 C 0.22323(17) 0.11169(16) 0.29580(19)
C6 C 0.40429(16) 0.15409(15) 0.04412(19)
H3 H 0.3778 0.1393 0.0054
H4 H 0.4289 0.1363 0.0430
C7 C 0.17472(19) 0.08722(19) 0.2407(2)
H5 H 0.1507 0.1054 0.2453
H6 H 0.1926 0.0953 0.1958
H7 H 0.1506 0.0450 0.2457
C8 C 0.19586(19) 0.09792(19) 0.3679(2)
H8 H 0.1718 0.0558 0.3734
H9 H 0.2265 0.1132 0.4023
H10 H 0.1719 0.1159 0.3741
C9 C 0.43362(15) -0.03719(15) -0.05623(18)
C10 C 0.49023(15) -0.01927(15) -0.02816(17)
C11 C 0.47077(15) 0.03732(15) 0.05612(18)
C12 C 0.49015(16) 0.07802(17) 0.11652(19)
H11 H 0.5069 0.1180 0.1000
H12 H 0.4561 0.0694 0.1440
C13 C 0.53734(16) 0.07424(18) 0.16224(18)
C14 C 0.41231(16) -0.07790(16) -0.11672(19)
H13 H 0.3867 -0.0695 -0.1441
H14 H 0.3894 -0.1178 -0.1000
C15 C 0.50822(19) 0.0164(2) 0.2028(2)
H15 H 0.4744 0.0126 0.2271
H16 H 0.4955 -0.0166 0.1719
H17 H 0.5356 0.0156 0.2353
C16 C 0.56336(19) 0.1268(2) 0.2117(2)
H18 H 0.5817 0.1625 0.1848
H19 H 0.5330 0.1267 0.2398
H20 H 0.5927 0.1263 0.2411
Cu1O Cu 0.31825(2) 0.31791(2) 0.25087(2)
Cu1I Cu 0.65158(2) -0.01542(2) -0.08246(2)
Cu2E Cu 0.318265(28) 0.000331(19) 0.25086(2)
Cu2K Cu 0.348402(28) 0.333002(19) 0.08247(2)
Cu2I Cu 0.666998(19) 0.01540(2) 0.08247(2)
Cu2O Cu 0.333665(19) 0.34873(2) 0.41580(2)
I1O I 0.405277(11) 0.333339(11) 0.333329(13)
I1E I 0.405271(16) 0.071943(11) 0.333337(13)
I2G I 0.404713(11) 0.071387(16) -0.166683(14)
I2O I 0.333327(11) 0.404713(11) 0.166683(14)
N1O N 0.31629(13) 0.24960(13) 0.19638(14)
N2O N 0.35035(13) 0.26666(12) 0.13727(15)
N2G N 0.26666(12) -0.08368(18) -0.13727(15)
N3I N 0.59999(12) 0.01760(13) 0.02940(15)
N3E N 0.24906(18) -0.06668(12) 0.30393(15)
N4I N 0.58245(13) -0.01748(13) -0.02943(15)
N4O N 0.24912(13) 0.31585(13) 0.30390(15)
C1O C 0.29875(15) 0.19713(15) 0.22470(17)
C2O C 0.31582(15) 0.15789(15) 0.19608(18)
C3O C 0.36775(15) 0.23173(15) 0.10892(17)
C4O C 0.40436(17) 0.25035(16) 0.04400(19)
H1O H 0.4291 0.2927 0.0433
H2O H 0.3781 0.2390 0.0051
C5O C 0.44344(17) 0.22164(16) 0.03753(19)
C6O C 0.26238(16) 0.17924(15) 0.28921(19)
H3O H 0.2889 0.1940 0.3279
H4O H 0.2378 0.1970 0.2903
C7O C 0.49195(19) 0.24611(19) 0.0926(2)
H5O H 0.5160 0.2279 0.0880
H6O H 0.4741 0.2380 0.1375
H7O H 0.5161 0.2883 0.0876
C8O C 0.47081(19) 0.23541(19) -0.0346(2)
H8O H 0.4949 0.2775 -0.0401
H9O H 0.4402 0.2201 -0.0690
H10O H 0.4948 0.2174 -0.0408
C9I C 0.56638(15) 0.03719(15) 0.05623(18)
C10I C 0.50977(15) 0.01927(15) 0.02816(17)
C11I C 0.52923(15) -0.03732(15) -0.05612(18)
C12I C 0.50985(16) -0.07802(17) -0.11652(19)
H11I H 0.4931 -0.1180 -0.1000
H12I H 0.5439 -0.0694 -0.1440
C13I C 0.46266(16) -0.07424(18) -0.16224(18)
C14I C 0.58769(16) 0.07790(16) 0.11672(19)
H13I H 0.6133 0.0695 0.1441
H14I H 0.6106 0.1178 0.1000
C15I C 0.49178(19) -0.0164(2) -0.2028(2)
H15I H 0.5256 -0.0126 -0.2271
H16I H 0.5045 0.0166 -0.1719
H17I H 0.4644 -0.0156 -0.2353
C16I C 0.43664(19) -0.1268(2) -0.2117(2)
H18I H 0.4183 -0.1625 -0.1848
H19I H 0.4670 -0.1267 -0.2398
H20I H 0.4073 -0.1263 -0.2411
N5 N 0.5911(3) 0.1825(3) 0.0066(3)
C17 C 0.5882(2) 0.1762(3) -0.0501(3)
C18 C 0.5844(3) 0.1688(4) -0.1248(4)
N6 N 0.6667 0.3333 -0.0787(14)
C19 C 0.6667 0.3333 -0.0181(13)
C20 C 0.6667 0.3333 0.0515(9)
loop_
_geom_bond_atom_site_label_1
_geom_bond_atom_site_label_2
_geom_bond_site_symmetry_1
_geom_bond_site_symmetry_2
Cu1 I1 1_555 1_555
Cu2 I1 1_555 1_555
I2 Cu1 1_555 1_555
N1 Cu1 1_555 1_555
N2 N1 1_555 1_555
N3 Cu2 1_555 1_555
N4 Cu1 1_555 1_555
C1 N1 1_555 1_555
C2 C1 1_555 1_555
C3 N2 1_555 1_555
C4 C3 1_555 1_555
H1 C4 1_555 1_555
H2 C4 1_555 1_555
C5 C4 1_555 1_555
C6 C1 1_555 1_555
H3 C6 1_555 1_555
H4 C6 1_555 1_555
C7 C5 1_555 1_555
H5 C7 1_555 1_555
H6 C7 1_555 1_555
H7 C7 1_555 1_555
C8 C5 1_555 1_555
H8 C8 1_555 1_555
H9 C8 1_555 1_555
H10 C8 1_555 1_555
C9 N3 1_555 1_555
C10 C9 1_555 1_555
C11 N4 1_555 1_555
C12 C11 1_555 1_555
H11 C12 1_555 1_555
H12 C12 1_555 1_555
C13 C12 1_555 1_555
C14 C9 1_555 1_555
H13 C14 1_555 1_555
H14 C14 1_555 1_555
C15 C13 1_555 1_555
H15 C15 1_555 1_555
H16 C15 1_555 1_555
H17 C15 1_555 1_555
C16 C13 1_555 1_555
H18 C16 1_555 1_555
H19 C16 1_555 1_555
H20 C16 1_555 1_555
N5 C17 1_555 1_555
C17 C18 1_555 1_555
N6 C19 1_555 1_555
C19 C20 1_555 1_555
Cu1O I1O 1_555 1_555
Cu1I N4I 1_555 1_555
Cu2E I2 1_555 1_555
Cu2K I2O 1_555 1_555
Cu2I N3I 1_555 1_555
Cu2O I1O 1_555 1_555
I1E Cu2E 1_555 1_555
I2G Cu2 1_555 1_555
I2O Cu1O 1_555 1_555
N1O Cu1O 1_555 1_555
N2O Cu2K 1_555 1_555
N2G Cu2 1_555 1_555
N3I N4I 1_555 1_555
N3E Cu2E 1_555 1_555
N4I C11I 1_555 1_555
N4O Cu1O 1_555 1_555
C1O N1O 1_555 1_555
C2O C2 1_555 1_555
C3O C2 1_555 1_555
C4O C3O 1_555 1_555
H1O C4O 1_555 1_555
H2O C4O 1_555 1_555
C5O C6 1_555 1_555
C6O C5 1_555 1_555
H3O C6O 1_555 1_555
H4O C6O 1_555 1_555
C7O C5O 1_555 1_555
H5O C7O 1_555 1_555
H6O C7O 1_555 1_555
H7O C7O 1_555 1_555
C8O C5O 1_555 1_555
H8O C8O 1_555 1_555
H9O C8O 1_555 1_555
H10O C8O 1_555 1_555
C9I N3I 1_555 1_555
C10I C10 1_555 1_555
C11I C10 1_555 1_555
C12I C11I 1_555 1_555
H11I C12I 1_555 1_555
H12I C12I 1_555 1_555
C13I C14 1_555 1_555
C14I C13 1_555 1_555
H13I C14I 1_555 1_555
H14I C14I 1_555 1_555
C15I C13I 1_555 1_555
H15I C15I 1_555 1_555
H16I C15I 1_555 1_555
H17I C15I 1_555 1_555
C16I C13I 1_555 1_555
H18I C16I 1_555 1_555
H19I C16I 1_555 1_555
H20I C16I 1_555 1_555
N2 Cu2E 1_555 1_555
N3 N4 1_555 1_555
C3 C2O 1_555 1_555
C11 C10I 1_555 1_555
N1O N2O 1_555 1_555
N2O C3O 1_555 1_555
C1O C2O 1_555 1_555
C1O C6O 1_555 1_555
C4O C5O 1_555 1_555
C9I C10I 1_555 1_555
C9I C14I 1_555 1_555
C12I C13I 1_555 1_555

#END
