
#######################################################################
#
#                 Cambridge Crystallographic Data Centre
#                                CCDC 
#
#######################################################################
#
# If this CIF has been generated from an entry in the Cambridge 
# Structural Database, then it will include bibliographic, chemical, 
# crystal, experimental, refinement or atomic coordinate data resulting 
# from the CCDC's data processing and validation procedures.
#
#######################################################################

data_QEVNIP
_symmetry_cell_setting           monoclinic
_symmetry_space_group_name_H-M   'C 2/c'
_symmetry_Int_Tables_number      15
_space_group_name_Hall           '-C 2yn'
loop_
_symmetry_equiv_pos_site_id
_symmetry_equiv_pos_as_xyz
1 x,y,z
2 1/2+x,1/2+y,z
3 -x,y,1/2-z
4 1/2-x,1/2+y,1/2-z
5 -x,-y,-z
6 1/2-x,1/2-y,-z
7 x,-y,1/2+z
8 1/2+x,1/2-y,1/2+z
_cell_length_a                   17.863(3)
_cell_length_b                   9.5560(14)
_cell_length_c                   20.131(3)
_cell_angle_alpha                90
_cell_angle_beta                 102.040(3)
_cell_angle_gamma                90
_cell_volume                     3360.75
loop_
_atom_site_label
_atom_site_type_symbol
_atom_site_fract_x
_atom_site_fract_y
_atom_site_fract_z
C1 C 0.5686(4) 0.7177(10) 0.8778(4)
C2 C 0.6073(5) 0.7174(10) 0.9511(4)
C3 C 0.6468(5) 0.8323(9) 0.9803(4)
H1 H 0.6501 0.9137 0.9540
C4 C 0.6820(5) 0.8289(10) 1.0488(5)
H2 H 0.7112 0.9073 1.0684
C5 C 0.6758(5) 0.7171(10) 1.0878(5)
H3 H 0.6994 0.7177 1.1346
C6 C 0.6353(5) 0.6025(10) 1.0597(5)
H4 H 0.6307 0.5236 1.0873
C7 C 0.6008(5) 0.6013(9) 0.9911(5)
H5 H 0.5729 0.5214 0.9716
C8 C 0.3682(4) 0.7218(10) 0.7863(4)
C9 C 0.2942(4) 0.7224(9) 0.8097(4)
C10 C 0.2659(5) 0.8457(9) 0.8311(4)
H6 H 0.2922 0.9314 0.8286
C11 C 0.1996(5) 0.8442(10) 0.8559(4)
H7 H 0.1805 0.9288 0.8709
C12 C 0.1609(5) 0.7197(10) 0.8592(4)
H8 H 0.1161 0.7181 0.8777
C13 C 0.1874(5) 0.5991(9) 0.8358(4)
H9 H 0.1598 0.5144 0.8367
C14 C 0.2533(5) 0.5984(9) 0.8110(4)
H10 H 0.2710 0.5139 0.7947
C15 C 0.5336(4) 1.1485(9) 0.7073(4)
H11 H 0.5577 1.1011 0.6759
C16 C 0.5339(4) 1.2906(9) 0.7082(4)
H12 H 0.5591 1.3395 0.6781
N1 N 0.5000 1.0717(10) 0.7500
N2 N 0.5000 1.3635(10) 0.7500
O1 O 0.5566(3) 0.8361(6) 0.8490(3)
O2 O 0.5501(3) 0.6004(6) 0.8499(3)
O3 O 0.3991(3) 0.8387(6) 0.7798(3)
O4 O 0.3958(3) 0.6022(5) 0.7759(3)
Rh1 Rh 0.5000 0.84515(10) 0.7500
Rh2 Rh 0.5000 1.59494(9) 0.7500
C1B C 0.4314(4) 0.7177(10) 0.6222(4)
C2B C 0.3927(5) 0.7174(10) 0.5489(4)
C3B C 0.3532(5) 0.8323(9) 0.5197(4)
H1B H 0.3499 0.9137 0.5460
C4B C 0.3180(5) 0.8289(10) 0.4512(5)
H2B H 0.2888 0.9073 0.4316
C5B C 0.3242(5) 0.7171(10) 0.4122(5)
H3B H 0.3006 0.7177 0.3654
C6B C 0.3647(5) 0.6025(10) 0.4403(5)
H4B H 0.3693 0.5236 0.4127
C7B C 0.3992(5) 0.6013(9) 0.5089(5)
H5B H 0.4271 0.5214 0.5284
C8B C 0.6318(4) 0.7218(10) 0.7137(4)
C9B C 0.7058(4) 0.7224(9) 0.6903(4)
C10B C 0.7341(5) 0.8457(9) 0.6689(4)
H6B H 0.7078 0.9314 0.6714
C11B C 0.8004(5) 0.8442(10) 0.6441(4)
H7B H 0.8195 0.9288 0.6291
C12B C 0.8391(5) 0.7197(10) 0.6408(4)
H8B H 0.8839 0.7181 0.6223
C13B C 0.8126(5) 0.5991(9) 0.6642(4)
H9B H 0.8402 0.5144 0.6633
C14B C 0.7467(5) 0.5984(9) 0.6890(4)
H10B H 0.7290 0.5139 0.7053
C15B C 0.4664(4) 1.1485(9) 0.7927(4)
H11B H 0.4423 1.1011 0.8241
C16B C 0.4661(4) 1.2906(9) 0.7918(4)
H12B H 0.4409 1.3395 0.8219
O1B O 0.4434(3) 0.8361(6) 0.6510(3)
O2B O 0.4499(3) 0.6004(6) 0.6501(3)
O2_2 O 0.5501(3) 1.6004(6) 0.8499(3)
O2B_2 O 0.4499(3) 1.6004(6) 0.6501(3)
O3B O 0.6009(3) 0.8387(6) 0.7202(3)
O4B O 0.6042(3) 0.6022(5) 0.7241(3)
O4_2 O 0.3958(3) 1.6022(5) 0.7759(3)
O4B_2 O 0.6042(3) 1.6022(5) 0.7241(3)
Rh1_2 Rh 0.5000 1.84515(10) 0.7500
Rh2_2 Rh 0.5000 0.59494(9) 0.7500
N3 N 0.4738(6) 0.9221(10) 0.9936(6)
O5 O 0.4396(5) 0.9085(8) 0.9361(4)
O6 O 0.4800(5) 0.8513(9) 1.0443(4)
N3D N 0.5262(6) 1.0779(10) 1.0064(6)
O5D O 0.5604(5) 1.0915(8) 1.0639(4)
O6D O 0.5200(5) 1.1487(9) 0.9557(4)
loop_
_geom_bond_atom_site_label_1
_geom_bond_atom_site_label_2
_geom_bond_site_symmetry_1
_geom_bond_site_symmetry_2
C1 C2 1_555 1_555
C2 C3 1_555 1_555
C3 H1 1_555 1_555
C4 C3 1_555 1_555
H2 C4 1_555 1_555
C5 C4 1_555 1_555
H3 C5 1_555 1_555
C6 C5 1_555 1_555
H4 C6 1_555 1_555
C7 C2 1_555 1_555
H5 C7 1_555 1_555
C8 C9 1_555 1_555
C9 C10 1_555 1_555
C10 H6 1_555 1_555
C11 C10 1_555 1_555
H7 C11 1_555 1_555
C12 C11 1_555 1_555
H8 C12 1_555 1_555
C13 C12 1_555 1_555
H9 C13 1_555 1_555
C14 C9 1_555 1_555
H10 C14 1_555 1_555
C15 H11 1_555 1_555
C16 C15 1_555 1_555
H12 C16 1_555 1_555
N1 C15 1_555 1_555
N2 C16 1_555 1_555
N3 O5 1_555 1_555
O1 C1 1_555 1_555
O2 C1 1_555 1_555
O3 C8 1_555 1_555
O4 C8 1_555 1_555
O6 N3 1_555 1_555
Rh1 N1 1_555 1_555
Rh2 N2 1_555 1_555
C1B C2B 1_555 1_555
C2B C3B 1_555 1_555
C3B H1B 1_555 1_555
C4B C3B 1_555 1_555
H2B C4B 1_555 1_555
C5B C4B 1_555 1_555
H3B C5B 1_555 1_555
C6B C5B 1_555 1_555
H4B C6B 1_555 1_555
C7B C2B 1_555 1_555
H5B C7B 1_555 1_555
C8B C9B 1_555 1_555
C9B C10B 1_555 1_555
C10B H6B 1_555 1_555
C11B C10B 1_555 1_555
H7B C11B 1_555 1_555
C12B C11B 1_555 1_555
H8B C12B 1_555 1_555
C13B C12B 1_555 1_555
H9B C13B 1_555 1_555
C14B C9B 1_555 1_555
H10B C14B 1_555 1_555
C15B N1 1_555 1_555
H11B C15B 1_555 1_555
C16B N2 1_555 1_555
H12B C16B 1_555 1_555
N3D N3 1_555 1_555
O1B Rh1 1_555 1_555
O2B C1B 1_555 1_555
O2_2 Rh2 1_555 1_555
O2B_2 Rh2 1_555 1_555
O3B Rh1 1_555 1_555
O4B C8B 1_555 1_555
O4_2 Rh2 1_555 1_555
O4B_2 Rh2 1_555 1_555
O5D N3D 1_555 1_555
O6D N3D 1_555 1_555
Rh1_2 Rh2 1_555 1_555
Rh2_2 O2 1_555 1_555
C6 C7 1_555 1_555
C13 C14 1_555 1_555
O1 Rh1 1_555 1_555
O3 Rh1 1_555 1_555
O4 Rh2_2 1_555 1_555
Rh1 Rh2_2 1_555 1_555
C1B O1B 1_555 1_555
C6B C7B 1_555 1_555
C8B O3B 1_555 1_555
C13B C14B 1_555 1_555
C15B C16B 1_555 1_555
O2B Rh2_2 1_555 1_555
O4B Rh2_2 1_555 1_555

#END
