
#######################################################################
#
#                 Cambridge Crystallographic Data Centre
#                                CCDC 
#
#######################################################################
#
# If this CIF has been generated from an entry in the Cambridge 
# Structural Database, then it will include bibliographic, chemical, 
# crystal, experimental, refinement or atomic coordinate data resulting 
# from the CCDC's data processing and validation procedures.
#
#######################################################################

data_QEVNAH
_symmetry_cell_setting           triclinic
_symmetry_space_group_name_H-M   'P -1'
_symmetry_Int_Tables_number      2
_space_group_name_Hall           '-P 1'
loop_
_symmetry_equiv_pos_site_id
_symmetry_equiv_pos_as_xyz
1 x,y,z
2 -x,-y,-z
_cell_length_a                   9.566(3)
_cell_length_b                   10.319(4)
_cell_length_c                   10.819(4)
_cell_angle_alpha                72.039(7)
_cell_angle_beta                 65.147(7)
_cell_angle_gamma                62.977(6)
_cell_volume                     854.103
loop_
_atom_site_label
_atom_site_type_symbol
_atom_site_fract_x
_atom_site_fract_y
_atom_site_fract_z
C1 C 0.5497(18) 0.6296(17) 0.2467(15)
C2 C 0.570(2) 0.710(2) 0.1014(18)
C3 C 0.684(3) 0.770(2) 0.039(2)
H1 H 0.7516 0.7631 0.0842
C4 C 0.700(3) 0.847(2) -0.097(2)
H2 H 0.7745 0.8943 -0.1391
C5 C 0.611(3) 0.851(3) -0.164(2)
H3 H 0.6232 0.8997 -0.2537
C6 C 0.507(3) 0.787(3) -0.106(2)
H4 H 0.4443 0.7909 -0.1545
C7 C 0.482(3) 0.710(2) 0.030(2)
H5 H 0.4080 0.6621 0.0691
C8 C 0.6696(15) 0.2428(14) 0.4238(14)
C9 C 0.7683(18) 0.0918(15) 0.3823(15)
C10 C 0.9392(19) 0.0300(17) 0.3557(16)
H6 H 0.9914 0.0804 0.3673
C11 C 1.031(2) -0.1054(19) 0.3123(18)
H7 H 1.1456 -0.1468 0.2936
C12 C 0.950(2) -0.1800(19) 0.2966(18)
H8 H 1.0120 -0.2710 0.2660
C13 C 0.785(2) -0.1220(17) 0.3250(17)
H9 H 0.7332 -0.1741 0.3158
C14 C 0.692(2) 0.0142(16) 0.3678(15)
H10 H 0.5772 0.0538 0.3869
C15 C 1.0023(17) 0.4368(14) 0.4101(13)
H11 H 1.0086 0.3935 0.3432
C16 C 1.1430(16) 0.4307(14) 0.4144(13)
H12 H 1.2438 0.3779 0.3542
N1 N 0.8554(14) 0.5019(11) 0.4971(11)
O1 O 0.6588(12) 0.6030(11) 0.3001(10)
O2 O 0.4256(12) 0.5939(11) 0.3028(10)
O3 O 0.7473(10) 0.3043(9) 0.4375(9)
O4 O 0.5186(11) 0.2930(10) 0.4396(10)
Rh1 Rh 0.62333(11) 0.50462(11) 0.49799(12)
C1A C 0.4503(18) 0.3704(17) 0.7533(15)
C2A C 0.430(2) 0.290(2) 0.8986(18)
C3A C 0.316(3) 0.230(2) 0.961(2)
H1A H 0.2484 0.2369 0.9158
C4A C 0.300(3) 0.153(2) 1.097(2)
H2A H 0.2255 0.1057 1.1391
C5A C 0.389(3) 0.149(3) 1.164(2)
H3A H 0.3768 0.1003 1.2537
C6A C 0.493(3) 0.213(3) 1.106(2)
H4A H 0.5557 0.2091 1.1545
C7A C 0.518(3) 0.290(2) 0.970(2)
H5A H 0.5920 0.3379 0.9309
C8A C 0.3304(15) 0.7572(14) 0.5762(14)
C9A C 0.2317(18) 0.9082(15) 0.6177(15)
C10A C 0.0608(19) 0.9700(17) 0.6443(16)
H6A H 0.0086 0.9196 0.6327
C11A C -0.031(2) 1.1054(19) 0.6877(18)
H7A H -0.1456 1.1468 0.7064
C12A C 0.050(2) 1.1800(19) 0.7034(18)
H8A H -0.0120 1.2710 0.7340
C13A C 0.215(2) 1.1220(17) 0.6750(17)
H9A H 0.2668 1.1741 0.6842
C14A C 0.308(2) 0.9858(16) 0.6322(15)
H10A H 0.4228 0.9462 0.6131
C15A C 0.9977(17) 0.5632(14) 0.5899(13)
H11A H 0.9914 0.6065 0.6568
C16A C 0.8570(16) 0.5693(14) 0.5856(13)
H12A H 0.7562 0.6221 0.6458
N1A N 1.1446(14) 0.4981(11) 0.5029(11)
O1A O 0.3412(12) 0.3970(11) 0.6999(10)
O1A_2 O 1.3412(12) 0.3970(11) 0.6999(10)
O2A O 0.5744(12) 0.4061(11) 0.6972(10)
O2_2 O 1.4256(12) 0.5939(11) 0.3028(10)
O3A O 0.2527(10) 0.6957(9) 0.5625(9)
O3A_2 O 1.2527(10) 0.6957(9) 0.5625(9)
O4A O 0.4814(11) 0.7070(10) 0.5604(10)
O4_2 O 1.5186(11) 0.2930(10) 0.4396(10)
Rh1A Rh 1.37667(11) 0.49538(11) 0.50201(12)
Rh1A_2 Rh 0.37667(11) 0.49538(11) 0.50201(12)
Rh1_2 Rh 1.62333(11) 0.50462(11) 0.49799(12)
N2 N 0.893(11) 0.355(9) 0.037(8)
N3 N 0.832(11) 0.327(8) 0.037(7)
loop_
_geom_bond_atom_site_label_1
_geom_bond_atom_site_label_2
_geom_bond_site_symmetry_1
_geom_bond_site_symmetry_2
C1 C2 1_555 1_555
C2 C3 1_555 1_555
C3 H1 1_555 1_555
C4 C3 1_555 1_555
H2 C4 1_555 1_555
C5 C4 1_555 1_555
H3 C5 1_555 1_555
C6 C5 1_555 1_555
H4 C6 1_555 1_555
C7 C2 1_555 1_555
H5 C7 1_555 1_555
C8 C9 1_555 1_555
C9 C10 1_555 1_555
C10 H6 1_555 1_555
C11 C10 1_555 1_555
H7 C11 1_555 1_555
C12 C11 1_555 1_555
H8 C12 1_555 1_555
C13 C12 1_555 1_555
H9 C13 1_555 1_555
C14 C9 1_555 1_555
H10 C14 1_555 1_555
C15 H11 1_555 1_555
C16 C15 1_555 1_555
H12 C16 1_555 1_555
N1 C15 1_555 1_555
N2 N3 1_555 1_555
O1 C1 1_555 1_555
O2 C1 1_555 1_555
O3 C8 1_555 1_555
O4 C8 1_555 1_555
Rh1 N1 1_555 1_555
C1A C2A 1_555 1_555
C2A C3A 1_555 1_555
C3A H1A 1_555 1_555
C4A C3A 1_555 1_555
H2A C4A 1_555 1_555
C5A C4A 1_555 1_555
H3A C5A 1_555 1_555
C6A C5A 1_555 1_555
H4A C6A 1_555 1_555
C7A C2A 1_555 1_555
H5A C7A 1_555 1_555
C8A C9A 1_555 1_555
C9A C10A 1_555 1_555
C10A H6A 1_555 1_555
C11A C10A 1_555 1_555
H7A C11A 1_555 1_555
C12A C11A 1_555 1_555
H8A C12A 1_555 1_555
C13A C12A 1_555 1_555
H9A C13A 1_555 1_555
C14A C9A 1_555 1_555
H10A C14A 1_555 1_555
C15A H11A 1_555 1_555
C16A N1 1_555 1_555
H12A C16A 1_555 1_555
N1A C16 1_555 1_555
O1A C1A 1_555 1_555
O1A_2 Rh1A 1_555 1_555
O2A Rh1 1_555 1_555
O2_2 Rh1A 1_555 1_555
O3A C8A 1_555 1_555
O3A_2 Rh1A 1_555 1_555
O4A Rh1 1_555 1_555
O4_2 Rh1A 1_555 1_555
Rh1A N1A 1_555 1_555
Rh1A_2 O2 1_555 1_555
Rh1_2 Rh1A 1_555 1_555
C6 C7 1_555 1_555
C13 C14 1_555 1_555
O1 Rh1 1_555 1_555
O3 Rh1 1_555 1_555
O4 Rh1A_2 1_555 1_555
Rh1 Rh1A_2 1_555 1_555
C1A O2A 1_555 1_555
C6A C7A 1_555 1_555
C8A O4A 1_555 1_555
C13A C14A 1_555 1_555
C15A C16A 1_555 1_555
C15A N1A 1_555 1_555
O1A Rh1A_2 1_555 1_555
O3A Rh1A_2 1_555 1_555

#END
