
#######################################################################
#
#                 Cambridge Crystallographic Data Centre
#                                CCDC 
#
#######################################################################
#
# If this CIF has been generated from an entry in the Cambridge 
# Structural Database, then it will include bibliographic, chemical, 
# crystal, experimental, refinement or atomic coordinate data resulting 
# from the CCDC's data processing and validation procedures.
#
#######################################################################

data_QEYDOO
_symmetry_cell_setting           triclinic
_symmetry_space_group_name_H-M   'P -1'
_symmetry_Int_Tables_number      2
_space_group_name_Hall           '-P 1'
loop_
_symmetry_equiv_pos_site_id
_symmetry_equiv_pos_as_xyz
1 x,y,z
2 -x,-y,-z
_cell_length_a                   9.532(3)
_cell_length_b                   10.212(4)
_cell_length_c                   10.562(4)
_cell_angle_alpha                73.187(8)
_cell_angle_beta                 64.869(7)
_cell_angle_gamma                63.491(7)
_cell_volume                     826.601
loop_
_atom_site_label
_atom_site_type_symbol
_atom_site_fract_x
_atom_site_fract_y
_atom_site_fract_z
C1 C 0.5454(12) 0.6289(12) 0.2409(12)
C2 C 0.5676(13) 0.7095(13) 0.0969(12)
C3 C 0.6734(14) 0.7842(14) 0.0383(13)
H1 H 0.7349 0.7836 0.0897
C4 C 0.6916(15) 0.8612(14) -0.0962(14)
H2 H 0.7659 0.9124 -0.1375
C5 C 0.6005(15) 0.8624(15) -0.1689(15)
H3 H 0.6111 0.9164 -0.2601
C6 C 0.4935(15) 0.7861(14) -0.1116(13)
H4 H 0.4337 0.7854 -0.1639
C7 C 0.4755(14) 0.7116(14) 0.0221(13)
H5 H 0.4002 0.6613 0.0639
C8 C 0.6767(12) 0.2397(12) 0.4198(11)
C9 C 0.7762(13) 0.0883(12) 0.3785(12)
C10 C 0.9483(14) 0.0285(13) 0.3531(13)
H6 H 0.9996 0.0843 0.3631
C11 C 1.0427(15) -0.1105(14) 0.3137(14)
H7 H 1.1593 -0.1507 0.2968
C12 C 0.9704(15) -0.1918(13) 0.2987(14)
H8 H 1.0376 -0.2869 0.2690
C13 C 0.7999(15) -0.1365(13) 0.3263(13)
H9 H 0.7496 -0.1942 0.3178
C14 C 0.7023(14) 0.0051(13) 0.3670(12)
H10 H 0.5852 0.0438 0.3866
C15 C 1.0027(13) 0.4369(12) 0.4033(12)
H11 H 1.0103 0.3912 0.3328
C16 C 1.1488(13) 0.4291(12) 0.4110(12)
H12 H 1.2532 0.3768 0.3462
N1 N 0.8528(11) 0.5068(10) 0.4926(11)
O1 O 0.6531(9) 0.6064(8) 0.2945(8)
O2 O 0.4237(9) 0.5875(8) 0.3012(8)
O3 O 0.7506(9) 0.3071(8) 0.4310(8)
O4 O 0.5217(9) 0.2891(8) 0.4369(8)
Rh1 Rh 0.62257(11) 0.50831(11) 0.49646(11)
C1A C 0.4546(12) 0.3711(12) 0.7591(12)
C2A C 0.4324(13) 0.2905(13) 0.9031(12)
C3A C 0.3266(14) 0.2158(14) 0.9617(13)
H1A H 0.2651 0.2164 0.9103
C4A C 0.3084(15) 0.1388(14) 1.0962(14)
H2A H 0.2341 0.0876 1.1375
C5A C 0.3995(15) 0.1376(15) 1.1689(15)
H3A H 0.3889 0.0836 1.2601
C6A C 0.5065(15) 0.2139(14) 1.1116(13)
H4A H 0.5663 0.2146 1.1639
C7A C 0.5245(14) 0.2884(14) 0.9779(13)
H5A H 0.5998 0.3387 0.9361
C8A C 0.3233(12) 0.7603(12) 0.5802(11)
C9A C 0.2238(13) 0.9117(12) 0.6215(12)
C10A C 0.0517(14) 0.9715(13) 0.6469(13)
H6A H 0.0004 0.9157 0.6369
C11A C -0.0427(15) 1.1105(14) 0.6863(14)
H7A H -0.1593 1.1507 0.7032
C12A C 0.0296(15) 1.1918(13) 0.7013(14)
H8A H -0.0376 1.2869 0.7310
C13A C 0.2001(15) 1.1365(13) 0.6737(13)
H9A H 0.2504 1.1942 0.6822
C14A C 0.2977(14) 0.9949(13) 0.6330(12)
H10A H 0.4148 0.9562 0.6134
C15A C 0.9973(13) 0.5631(12) 0.5967(12)
H11A H 0.9897 0.6088 0.6672
C16A C 0.8512(13) 0.5709(12) 0.5890(12)
H12A H 0.7468 0.6232 0.6538
N1A N 1.1472(11) 0.4932(10) 0.5074(11)
O1A O 0.3469(9) 0.3936(8) 0.7055(8)
O1A_2 O 1.3469(9) 0.3936(8) 0.7055(8)
O2A O 0.5763(9) 0.4125(8) 0.6988(8)
O2_2 O 1.4237(9) 0.5875(8) 0.3012(8)
O3A O 0.2494(9) 0.6929(8) 0.5690(8)
O3A_2 O 1.2494(9) 0.6929(8) 0.5690(8)
O4A O 0.4783(9) 0.7109(8) 0.5631(8)
O4_2 O 1.5217(9) 0.2891(8) 0.4369(8)
Rh1A Rh 1.37743(11) 0.49169(11) 0.50354(11)
Rh1A_2 Rh 0.37743(11) 0.49169(11) 0.50354(11)
Rh1_2 Rh 1.62257(11) 0.50831(11) 0.49646(11)
N2 N 0.887(3) 0.387(3) 0.000(3)
N3 N 0.853(3) 0.337(2) 0.073(2)
N4 N 1.039(9) 0.014(9) 0.005(9)
N4A N 0.961(9) -0.014(9) -0.005(9)
loop_
_geom_bond_atom_site_label_1
_geom_bond_atom_site_label_2
_geom_bond_site_symmetry_1
_geom_bond_site_symmetry_2
C1 C2 1_555 1_555
C2 C3 1_555 1_555
C3 H1 1_555 1_555
C4 C3 1_555 1_555
H2 C4 1_555 1_555
C5 C4 1_555 1_555
H3 C5 1_555 1_555
C6 C5 1_555 1_555
H4 C6 1_555 1_555
C7 C2 1_555 1_555
H5 C7 1_555 1_555
C8 C9 1_555 1_555
C9 C10 1_555 1_555
C10 H6 1_555 1_555
C11 C10 1_555 1_555
H7 C11 1_555 1_555
C12 C11 1_555 1_555
H8 C12 1_555 1_555
C13 C12 1_555 1_555
H9 C13 1_555 1_555
C14 C9 1_555 1_555
H10 C14 1_555 1_555
C15 H11 1_555 1_555
C16 C15 1_555 1_555
H12 C16 1_555 1_555
N1 C15 1_555 1_555
N2 N3 1_555 1_555
N4 N4A 1_555 1_555
O1 C1 1_555 1_555
O2 C1 1_555 1_555
O3 C8 1_555 1_555
O4 C8 1_555 1_555
Rh1 N1 1_555 1_555
C1A C2A 1_555 1_555
C2A C3A 1_555 1_555
C3A H1A 1_555 1_555
C4A C3A 1_555 1_555
H2A C4A 1_555 1_555
C5A C4A 1_555 1_555
H3A C5A 1_555 1_555
C6A C5A 1_555 1_555
H4A C6A 1_555 1_555
C7A C2A 1_555 1_555
H5A C7A 1_555 1_555
C8A C9A 1_555 1_555
C9A C10A 1_555 1_555
C10A H6A 1_555 1_555
C11A C10A 1_555 1_555
H7A C11A 1_555 1_555
C12A C11A 1_555 1_555
H8A C12A 1_555 1_555
C13A C12A 1_555 1_555
H9A C13A 1_555 1_555
C14A C9A 1_555 1_555
H10A C14A 1_555 1_555
C15A H11A 1_555 1_555
C16A N1 1_555 1_555
H12A C16A 1_555 1_555
N1A C16 1_555 1_555
O1A C1A 1_555 1_555
O1A_2 Rh1A 1_555 1_555
O2A Rh1 1_555 1_555
O2_2 Rh1A 1_555 1_555
O3A C8A 1_555 1_555
O3A_2 Rh1A 1_555 1_555
O4A Rh1 1_555 1_555
O4_2 Rh1A 1_555 1_555
Rh1A N1A 1_555 1_555
Rh1A_2 O2 1_555 1_555
Rh1_2 Rh1A 1_555 1_555
C6 C7 1_555 1_555
C13 C14 1_555 1_555
O1 Rh1 1_555 1_555
O3 Rh1 1_555 1_555
O4 Rh1A_2 1_555 1_555
Rh1 Rh1A_2 1_555 1_555
C1A O2A 1_555 1_555
C6A C7A 1_555 1_555
C8A O4A 1_555 1_555
C13A C14A 1_555 1_555
C15A C16A 1_555 1_555
C15A N1A 1_555 1_555
O1A Rh1A_2 1_555 1_555
O3A Rh1A_2 1_555 1_555

#END
