
#######################################################################
#
#                 Cambridge Crystallographic Data Centre
#                                CCDC 
#
#######################################################################
#
# If this CIF has been generated from an entry in the Cambridge 
# Structural Database, then it will include bibliographic, chemical, 
# crystal, experimental, refinement or atomic coordinate data resulting 
# from the CCDC's data processing and validation procedures.
#
#######################################################################

data_QEYMIR01
_symmetry_cell_setting           monoclinic
_symmetry_space_group_name_H-M   'P 21/c'
_symmetry_Int_Tables_number      14
_space_group_name_Hall           '-P 2ybc'
loop_
_symmetry_equiv_pos_site_id
_symmetry_equiv_pos_as_xyz
1 x,y,z
2 -x,1/2+y,1/2-z
3 -x,-y,-z
4 x,1/2-y,1/2+z
_cell_length_a                   11.696(2)
_cell_length_b                   7.6918(15)
_cell_length_c                   7.0963(14)
_cell_angle_alpha                90
_cell_angle_beta                 90.81(3)
_cell_angle_gamma                90
_cell_volume                     638.343
loop_
_atom_site_label
_atom_site_type_symbol
_atom_site_fract_x
_atom_site_fract_y
_atom_site_fract_z
O1 O 0.1212(2) 0.2464(4) 0.4074(4)
Ag1 Ag -0.07176(3) 0.33409(4) 0.13280(5)
O2 O 0.0512(2) 0.4922(4) 0.2897(4)
O3 O 0.2963(3) 0.1441(3) 0.5677(4)
H1 H 0.2369 0.1786 0.5177
C1 C 0.1214(3) 0.4101(5) 0.3869(5)
N1 N 0.2146(3) 0.6892(4) 0.4839(4)
O4 O 0.4510(2) 0.2632(4) 0.6959(4)
N2 N 0.3696(3) 0.5961(4) 0.6282(4)
H2 H 0.4341 0.5982 0.6881
C2 C 0.3117(3) 0.4517(4) 0.5744(5)
C3 C 0.3095(3) 0.7349(5) 0.5723(5)
H3 H 0.3319 0.8494 0.5933
C4 C 0.2148(3) 0.5087(5) 0.4841(5)
C5 C 0.3586(3) 0.2760(5) 0.6169(5)
Ag1A Ag 0.07176(3) 0.83409(4) 0.36720(5)
O2A O -0.0512(2) -0.0078(4) 0.2103(4)
N1A N -0.2146(3) 0.1892(4) 0.0161(4)
loop_
_geom_bond_atom_site_label_1
_geom_bond_atom_site_label_2
_geom_bond_site_symmetry_1
_geom_bond_site_symmetry_2
O1 C1 1_555 1_555
Ag1 O2 1_555 1_555
O2 C1 1_555 1_555
O3 H1 1_555 1_555
C1 C4 1_555 1_555
N1 C3 1_555 1_555
O4 C5 1_555 1_555
N2 H2 1_555 1_555
C2 N2 1_555 1_555
C3 N2 1_555 1_555
H3 C3 1_555 1_555
C4 N1 1_555 1_555
C5 O3 1_555 1_555
Ag1A O2 1_555 1_555
O2A Ag1 1_555 1_555
N1A Ag1 1_555 1_555
N1 Ag1A 1_555 1_555
C2 C4 1_555 1_555
C2 C5 1_555 1_555

#END
