
#######################################################################
#
#                 Cambridge Crystallographic Data Centre
#                                CCDC 
#
#######################################################################
#
# If this CIF has been generated from an entry in the Cambridge 
# Structural Database, then it will include bibliographic, chemical, 
# crystal, experimental, refinement or atomic coordinate data resulting 
# from the CCDC's data processing and validation procedures.
#
#######################################################################

data_QEYWUN
_symmetry_cell_setting           orthorhombic
_symmetry_space_group_name_H-M   'P b c a'
_symmetry_Int_Tables_number      61
_space_group_name_Hall           '-P 2ac 2ab'
loop_
_symmetry_equiv_pos_site_id
_symmetry_equiv_pos_as_xyz
1 x,y,z
2 1/2-x,-y,1/2+z
3 -x,1/2+y,1/2-z
4 1/2+x,1/2-y,-z
5 -x,-y,-z
6 1/2+x,y,1/2-z
7 x,1/2-y,1/2+z
8 1/2-x,1/2+y,z
_cell_length_a                   10.0936(11)
_cell_length_b                   12.5108(13)
_cell_length_c                   15.1721(16)
_cell_angle_alpha                90
_cell_angle_beta                 90
_cell_angle_gamma                90
_cell_volume                     1915.92
loop_
_atom_site_label
_atom_site_type_symbol
_atom_site_fract_x
_atom_site_fract_y
_atom_site_fract_z
Cd1 Cd 1.0000 0.5000 0.0000
O1 O 1.2224(2) 0.44711(17) 0.03088(16)
O2 O 1.2407(2) 0.56712(18) 0.13873(15)
N1 N 1.4589(2) 0.34956(19) 0.07968(17)
N2 N 1.5513(4) 0.3588(2) 0.01464(19)
N3 N 1.4877(2) 0.1882(2) 0.0310(2)
N4 N 1.4115(2) 0.43017(18) 0.21923(16)
N5 N 1.3126(3) 0.3712(2) 0.25654(17)
N6 N 1.4392(3) 0.4490(2) 0.35944(17)
C1 C 1.5641(4) 0.2601(3) -0.0124(2)
H1 H 1.6211 0.2407 -0.0579
C2 C 1.4237(3) 0.2489(2) 0.0884(2)
H2 H 1.3625 0.2238 0.1293
C3 C 1.4152(3) 0.4465(2) 0.12448(19)
H3 H 1.4813 0.5020 0.1126
C4 C 1.2790(3) 0.4904(2) 0.0945(2)
C5 C 1.4839(3) 0.4760(3) 0.2811(3)
H4 H 1.5558 0.5208 0.2708
C6 C 1.3350(3) 0.3839(3) 0.3406(2)
H5 H 1.2841 0.3511 0.3840
Cd1G Cd 1.5000 0.0000 0.0000
Cd1E Cd 1.5000 0.5000 0.5000
Cd1G_2 Cd 0.5000 1.0000 0.0000
Cd1E_2 Cd 0.5000 0.5000 -0.5000
O1D O 0.7776(2) 0.55289(17) -0.03088(16)
O2D O 0.7593(2) 0.43288(18) -0.13873(15)
N1D N 0.5411(2) 0.65044(19) -0.07968(17)
N2D N 0.4487(4) 0.6412(2) -0.01464(19)
N3D N 0.5123(2) 0.8118(2) -0.0310(2)
N3G N 1.0123(2) 0.6882(2) 0.0310(2)
N3C N 0.9877(2) 0.3118(2) -0.0310(2)
N4D N 0.5885(2) 0.56983(18) -0.21923(16)
N5D N 0.6874(3) 0.6288(2) -0.25654(17)
N6D N 0.5608(3) 0.5510(2) -0.35944(17)
N6E N 0.9392(3) 0.4490(2) 0.14056(17)
N6A N 1.0608(3) 0.5510(2) -0.14056(17)
C1D C 0.4359(4) 0.7399(3) 0.0124(2)
H1D H 0.3789 0.7593 0.0579
C2D C 0.5763(3) 0.7511(2) -0.0884(2)
H2D H 0.6375 0.7762 -0.1293
C3D C 0.5848(3) 0.5535(2) -0.12448(19)
H3D H 0.5187 0.4980 -0.1126
C4D C 0.7210(3) 0.5096(2) -0.0945(2)
C5D C 0.5161(3) 0.5240(3) -0.2811(3)
H4D H 0.4442 0.4792 -0.2708
C6D C 0.6650(3) 0.6161(3) -0.3406(2)
H5D H 0.7159 0.6489 -0.3840
O3 O 0.3255(3) 0.3834(3) 0.8586(2)
H6 H 0.3118 0.3933 0.9133
H7 H 0.2623 0.3557 0.8294
O4 O 0.3990(6) 0.7077(4) 0.2440(4)
loop_
_geom_bond_atom_site_label_1
_geom_bond_atom_site_label_2
_geom_bond_site_symmetry_1
_geom_bond_site_symmetry_2
Cd1 O1 1_555 1_555
O1 C4 1_555 1_555
O2 C4 1_555 1_555
N1 N2 1_555 1_555
N2 C1 1_555 1_555
N3 C1 1_555 1_555
N4 N5 1_555 1_555
N5 C6 1_555 1_555
N6 C5 1_555 1_555
C1 H1 1_555 1_555
C2 N1 1_555 1_555
H2 C2 1_555 1_555
C3 N1 1_555 1_555
H3 C3 1_555 1_555
C4 C3 1_555 1_555
C5 N4 1_555 1_555
H4 C5 1_555 1_555
C6 N6 1_555 1_555
H5 C6 1_555 1_555
O3 H6 1_555 1_555
H7 O3 1_555 1_555
Cd1G N3 1_555 1_555
Cd1E N6 1_555 1_555
Cd1G_2 N3D 1_555 1_555
Cd1E_2 N6D 1_555 1_555
O1D Cd1 1_555 1_555
O2D C4D 1_555 1_555
N1D N2D 1_555 1_555
N2D C1D 1_555 1_555
N3D C1D 1_555 1_555
N3G Cd1 1_555 1_555
N3C Cd1 1_555 1_555
N4D N5D 1_555 1_555
N5D C6D 1_555 1_555
N6D C5D 1_555 1_555
N6E Cd1 1_555 1_555
N6A Cd1 1_555 1_555
C1D H1D 1_555 1_555
C2D N1D 1_555 1_555
H2D C2D 1_555 1_555
C3D N1D 1_555 1_555
H3D C3D 1_555 1_555
C4D O1D 1_555 1_555
C5D N4D 1_555 1_555
H4D C5D 1_555 1_555
C6D N6D 1_555 1_555
H5D C6D 1_555 1_555
N3 C2 1_555 1_555
N4 C3 1_555 1_555
N3D C2D 1_555 1_555
N4D C3D 1_555 1_555
C3D C4D 1_555 1_555

#END
