
#######################################################################
#
#                 Cambridge Crystallographic Data Centre
#                                CCDC 
#
#######################################################################
#
# If this CIF has been generated from an entry in the Cambridge 
# Structural Database, then it will include bibliographic, chemical, 
# crystal, experimental, refinement or atomic coordinate data resulting 
# from the CCDC's data processing and validation procedures.
#
#######################################################################

data_QEZZIF
_symmetry_cell_setting           orthorhombic
_symmetry_space_group_name_H-M   'I b a m'
_symmetry_Int_Tables_number      72
_space_group_name_Hall           '-I 2 2c'
loop_
_symmetry_equiv_pos_site_id
_symmetry_equiv_pos_as_xyz
1 x,y,z
2 1/2+x,1/2+y,1/2+z
3 1/2+x,1/2-y,-z
4 1/2-x,1/2+y,-z
5 -x,-y,z
6 x,-y,1/2-z
7 -x,y,1/2-z
8 1/2-x,1/2-y,1/2+z
9 -x,-y,-z
10 1/2-x,1/2-y,1/2-z
11 1/2-x,1/2+y,z
12 1/2+x,1/2-y,z
13 x,y,-z
14 -x,y,1/2+z
15 x,-y,1/2+z
16 1/2+x,1/2+y,1/2-z
_cell_length_a                   11.419(2)
_cell_length_b                   24.830(4)
_cell_length_c                   30.005(4)
_cell_angle_alpha                90
_cell_angle_beta                 90
_cell_angle_gamma                90
_cell_volume                     8507.43
loop_
_atom_site_label
_atom_site_type_symbol
_atom_site_fract_x
_atom_site_fract_y
_atom_site_fract_z
W1 W 0.06351(2) 0.158180(10) 0.0000
W2 W 0.5000 0.369710(10) 0.2500
Cu1 Cu 0.28393(4) 0.24852(2) 0.131960(10)
Cu2 Cu 0.0000 0.0000 0.11350(2)
O1 O 0.2105(4) -0.0202(2) 0.1155(2)
N1 N 0.2138(2) 0.20166(12) 0.08611(10)
N2 N -0.1376(3) 0.19507(13) 0.07270(11)
N3 N 0.0175(3) 0.05606(12) 0.06784(10)
N4 N 0.3075(5) 0.0877(2) 0.0000
N5 N 0.0658(6) 0.2908(2) 0.0000
N6 N 0.3561(2) 0.29565(12) 0.17714(10)
N7 N 0.1928(2) 0.19531(13) 0.18789(11)
N8 N 0.0210(3) 0.05362(12) 0.16097(11)
N9 N 0.7505(4) 0.4332(2) 0.26444(17)
N10 N 0.1377(2) 0.29605(12) 0.13046(10)
N11 N -0.0678(2) 0.29747(12) 0.13141(10)
C1 C 0.1638(2) 0.18469(12) 0.05650(11)
C2 C -0.0732(3) 0.18128(14) 0.04572(11)
C3 C 0.0313(3) 0.09121(13) 0.04401(11)
C4 C 0.2238(5) 0.1121(2) 0.0000
C5 C 0.0635(5) 0.2454(2) 0.0000
C6 C 0.4049(2) 0.32045(13) 0.20317(11)
C7 C 0.1273(3) 0.17346(13) 0.21012(11)
C8 C 0.0158(3) 0.08034(14) 0.19172(12)
C9 C 0.6623(3) 0.41204(16) 0.25862(12)
C10 C -0.0660(4) 0.35111(17) 0.13067(19)
C11 C 0.0384(4) 0.37851(19) 0.1293(2)
C12 C 0.1395(4) 0.34977(17) 0.12931(17)
C13 C 0.0346(2) 0.27237(13) 0.13112(11)
H1 H -0.1377 0.3706 0.1311
H2 H 0.0399 0.4168 0.1285
H3 H 0.2125 0.3681 0.1285
H4 H 0.0335 0.2341 0.1314
W2K W 0.0000 0.130290(10) 0.2500
W2J W 0.0000 -0.130290(10) 0.2500
W2L W 0.5000 0.369710(10) -0.2500
W2B W 0.0000 0.130290(10) -0.2500
Cu1L Cu 0.28393(4) 0.24852(2) -0.131960(10)
Cu1K Cu -0.21607(4) 0.25148(2) 0.131960(10)
Cu1B Cu -0.21607(4) 0.25148(2) -0.131960(10)
Cu1K_2 Cu 0.78393(4) 0.25148(2) 0.131960(10)
Cu2L Cu 0.0000 0.0000 -0.11350(2)
O1D O -0.2105(4) 0.0202(2) 0.1155(2)
N1L N 0.2138(2) 0.20166(12) -0.08611(10)
N2L N -0.1376(3) 0.19507(13) -0.07270(11)
N2K N 0.3624(3) 0.30493(13) 0.07270(11)
N2B N 0.3624(3) 0.30493(13) -0.07270(11)
N3L N 0.0175(3) 0.05606(12) -0.06784(10)
N3D N -0.0175(3) -0.05606(12) 0.06784(10)
N6L N 0.3561(2) 0.29565(12) -0.17714(10)
N7L N 0.1928(2) 0.19531(13) -0.18789(11)
N8D N -0.0210(3) -0.05362(12) 0.16097(11)
N9F N 0.2495(4) 0.4332(2) 0.23556(17)
N10K N 0.6377(2) 0.20395(12) 0.13046(10)
N10L N 0.1377(2) 0.29605(12) -0.13046(10)
N11K N 0.4322(2) 0.20253(12) 0.13141(10)
N11B N 0.4322(2) 0.20253(12) -0.13141(10)
C1L C 0.1638(2) 0.18469(12) -0.05650(11)
C2L C -0.0732(3) 0.18128(14) -0.04572(11)
C3L C 0.0313(3) 0.09121(13) -0.04401(11)
C6L C 0.4049(2) 0.32045(13) -0.20317(11)
C6F C 0.5951(2) 0.32045(13) 0.29683(11)
C7L C 0.1273(3) 0.17346(13) -0.21012(11)
C7K C 0.6273(3) 0.32654(13) 0.21012(11)
C7I C 0.3727(3) 0.32654(13) 0.28988(11)
C8D C -0.0158(3) -0.08034(14) 0.19172(12)
C8K C 0.5158(3) 0.41966(14) 0.19172(12)
C8I C 0.4842(3) 0.41966(14) 0.30828(12)
C9F C 0.3377(3) 0.41204(16) 0.24138(12)
C10K C 0.4340(4) 0.14889(17) 0.13067(19)
C11K C 0.5384(4) 0.12149(19) 0.1293(2)
C12K C 0.6395(4) 0.15023(17) 0.12931(17)
C13K C 0.5346(2) 0.22763(13) 0.13112(11)
H1K H 0.3623 0.1294 0.1311
H2K H 0.5399 0.0832 0.1285
H3K H 0.7125 0.1319 0.1285
H4K H 0.5335 0.2659 0.1314
O2 O 0.5672(11) 0.0945(3) 0.0000
O3 O 0.6316(14) 0.0129(5) 0.0530(4)
O4 O 0.3791(7) 0.0170(3) 0.1799(2)
O5 O 0.5000 0.1906(15) 0.2500
O6 O 0.5000 0.089(3) 0.2500
loop_
_geom_bond_atom_site_label_1
_geom_bond_atom_site_label_2
_geom_bond_site_symmetry_1
_geom_bond_site_symmetry_2
W1 C1 1_555 1_555
W2 C6 1_555 1_555
Cu1 N1 1_555 1_555
Cu2 O1 1_555 1_555
N1 C1 1_555 1_555
N2 C2 1_555 1_555
N3 Cu2 1_555 1_555
N4 C4 1_555 1_555
N5 C5 1_555 1_555
N6 Cu1 1_555 1_555
N7 Cu1 1_555 1_555
N8 Cu2 1_555 1_555
N9 C9 1_555 1_555
N10 Cu1 1_555 1_555
N11 C10 1_555 1_555
C2 W1 1_555 1_555
C3 W1 1_555 1_555
C4 W1 1_555 1_555
C5 W1 1_555 1_555
C6 N6 1_555 1_555
C7 N7 1_555 1_555
C8 N8 1_555 1_555
C9 W2 1_555 1_555
C10 C11 1_555 1_555
C11 C12 1_555 1_555
C12 N10 1_555 1_555
C13 N10 1_555 1_555
H1 C10 1_555 1_555
H2 C11 1_555 1_555
H3 C12 1_555 1_555
H4 C13 1_555 1_555
W2K C7 1_555 1_555
W2J C8D 1_555 1_555
W2L C6L 1_555 1_555
W2B C7L 1_555 1_555
Cu1L N1L 1_555 1_555
Cu1K N2 1_555 1_555
Cu1B N2L 1_555 1_555
Cu1K_2 N10K 1_555 1_555
Cu2L N3L 1_555 1_555
O1D Cu2 1_555 1_555
N1L C1L 1_555 1_555
N2L C2L 1_555 1_555
N2K Cu1 1_555 1_555
N2B Cu1L 1_555 1_555
N3L C3L 1_555 1_555
N3D Cu2 1_555 1_555
N6L Cu1L 1_555 1_555
N7L Cu1L 1_555 1_555
N8D Cu2 1_555 1_555
N9F C9F 1_555 1_555
N10K C12K 1_555 1_555
N10L Cu1L 1_555 1_555
N11K Cu1 1_555 1_555
N11B Cu1L 1_555 1_555
C1L W1 1_555 1_555
C2L W1 1_555 1_555
C3L W1 1_555 1_555
C6L N6L 1_555 1_555
C6F W2 1_555 1_555
C7L N7L 1_555 1_555
C7K W2 1_555 1_555
C7I W2 1_555 1_555
C8D N8D 1_555 1_555
C8K W2 1_555 1_555
C8I W2 1_555 1_555
C9F W2 1_555 1_555
C10K N11K 1_555 1_555
C11K C10K 1_555 1_555
C12K C11K 1_555 1_555
C13K N10K 1_555 1_555
H1K C10K 1_555 1_555
H2K C11K 1_555 1_555
H3K C12K 1_555 1_555
H4K C13K 1_555 1_555
N3 C3 1_555 1_555
N11 C13 1_555 1_555
N11 Cu1K 1_555 1_555
C8 W2K 1_555 1_555
N11K C13K 1_555 1_555

#END
