
#######################################################################
#
#                 Cambridge Crystallographic Data Centre
#                                CCDC 
#
#######################################################################
#
# If this CIF has been generated from an entry in the Cambridge 
# Structural Database, then it will include bibliographic, chemical, 
# crystal, experimental, refinement or atomic coordinate data resulting 
# from the CCDC's data processing and validation procedures.
#
#######################################################################

data_QIVZEC
_symmetry_cell_setting           triclinic
_symmetry_space_group_name_H-M   'P -1'
_symmetry_Int_Tables_number      2
_space_group_name_Hall           '-P 1'
loop_
_symmetry_equiv_pos_site_id
_symmetry_equiv_pos_as_xyz
1 x,y,z
2 -x,-y,-z
_cell_length_a                   10.7575(4)
_cell_length_b                   15.3180(6)
_cell_length_c                   29.3906(13)
_cell_angle_alpha                81.1120(10)
_cell_angle_beta                 87.7110(10)
_cell_angle_gamma                84.5360(10)
_cell_volume                     4761.62
loop_
_atom_site_label
_atom_site_type_symbol
_atom_site_fract_x
_atom_site_fract_y
_atom_site_fract_z
Zn1 Zn 0.27361(3) 0.64965(2) 0.691799(12)
Zn2 Zn 0.30113(3) 0.87076(2) 0.179057(12)
Zn3 Zn 0.20491(3) 1.14310(2) 0.190246(12)
Zn4 Zn 0.23574(3) 0.39167(2) 0.683583(12)
N1 N 0.1901(2) 1.09368(16) 0.26199(9)
N2 N 0.2456(2) 0.60058(17) 0.76373(9)
N3 N 0.2872(2) 0.70377(16) 0.61896(9)
N4 N 0.2761(2) 0.81712(16) 0.25016(9)
N5 N 0.2169(2) 0.33340(16) 0.75476(9)
N6 N 0.2600(2) 0.44175(18) 0.61158(9)
O1 O 0.3099(2) 1.26608(16) 0.20332(9)
O2 O 0.1899(2) 0.79567(15) 0.69770(8)
O3 O 0.4108(2) 1.75120(14) 0.16935(8)
O4 O 0.41003(19) 0.41831(14) 0.69598(7)
N7 N 0.2563(3) 0.10749(18) 0.95382(9)
O5 O 0.3672(2) 1.06957(15) 0.18156(8)
O6 O 1.05136(19) 1.08478(14) 0.17797(8)
O7 O 0.1480(2) 1.28671(14) 0.66787(8)
O8 O 0.42351(19) 0.56508(14) 0.68172(8)
O9 O 0.2090(2) 1.74303(15) 0.16594(8)
O10 O 0.3481(2) 1.24194(15) 0.67309(9)
O11 O 1.0814(2) 0.47568(14) 0.69245(8)
O12 O 0.1072(2) 1.26647(14) 0.19679(8)
O13 O 1.09825(19) 0.62212(14) 0.68110(8)
O14 O 1.1314(2) 0.94335(15) 0.18750(8)
N8 N 0.2677(3) 0.14849(18) 0.90886(9)
N9 N 0.2322(2) 0.19785(17) 1.11788(9)
N10 N 0.2987(2) -0.07901(17) 1.10685(9)
N11 N 0.2867(3) 0.61496(19) 0.45531(9)
N12 N 0.2148(3) 0.8768(2) 0.46307(10)
C1 C 0.1847(3) 0.2392(2) 0.84347(10)
C2 C 0.3041(3) 0.7836(2) 0.52647(11)
N13 N 0.3085(3) 0.64938(18) 0.40952(9)
O15 O 0.3879(2) 0.74778(14) 0.70463(8)
C3 C 0.1567(3) 1.0190(2) 0.35455(11)
O16 O 0.45327(19) 0.93063(14) 0.19170(8)
C4 C 0.1842(3) 0.5281(2) 0.85444(11)
C5 C 0.3028(3) 0.2460(2) 0.82284(11)
H1 H 0.3732 0.2187 0.8384
C6 C 0.1389(3) 0.7567(2) 0.31031(11)
H2 H 0.0582 0.7438 0.3197
C7 C 0.1686(3) 0.1883(2) 0.89007(11)
C8 C 0.1632(3) 0.7959(2) 0.26614(11)
H3 H 0.0971 0.8085 0.2460
C9 C 0.3179(3) 1.7070(2) 0.16803(11)
C10 C 0.2368(3) 0.7363(2) 0.34121(11)
N14 N 0.1921(3) 0.3755(2) 0.96110(10)
N15 N 0.2281(3) 0.9169(2) 0.41711(10)
C11 C 0.3128(3) 0.8273(2) 0.47765(12)
C12 C 0.8116(3) 1.0243(2) 0.19312(11)
H4 H 0.8183 1.0842 0.1938
C13 C 0.2144(3) 0.6931(2) 0.38896(11)
C14 C 0.9155(3) 0.9713(2) 0.19096(11)
H5 H 0.9083 0.9108 0.1930
C15 C 0.3706(3) 0.79775(19) 0.27955(10)
H6 H 0.4501 0.8117 0.2691
C16 C 0.6852(3) 0.5315(2) 0.69163(11)
C17 C 0.8199(3) 0.5125(2) 0.69236(11)
H7 H 0.8521 0.4536 0.6937
C18 C 0.3148(3) 0.2933(2) 0.77937(11)
H8 H 0.3946 0.2978 0.7663
C19 C 0.3368(3) 0.9024(2) 0.69681(12)
H9 H 0.4195 0.9106 0.7018
N16 N 0.2183(3) 0.4152(2) 0.91632(10)
C20 C 0.5827(3) 1.0466(2) 0.19139(11)
H10 H 0.5864 1.1070 0.1911
C21 C 0.2846(3) 0.3228(2) 0.97832(11)
C22 C 0.3550(3) 0.75790(19) 0.32472(11)
H11 H 0.4230 0.7456 0.3440
C23 C 0.4056(3) 0.3047(2) 0.95345(12)
H12 H 0.3917 0.3106 0.9210
H13 H 0.4406 0.2456 0.9644
H14 H 0.4625 0.3464 0.9589
C24 C 0.1525(3) 0.4870(2) 0.90219(12)
C25 C 0.0826(3) 0.2817(2) 0.81818(11)
H15 H 0.0018 0.2793 0.8306
C26 C 0.3008(3) 0.8107(2) 0.70023(11)
C27 C 0.1406(3) 0.9771(2) 0.40309(11)
C28 C 0.3459(3) 0.2081(2) 1.09906(12)
H16 H 0.4149 0.1886 1.1172
C29 C 0.1034(3) 0.3267(2) 0.77488(11)
H17 H 0.0346 0.3543 0.7585
C30 C 0.6882(3) 0.9940(2) 0.19451(11)
H18 H 0.6823 0.9331 0.1978
C31 C 0.2655(3) 0.2788(2) 1.02624(11)
C32 C 0.0765(3) 1.0882(2) 0.33355(11)
H19 H 0.0091 1.1112 0.3502
C33 C 0.2745(4) 0.4866(2) 0.82856(12)
H20 H 0.3164 0.4330 0.8411
C34 C 0.9001(3) 0.5736(2) 0.69118(11)
H21 H 0.8678 0.6318 0.6920
C35 C 1.0426(3) 1.0017(2) 0.18548(10)
C36 C 0.2030(3) 1.3063(2) 0.19910(11)
C37 C 0.6074(3) 0.4687(2) 0.69246(11)
C38 C 0.2568(3) 0.9730(2) 0.68702(12)
H22 H 0.1742 0.9635 0.6829
C39 C 0.3045(3) -0.0102(2) 1.01242(12)
C40 C 0.2065(4) 0.5424(2) 0.54349(12)
H23 H 0.1574 0.5923 0.5301
C41 C 0.3026(4) 0.5240(2) 0.78443(12)
H24 H 0.3644 0.4946 0.7679
C42 C 1.0373(3) 0.5551(2) 0.68861(10)
C43 C 0.2930(4) 0.4997(2) 0.51708(12)
C44 C 0.3107(4) 0.5319(2) 0.46731(12)
C45 C 0.3662(3) 0.2461(2) 1.05419(12)
H25 H 0.4474 0.2500 1.0425
C46 C 0.1351(3) 0.2280(2) 1.09088(11)
H26 H 0.0550 0.2212 1.1032
C47 C 0.2371(3) 1.2264(2) 0.67032(12)
C48 C 0.4082(3) 0.7410(2) 0.54997(12)
H27 H 0.4860 0.7381 0.5350
C49 C 0.1916(3) 0.7842(2) 0.55093(12)
H28 H 0.1193 0.8120 0.5368
C50 C 0.4689(3) 0.4862(2) 0.68973(10)
C51 C 0.2288(4) 0.0286(2) 1.04372(13)
H29 H 0.1766 0.0794 1.0338
C52 C 0.2873(3) 1.0639(2) 0.68221(12)
H30 H 0.3700 1.0739 0.6859
C53 C 0.0966(3) 1.1233(2) 0.28782(11)
H31 H 0.0416 1.1700 0.2746
C54 C 0.1864(3) 0.7440(2) 0.59597(11)
H32 H 0.1093 0.7446 0.6114
C55 C 0.4587(3) 1.0128(2) 0.18828(10)
C56 C 0.2574(3) 1.5540(2) 0.17994(12)
H33 H 0.1751 1.5786 0.1812
C57 C 0.3956(3) 0.7031(2) 0.59548(11)
H34 H 0.4666 0.6756 0.6105
C58 C 0.4314(3) 0.8118(2) 0.45039(12)
H35 H 0.4168 0.8314 0.4183
H36 H 0.4588 0.7496 0.4551
H37 H 0.4946 0.8443 0.4603
C59 C 0.1474(3) 0.2685(2) 1.04601(12)
H38 H 0.0768 0.2890 1.0289
C60 C 0.0856(3) 0.7028(3) 0.41014(13)
H39 H 0.0370 0.6586 0.4017
H40 H 0.0463 0.7608 0.3993
H41 H 0.0909 0.6951 0.4431
C61 C 0.2773(3) 1.4578(2) 0.18673(12)
H42 H 0.3590 1.4320 0.1855
C62 C 0.3087(4) 0.0291(2) 0.96310(12)
C63 C 0.1274(3) 0.6080(2) 0.83328(12)
H43 H 0.0672 0.6397 0.8494
C64 C 0.1870(3) 1.4051(2) 0.19446(12)
H44 H 0.1062 1.4316 0.1973
C65 C 0.3441(3) 1.6092(2) 0.17226(13)
H45 H 0.4265 1.5860 0.1693
C66 C 0.1591(3) 0.6410(2) 0.78866(12)
H46 H 0.1180 0.6944 0.7752
C67 C 0.2552(4) 0.9886(2) 0.32751(12)
H47 H 0.3122 0.9424 0.3399
C68 C 0.2684(3) 1.0268(2) 0.28254(12)
H48 H 0.3353 1.0053 0.2652
C69 C 0.0538(4) 0.5315(3) 0.92972(15)
H49 H 0.0791 0.5875 0.9349
H50 H 0.0413 0.4948 0.9588
H51 H -0.0228 0.5411 0.9133
C70 C 0.2294(4) -0.0066(2) 1.08950(12)
H52 H 0.1777 0.0223 1.1097
C71 C 0.0421(4) 0.1862(4) 0.91242(14)
H53 H -0.0051 0.1471 0.8989
H54 H -0.0001 0.2449 0.9080
H55 H 0.0498 0.1654 0.9448
C72 C 0.2055(3) 1.1334(2) 0.67288(13)
H56 H 0.1236 1.1238 0.6676
C73 C 0.1921(4) 0.5116(2) 0.58963(12)
H57 H 0.1314 0.5413 0.6065
C74 C 0.3717(5) -0.1177(3) 1.07702(14)
H58 H 0.4225 -0.1685 1.0880
C75 C 0.0323(4) 1.0077(3) 0.43133(14)
H59 H 0.0402 1.0675 0.4361
H60 H 0.0304 0.9698 0.4606
H61 H -0.0436 1.0056 0.4156
C76 C 0.3532(6) 0.4690(3) 0.43490(15)
H62 H 0.2839 0.4388 0.4278
H63 H 0.4171 0.4264 0.4489
H64 H 0.3861 0.5011 0.4071
C77 C 0.3736(5) -0.0217(3) 0.92798(14)
H65 H 0.3191 -0.0624 0.9196
H66 H 0.4482 -0.0541 0.9407
H67 H 0.3950 0.0188 0.9012
C78 C 0.3761(5) -0.0863(3) 1.03045(15)
H68 H 0.4279 -0.1168 1.0110
C79 C 0.3641(5) 0.4273(3) 0.54006(14)
H69 H 0.4249 0.3960 0.5240
C80 C 0.3448(4) 0.4016(3) 0.58655(14)
H70 H 0.3945 0.3531 0.6011
H71 H 0.655(3) 0.594(2) 0.6912(10)
H72 H 0.638(4) 0.406(3) 0.6945(13)
Zn1_2 Zn 1.27361(3) 0.64965(2) 0.691799(12)
Zn2_2 Zn 0.30113(3) -0.12924(2) 1.179057(12)
Zn2_3 Zn 0.30113(3) 1.87076(2) 0.179057(12)
Zn2_4 Zn 1.30113(3) 0.87076(2) 0.179057(12)
Zn3_2 Zn 0.20491(3) 0.14310(2) 1.190246(12)
Zn3_3 Zn 1.20491(3) 1.14310(2) 0.190246(12)
Zn4_2 Zn 0.23574(3) 1.39167(2) 0.683583(12)
Zn4_3 Zn 1.23574(3) 0.39167(2) 0.683583(12)
O3_2 O 0.4108(2) 0.75120(14) 0.16935(8)
O6_2 O 0.05136(19) 1.08478(14) 0.17797(8)
O7_2 O 0.1480(2) 0.28671(14) 0.66787(8)
O9_2 O 0.2090(2) 0.74303(15) 0.16594(8)
O10_2 O 0.3481(2) 0.24194(15) 0.67309(9)
O11_2 O 0.0814(2) 0.47568(14) 0.69245(8)
O13_2 O 0.09825(19) 0.62212(14) 0.68110(8)
O14_2 O 0.1314(2) 0.94335(15) 0.18750(8)
N9_2 N 0.2322(2) 1.19785(17) 0.11788(9)
N10_2 N 0.2987(2) 0.92099(17) 0.10685(9)
C81 C 0.6877(4) 0.8600(3) 0.54295(16)
N17 N 0.5520(3) 0.9688(3) 0.50066(13)
C82 C 0.5800(4) 0.9283(3) 0.54112(15)
C83 C 0.7282(5) 0.8085(4) 0.58360(18)
H73 H 0.6885 0.8167 0.6115
C84 C 0.8268(6) 0.7456(4) 0.5824(2)
H74 H 0.8523 0.7128 0.6103
C85 C 0.5113(5) 0.9433(3) 0.58523(15)
H75 H 0.4816 0.8887 0.6001
H76 H 0.4417 0.9870 0.5785
H77 H 0.5668 0.9640 0.6052
C86 C 0.8501(5) 0.7781(5) 0.5059(2)
H78 H 0.8923 0.7682 0.4787
N18 N 0.8887(5) 0.7277(4) 0.5447(2)
C87 C 0.7521(5) 0.8440(4) 0.50286(18)
H79 H 0.7300 0.8767 0.4745
C81A C 0.3123(4) 1.1400(3) 0.45705(16)
N17A N 0.4480(3) 1.0312(3) 0.49934(13)
C82A C 0.4200(4) 1.0717(3) 0.45888(15)
C83A C 0.2718(5) 1.1915(4) 0.41640(18)
H73A H 0.3115 1.1833 0.3885
C84A C 0.1732(6) 1.2544(4) 0.4176(2)
H74A H 0.1477 1.2872 0.3897
C85A C 0.4887(5) 1.0567(3) 0.41477(15)
H75A H 0.5184 1.1113 0.3999
H76A H 0.5583 1.0130 0.4215
H77A H 0.4332 1.0360 0.3948
C86A C 0.1499(5) 1.2219(5) 0.4941(2)
H78A H 0.1077 1.2318 0.5213
N18A N 0.1113(5) 1.2723(4) 0.4553(2)
C87A C 0.2479(5) 1.1560(4) 0.49714(18)
H79A H 0.2700 1.1233 0.5255
O17 O 0.5595(3) 1.2876(2) 0.19214(10)
O18 O 0.6408(3) 0.7678(2) 0.69388(11)
C88 C 0.2755(5) 0.6766(5) 0.99252(19)
H80 H 0.2925 0.6448 1.0215
N19 N 0.4534(4) 0.5358(3) 0.99845(15)
C89 C 0.3379(5) 0.6518(4) 0.95372(17)
N20 N 0.1563(5) 0.7987(4) 0.9472(2)
C90 C 0.4342(5) 0.5760(4) 0.95750(17)
C91 C 0.3068(5) 0.7029(4) 0.91167(19)
H81 H 0.3468 0.6900 0.8845
C92 C 0.5037(5) 0.5528(4) 0.91450(16)
H82 H 0.5628 0.5023 0.9226
H83 H 0.5472 0.6024 0.9003
H84 H 0.4454 0.5392 0.8933
C93 C 0.1875(5) 0.7493(6) 0.9875(2)
H85 H 0.1471 0.7650 1.0140
C94 C 0.2172(6) 0.7720(5) 0.9107(2)
H86 H 0.1965 0.8036 0.8820
C88A C 0.7245(5) 0.3234(5) 1.00748(19)
H80A H 0.7075 0.3552 0.9785
N19A N 0.5466(4) 0.4642(3) 1.00155(15)
C89A C 0.6621(5) 0.3482(4) 1.04628(17)
N20A N 0.8437(5) 0.2013(4) 1.0528(2)
C90A C 0.5658(5) 0.4240(4) 1.04250(17)
C91A C 0.6932(5) 0.2971(4) 1.08833(19)
H81A H 0.6532 0.3100 1.1155
C92A C 0.4963(5) 0.4472(4) 1.08550(16)
H82A H 0.4372 0.4977 1.0774
H83A H 0.4528 0.3976 1.0997
H84A H 0.5546 0.4608 1.1067
C93A C 0.8125(5) 0.2507(6) 1.0125(2)
H85A H 0.8529 0.2350 0.9860
C94A C 0.7828(6) 0.2280(5) 1.0893(2)
H86A H 0.8035 0.1964 1.1180
loop_
_geom_bond_atom_site_label_1
_geom_bond_atom_site_label_2
_geom_bond_site_symmetry_1
_geom_bond_site_symmetry_2
Zn1 N2 1_555 1_555
Zn2 N4 1_555 1_555
Zn3 N1 1_555 1_555
Zn4 N5 1_555 1_555
N1 C53 1_555 1_555
N2 C41 1_555 1_555
N3 Zn1 1_555 1_555
N4 C8 1_555 1_555
N5 C18 1_555 1_555
N6 Zn4 1_555 1_555
O1 Zn3 1_555 1_555
O2 Zn1 1_555 1_555
O3 C9 1_555 1_555
O4 Zn4 1_555 1_555
N7 N8 1_555 1_555
O5 Zn3 1_555 1_555
O6 C35 1_555 1_555
O7 C47 1_555 1_555
O8 Zn1 1_555 1_555
O9 C9 1_555 1_555
O10 C47 1_555 1_555
O11 C42 1_555 1_555
O12 Zn3 1_555 1_555
O13 C42 1_555 1_555
O14 C35 1_555 1_555
N8 C7 1_555 1_555
N9 C28 1_555 1_555
N10 C70 1_555 1_555
N11 N13 1_555 1_555
N12 N15 1_555 1_555
C1 C5 1_555 1_555
C2 C11 1_555 1_555
N13 C13 1_555 1_555
O15 Zn1 1_555 1_555
C3 C27 1_555 1_555
O16 Zn2 1_555 1_555
C4 C24 1_555 1_555
C5 H1 1_555 1_555
C6 H2 1_555 1_555
C7 C1 1_555 1_555
C8 C6 1_555 1_555
H3 C8 1_555 1_555
C9 C65 1_555 1_555
C10 C6 1_555 1_555
N14 N16 1_555 1_555
N15 C27 1_555 1_555
C11 N12 1_555 1_555
C12 H4 1_555 1_555
C13 C10 1_555 1_555
C14 C12 1_555 1_555
H5 C14 1_555 1_555
C15 N4 1_555 1_555
H6 C15 1_555 1_555
C16 C17 1_555 1_555
C17 H7 1_555 1_555
C18 C5 1_555 1_555
H8 C18 1_555 1_555
C19 H9 1_555 1_555
N16 C24 1_555 1_555
C20 H10 1_555 1_555
C21 N14 1_555 1_555
C22 C10 1_555 1_555
H11 C22 1_555 1_555
C23 C21 1_555 1_555
H12 C23 1_555 1_555
H13 C23 1_555 1_555
H14 C23 1_555 1_555
C24 C69 1_555 1_555
C25 C1 1_555 1_555
H15 C25 1_555 1_555
C26 O2 1_555 1_555
C27 C75 1_555 1_555
C28 H16 1_555 1_555
C29 N5 1_555 1_555
H17 C29 1_555 1_555
C30 C12 1_555 1_555
H18 C30 1_555 1_555
C31 C21 1_555 1_555
C32 C3 1_555 1_555
H19 C32 1_555 1_555
C33 C4 1_555 1_555
H20 C33 1_555 1_555
C34 C17 1_555 1_555
H21 C34 1_555 1_555
C35 C14 1_555 1_555
C36 O1 1_555 1_555
C37 C16 1_555 1_555
C38 C19 1_555 1_555
H22 C38 1_555 1_555
C39 C51 1_555 1_555
C40 H23 1_555 1_555
C41 C33 1_555 1_555
H24 C41 1_555 1_555
C42 C34 1_555 1_555
C43 C40 1_555 1_555
C44 N11 1_555 1_555
C45 C28 1_555 1_555
H25 C45 1_555 1_555
C46 N9 1_555 1_555
H26 C46 1_555 1_555
C47 C72 1_555 1_555
C48 C2 1_555 1_555
H27 C48 1_555 1_555
C49 C2 1_555 1_555
H28 C49 1_555 1_555
C50 O4 1_555 1_555
C51 H29 1_555 1_555
C52 C38 1_555 1_555
H30 C52 1_555 1_555
C53 C32 1_555 1_555
H31 C53 1_555 1_555
C54 N3 1_555 1_555
H32 C54 1_555 1_555
C55 O5 1_555 1_555
C56 H33 1_555 1_555
C57 N3 1_555 1_555
H34 C57 1_555 1_555
C58 C11 1_555 1_555
H35 C58 1_555 1_555
H36 C58 1_555 1_555
H37 C58 1_555 1_555
C59 C31 1_555 1_555
H38 C59 1_555 1_555
C60 C13 1_555 1_555
H39 C60 1_555 1_555
H40 C60 1_555 1_555
H41 C60 1_555 1_555
C61 C56 1_555 1_555
H42 C61 1_555 1_555
C62 N7 1_555 1_555
C63 C4 1_555 1_555
H43 C63 1_555 1_555
C64 C36 1_555 1_555
H44 C64 1_555 1_555
C65 C56 1_555 1_555
H45 C65 1_555 1_555
C66 N2 1_555 1_555
H46 C66 1_555 1_555
C67 C3 1_555 1_555
H47 C67 1_555 1_555
C68 N1 1_555 1_555
H48 C68 1_555 1_555
C69 H49 1_555 1_555
H50 C69 1_555 1_555
H51 C69 1_555 1_555
C70 C51 1_555 1_555
H52 C70 1_555 1_555
C71 C7 1_555 1_555
H53 C71 1_555 1_555
H54 C71 1_555 1_555
H55 C71 1_555 1_555
C72 C52 1_555 1_555
H56 C72 1_555 1_555
C73 N6 1_555 1_555
H57 C73 1_555 1_555
C74 N10 1_555 1_555
H58 C74 1_555 1_555
C75 H59 1_555 1_555
H60 C75 1_555 1_555
H61 C75 1_555 1_555
C76 C44 1_555 1_555
H62 C76 1_555 1_555
H63 C76 1_555 1_555
H64 C76 1_555 1_555
C77 C62 1_555 1_555
H65 C77 1_555 1_555
H66 C77 1_555 1_555
H67 C77 1_555 1_555
C78 C39 1_555 1_555
H68 C78 1_555 1_555
C79 C43 1_555 1_555
H69 C79 1_555 1_555
C80 N6 1_555 1_555
H70 C80 1_555 1_555
H71 C16 1_555 1_555
H72 C37 1_555 1_555
C81 C82 1_555 1_555
N17 C82 1_555 1_555
C82 C85 1_555 1_555
C83 C81 1_555 1_555
H73 C83 1_555 1_555
C84 C83 1_555 1_555
H74 C84 1_555 1_555
C85 H75 1_555 1_555
H76 C85 1_555 1_555
H77 C85 1_555 1_555
C86 H78 1_555 1_555
N18 C84 1_555 1_555
C87 C81 1_555 1_555
H79 C87 1_555 1_555
C88 H80 1_555 1_555
N19 C90 1_555 1_555
C89 C88 1_555 1_555
N20 C93 1_555 1_555
C90 C89 1_555 1_555
C91 C89 1_555 1_555
H81 C91 1_555 1_555
C92 C90 1_555 1_555
H82 C92 1_555 1_555
H83 C92 1_555 1_555
H84 C92 1_555 1_555
C93 C88 1_555 1_555
H85 C93 1_555 1_555
C94 N20 1_555 1_555
H86 C94 1_555 1_555
Zn1_2 O13 1_555 1_555
Zn2_2 N10 1_555 1_555
Zn2_3 O3 1_555 1_555
Zn2_4 O14 1_555 1_555
Zn3_2 N9 1_555 1_555
Zn3_3 O6 1_555 1_555
Zn4_2 O7 1_555 1_555
Zn4_3 O11 1_555 1_555
O3_2 Zn2 1_555 1_555
O6_2 Zn3 1_555 1_555
O7_2 Zn4 1_555 1_555
O9_2 Zn2 1_555 1_555
O10_2 Zn4 1_555 1_555
O11_2 Zn4 1_555 1_555
O13_2 Zn1 1_555 1_555
O14_2 Zn2 1_555 1_555
N9_2 Zn3 1_555 1_555
N10_2 Zn2 1_555 1_555
C81A C82A 1_555 1_555
N17A N17 1_555 1_555
C82A N17A 1_555 1_555
C83A C81A 1_555 1_555
H73A C83A 1_555 1_555
C84A C83A 1_555 1_555
H74A C84A 1_555 1_555
C85A C82A 1_555 1_555
H75A C85A 1_555 1_555
H76A C85A 1_555 1_555
H77A C85A 1_555 1_555
C86A H78A 1_555 1_555
N18A C84A 1_555 1_555
C87A C81A 1_555 1_555
H79A C87A 1_555 1_555
C88A H80A 1_555 1_555
N19A N19 1_555 1_555
C89A C88A 1_555 1_555
N20A C93A 1_555 1_555
C90A N19A 1_555 1_555
C91A C89A 1_555 1_555
H81A C91A 1_555 1_555
C92A C90A 1_555 1_555
H82A C92A 1_555 1_555
H83A C92A 1_555 1_555
H84A C92A 1_555 1_555
C93A C88A 1_555 1_555
H85A C93A 1_555 1_555
C94A N20A 1_555 1_555
H86A C94A 1_555 1_555
O8 C50 1_555 1_555
O9 Zn2_3 1_555 1_555
O10 Zn4_2 1_555 1_555
O12 C36 1_555 1_555
O15 C26 1_555 1_555
O16 C55 1_555 1_555
C15 C22 1_555 1_555
C19 C26 1_555 1_555
C20 C30 1_555 1_555
C20 C55 1_555 1_555
C25 C29 1_555 1_555
C31 C45 1_555 1_555
C37 C50 1_555 1_555
C39 C62 1_555 1_555
C40 C73 1_555 1_555
C43 C44 1_555 1_555
C46 C59 1_555 1_555
C48 C57 1_555 1_555
C49 C54 1_555 1_555
C61 C64 1_555 1_555
C63 C66 1_555 1_555
C67 C68 1_555 1_555
C74 C78 1_555 1_555
C79 C80 1_555 1_555
C86 N18 1_555 1_555
C86 C87 1_555 1_555
C91 C94 1_555 1_555
C86A N18A 1_555 1_555
C86A C87A 1_555 1_555
C89A C90A 1_555 1_555
C91A C94A 1_555 1_555

#END
