
#######################################################################
#
#                 Cambridge Crystallographic Data Centre
#                                CCDC 
#
#######################################################################
#
# If this CIF has been generated from an entry in the Cambridge 
# Structural Database, then it will include bibliographic, chemical, 
# crystal, experimental, refinement or atomic coordinate data resulting 
# from the CCDC's data processing and validation procedures.
#
#######################################################################

data_QIWDOQ
_symmetry_cell_setting           monoclinic
_symmetry_space_group_name_H-M   'P 21/n'
_symmetry_Int_Tables_number      14
_space_group_name_Hall           '-P 2yn'
loop_
_symmetry_equiv_pos_site_id
_symmetry_equiv_pos_as_xyz
1 x,y,z
2 1/2-x,1/2+y,1/2-z
3 -x,-y,-z
4 1/2+x,1/2-y,1/2+z
_cell_length_a                   7.2968(10)
_cell_length_b                   25.0695(10)
_cell_length_c                   29.4572(10)
_cell_angle_alpha                90
_cell_angle_beta                 91.920(5)
_cell_angle_gamma                90
_cell_volume                     5385.5
loop_
_atom_site_label
_atom_site_type_symbol
_atom_site_fract_x
_atom_site_fract_y
_atom_site_fract_z
Eu1 Eu 0.10046(4) 0.733947(10) 0.041868(9)
Eu2 Eu -0.41602(4) 0.730010(10) 0.006880(9)
C1 C -0.2338(7) 0.8428(2) -0.08540(16)
H1 H -0.2752 0.8080 -0.0896
C2 C -0.0523(7) 0.9067(2) -0.04407(18)
H2 H 0.0302 0.9147 -0.0203
C3 C -0.1177(7) 0.8551(2) -0.04905(17)
C4 C -0.0610(7) 0.8146(2) -0.01433(19)
C5 C -0.4485(7) 1.1757(2) -0.04649(18)
C6 C -0.4052(7) 1.12586(19) -0.07160(17)
C7 C -0.4629(7) 1.0773(2) -0.05545(18)
H3 H -0.5301 1.0758 -0.0292
C8 C -0.3057(7) 1.1279(2) -0.11087(16)
H4 H -0.2653 1.1605 -0.1217
C9 C -0.4209(7) 1.0309(2) -0.07820(17)
H5 H -0.4598 0.9982 -0.0670
C10 C -0.2662(7) 1.0813(2) -0.13400(17)
H6 H -0.2022 1.0830 -0.1607
C11 C -0.3213(7) 1.0324(2) -0.11766(17)
C12 C -0.2926(7) 0.9791(2) -0.14276(17)
C13 C -0.4777(8) 0.9663(2) -0.16766(18)
C14 C -0.1426(9) 0.9836(2) -0.17859(19)
C15 C -0.2326(7) 0.9343(2) -0.11029(17)
C16 C -0.1083(7) 0.9465(2) -0.07406(17)
H7 H -0.0642 0.9811 -0.0703
C17 C -0.2882(7) 0.8822(2) -0.11536(17)
H8 H -0.3655 0.8733 -0.1400
O1 O -0.1354(5) 0.76707(12) -0.01691(12)
O2 O 0.0572(5) 0.82437(13) 0.01574(12)
O3 O -0.5552(5) 1.17432(14) -0.01440(12)
O4 O -0.3794(5) 1.22043(13) -0.05907(12)
F1 F -0.5488(5) 1.00987(12) -0.18800(10)
F2 F -0.4639(5) 0.92932(11) -0.20022(10)
F3 F 0.0110(4) 1.00476(12) -0.16055(11)
F4 F -0.1950(5) 1.01385(12) -0.21455(10)
F5 F -0.0993(5) 0.93585(12) -0.19536(10)
F6 F -0.6006(4) 0.94896(12) -0.13882(11)
C18 C 0.2055(8) 0.7422(2) -0.10924(18)
C19 C 0.2674(9) 0.7634(2) -0.1493(2)
H9 H 0.3829 0.7792 -0.1494
C20 C -0.2421(7) 0.6842(2) -0.23841(17)
C21 C -0.2579(8) 0.7842(2) -0.23314(18)
C22 C 0.0315(8) 0.7206(2) -0.10947(19)
H10 H -0.0153 0.7080 -0.0825
C23 C -0.1269(8) 0.73609(19) -0.2342(2)
C24 C -0.0089(8) 0.73753(19) -0.27634(19)
C25 C 0.1628(8) 0.7618(2) -0.1888(2)
H11 H 0.2066 0.7769 -0.2151
C26 C -0.0103(7) 0.73749(19) -0.18947(18)
C27 C 0.3277(7) 0.74057(19) -0.06779(19)
C28 C -0.0740(7) 0.7175(2) -0.14919(17)
H12 H -0.1894 0.7018 -0.1488
C29 C 0.3424(8) 0.74176(19) -0.38997(18)
C30 C 0.2185(8) 0.73747(19) -0.35171(19)
C31 C 0.1391(7) 0.7026(2) -0.27951(18)
H13 H 0.1616 0.6783 -0.2561
C32 C 0.2533(7) 0.7027(2) -0.31586(18)
H14 H 0.3530 0.6797 -0.3163
C33 C 0.0683(8) 0.77082(19) -0.3502(2)
H15 H 0.0423 0.7937 -0.3744
C34 C -0.0453(8) 0.7708(2) -0.3130(2)
H16 H -0.1463 0.7935 -0.3129
O5 O 0.2633(5) 0.73340(12) -0.02830(12)
O6 O 0.4963(5) 0.74499(16) -0.07196(12)
O7 O 0.2825(5) 0.76492(12) -0.42707(12)
O8 O 0.5024(5) 0.72505(13) -0.38749(13)
F7 F -0.1442(4) 0.64143(11) -0.22698(10)
F8 F -0.3894(4) 0.68477(12) -0.21166(10)
F9 F -0.1663(4) 0.83018(11) -0.23675(10)
F10 F -0.3439(4) 0.78708(13) -0.19359(11)
F11 F -0.3096(4) 0.67683(12) -0.28042(10)
F12 F -0.3894(4) 0.78303(13) -0.26548(10)
C35 C -0.1348(9) 0.6400(2) -0.0191(2)
C36 C 0.1467(7) 0.59630(19) -0.04896(17)
H17 H 0.2134 0.6075 -0.0233
C37 C 0.5686(7) 0.39627(19) -0.10010(16)
C38 C -0.0498(7) 0.56274(19) -0.12633(17)
H18 H -0.1156 0.5522 -0.1524
C39 C 0.2493(7) 0.52614(19) -0.15936(16)
C40 C 0.3689(6) 0.48101(19) -0.13894(15)
C41 C 0.1377(7) 0.55307(19) -0.12210(16)
C42 C 0.6367(7) 0.4244(2) -0.13684(18)
H19 H 0.7487 0.4149 -0.1487
C43 C 0.5362(7) 0.4668(2) -0.15575(18)
H20 H 0.5826 0.4857 -0.1800
C44 C -0.0421(7) 0.6059(2) -0.05308(17)
C45 C 0.1262(7) 0.5002(2) -0.19678(18)
C46 C 0.6754(7) 0.35098(19) -0.08077(17)
C47 C 0.2316(7) 0.5703(2) -0.08308(18)
H21 H 0.3570 0.5639 -0.0801
C48 C 0.3619(7) 0.5702(2) -0.18204(18)
C49 C 0.3989(7) 0.4096(2) -0.08397(17)
H22 H 0.3511 0.3906 -0.0600
C50 C 0.3008(7) 0.4510(2) -0.10340(17)
H23 H 0.1859 0.4592 -0.0926
C51 C -0.1377(7) 0.5882(2) -0.09147(18)
H24 H -0.2638 0.5934 -0.0939
O9 O -0.0395(6) 0.65789(14) 0.01375(12)
O10 O -0.3021(6) 0.65059(15) -0.02510(11)
O11 O 0.6177(4) 0.32898(12) -0.04379(11)
O12 O 0.8160(5) 0.33405(13) -0.09838(11)
F13 F 0.0054(4) 0.46602(12) -0.17852(11)
F14 F 0.0288(4) 0.53545(12) -0.22119(10)
F15 F 0.2232(4) 0.47112(11) -0.22560(9)
F16 F 0.4329(4) 0.55598(12) -0.22103(10)
F17 F 0.5016(4) 0.58621(11) -0.15481(10)
F18 F 0.2590(4) 0.61386(11) -0.19040(10)
Eu1B Eu -0.10046(4) 1.266053(10) -0.041868(9)
Eu1C Eu 0.60046(4) 0.766053(10) -0.458132(9)
Eu1B_2 Eu 0.89954(4) 0.266053(10) -0.041868(9)
Eu2B Eu -0.58398(4) 1.269990(10) -0.006880(9)
Eu2_2 Eu 0.58398(4) 0.730010(10) 0.006880(9)
Eu2C Eu 0.08398(4) 0.769990(10) -0.493120(9)
Eu2B_2 Eu 0.41602(4) 0.269990(10) -0.006880(9)
O3B O -0.4448(5) 0.82568(14) 0.01440(12)
O4B O 0.3794(5) 0.77957(13) 0.05907(12)
O4B_2 O -0.6206(5) 0.77957(13) 0.05907(12)
O5_2 O -0.7367(5) 0.73340(12) -0.02830(12)
O6_2 O -0.5037(5) 0.74499(16) -0.07196(12)
O7C O -0.2175(5) 0.73508(12) 0.07293(12)
O8C O 0.0024(5) 0.77495(13) 0.11251(13)
O11B O 0.3823(4) 0.67102(12) 0.04379(11)
O11B_2 O -0.6177(4) 0.67102(12) 0.04379(11)
O12B O 0.1840(5) 0.66595(13) 0.09838(11)
loop_
_geom_bond_atom_site_label_1
_geom_bond_atom_site_label_2
_geom_bond_site_symmetry_1
_geom_bond_site_symmetry_2
Eu1 O1 1_555 1_555
Eu2 O1 1_555 1_555
C1 H1 1_555 1_555
C2 H2 1_555 1_555
C3 C1 1_555 1_555
C4 C3 1_555 1_555
C5 C6 1_555 1_555
C6 C7 1_555 1_555
C7 H3 1_555 1_555
C8 C6 1_555 1_555
H4 C8 1_555 1_555
C9 C7 1_555 1_555
H5 C9 1_555 1_555
C10 C8 1_555 1_555
H6 C10 1_555 1_555
C11 C9 1_555 1_555
C12 C11 1_555 1_555
C13 C12 1_555 1_555
C14 C12 1_555 1_555
C15 C12 1_555 1_555
C16 C2 1_555 1_555
H7 C16 1_555 1_555
C17 C1 1_555 1_555
H8 C17 1_555 1_555
O1 C4 1_555 1_555
O2 Eu1 1_555 1_555
O3 C5 1_555 1_555
O4 C5 1_555 1_555
F1 C13 1_555 1_555
F2 C13 1_555 1_555
F3 C14 1_555 1_555
F4 C14 1_555 1_555
F5 C14 1_555 1_555
F6 C13 1_555 1_555
C18 C19 1_555 1_555
C19 H9 1_555 1_555
C20 C23 1_555 1_555
C21 C23 1_555 1_555
C22 C18 1_555 1_555
H10 C22 1_555 1_555
C23 C24 1_555 1_555
C24 C31 1_555 1_555
C25 C19 1_555 1_555
H11 C25 1_555 1_555
C26 C23 1_555 1_555
C27 C18 1_555 1_555
C28 C22 1_555 1_555
H12 C28 1_555 1_555
C29 C30 1_555 1_555
C30 C32 1_555 1_555
C31 H13 1_555 1_555
C32 C31 1_555 1_555
H14 C32 1_555 1_555
C33 C30 1_555 1_555
H15 C33 1_555 1_555
C34 C24 1_555 1_555
H16 C34 1_555 1_555
O5 Eu1 1_555 1_555
O6 C27 1_555 1_555
O7 C29 1_555 1_555
O8 C29 1_555 1_555
F7 C20 1_555 1_555
F8 C20 1_555 1_555
F9 C21 1_555 1_555
F10 C21 1_555 1_555
F11 C20 1_555 1_555
F12 C21 1_555 1_555
C35 C44 1_555 1_555
C36 H17 1_555 1_555
C37 C42 1_555 1_555
C38 H18 1_555 1_555
C39 C40 1_555 1_555
C40 C43 1_555 1_555
C41 C38 1_555 1_555
C42 H19 1_555 1_555
C43 C42 1_555 1_555
H20 C43 1_555 1_555
C44 C36 1_555 1_555
C45 C39 1_555 1_555
C46 C37 1_555 1_555
C47 C36 1_555 1_555
H21 C47 1_555 1_555
C48 C39 1_555 1_555
C49 C37 1_555 1_555
H22 C49 1_555 1_555
C50 C40 1_555 1_555
H23 C50 1_555 1_555
C51 C38 1_555 1_555
H24 C51 1_555 1_555
O9 Eu1 1_555 1_555
O10 Eu2 1_555 1_555
O11 C46 1_555 1_555
O12 C46 1_555 1_555
F13 C45 1_555 1_555
F14 C45 1_555 1_555
F15 C45 1_555 1_555
F16 C48 1_555 1_555
F17 C48 1_555 1_555
F18 C48 1_555 1_555
Eu1B O4 1_555 1_555
Eu1C O7 1_555 1_555
Eu1B_2 O11 1_555 1_555
Eu2B O3 1_555 1_555
Eu2_2 O5 1_555 1_555
Eu2C O7 1_555 1_555
Eu2B_2 O11 1_555 1_555
O3B Eu2 1_555 1_555
O4B Eu1 1_555 1_555
O4B_2 Eu2 1_555 1_555
O5_2 Eu2 1_555 1_555
O6_2 Eu2 1_555 1_555
O7C Eu1 1_555 1_555
O8C Eu1 1_555 1_555
O11B Eu1 1_555 1_555
O11B_2 Eu2 1_555 1_555
O12B Eu1 1_555 1_555
Eu2 O7C 1_555 1_555
C2 C3 1_555 1_555
C4 O2 1_555 1_555
C10 C11 1_555 1_555
C15 C16 1_555 1_555
C15 C17 1_555 1_555
O4 Eu2B 1_555 1_555
C25 C26 1_555 1_555
C26 C28 1_555 1_555
C27 O5 1_555 1_555
C33 C34 1_555 1_555
O6 Eu2_2 1_555 1_555
O8 Eu1C 1_555 1_555
C35 O9 1_555 1_555
C35 O10 1_555 1_555
C39 C41 1_555 1_555
C41 C47 1_555 1_555
C44 C51 1_555 1_555
C49 C50 1_555 1_555
O12 Eu1B_2 1_555 1_555
Eu2_2 O4B 1_555 1_555
Eu2_2 O11B 1_555 1_555

#END
