
#######################################################################
#
#                 Cambridge Crystallographic Data Centre
#                                CCDC 
#
#######################################################################
#
# If this CIF has been generated from an entry in the Cambridge 
# Structural Database, then it will include bibliographic, chemical, 
# crystal, experimental, refinement or atomic coordinate data resulting 
# from the CCDC's data processing and validation procedures.
#
#######################################################################

data_QIWDEH
_symmetry_cell_setting           orthorhombic
_symmetry_space_group_name_H-M   'P n n m'
_symmetry_Int_Tables_number      58
_space_group_name_Hall           '-P 2 2n'
loop_
_symmetry_equiv_pos_site_id
_symmetry_equiv_pos_as_xyz
1 x,y,z
2 -x,-y,z
3 1/2+x,1/2-y,1/2-z
4 1/2-x,1/2+y,1/2-z
5 -x,-y,-z
6 x,y,-z
7 1/2-x,1/2+y,1/2+z
8 1/2+x,1/2-y,1/2+z
_cell_length_a                   10.0477(3)
_cell_length_b                   15.2023(10)
_cell_length_c                   22.6589(7)
_cell_angle_alpha                90
_cell_angle_beta                 90
_cell_angle_gamma                90
_cell_volume                     3461.11
loop_
_atom_site_label
_atom_site_type_symbol
_atom_site_fract_x
_atom_site_fract_y
_atom_site_fract_z
Co1 Co 0.84292(6) 0.02263(5) 0.0000
O1 O 0.6992(3) 0.2996(2) 0.40102(12)
C1 C 0.6153(4) 0.3172(4) 0.3622(2)
O2 O 0.5378(4) 0.3831(3) 0.36322(17)
C2 C 0.6097(4) 0.2614(4) 0.3071(2)
C3 C 0.6886(5) 0.1920(4) 0.2994(2)
H1 H 0.7475 0.1751 0.3302
N1 N 0.5736(2) 0.07867(19) 0.05333(11)
C4 C 0.6867(5) 0.1437(4) 0.2475(2)
H2 H 0.7430 0.0938 0.2437
N2 N 0.6983(3) 0.0489(2) 0.06621(12)
C5 C 0.6059(4) 0.1663(3) 0.20190(19)
C6 C 0.5194(8) 0.2314(7) 0.2120(3)
H3 H 0.4551 0.2452 0.1827
C7 C 0.5210(8) 0.2794(7) 0.2642(3)
H4 H 0.4586 0.3256 0.2698
C8 C 0.6120(3) 0.1215(3) 0.14445(16)
C9 C 0.7207(3) 0.0756(3) 0.12087(14)
H5 H 0.8012 0.0649 0.1417
C10 C 0.5195(3) 0.1215(3) 0.09954(16)
H6 H 0.4333 0.1470 0.1009
C11 C 0.5072(4) 0.0511(3) 0.0000
H7 H 0.4159 0.0772 0.0000
O3 O 1.0000 0.0000 0.06095(14)
H8 H 1.017(4) 0.0522(17) 0.0801(17)
O4 O 0.7933(3) -0.1090(2) 0.0000
H9 H 0.810(4) -0.136(2) -0.0336(11)
O5 O 0.8953(4) 0.1548(3) 0.0000
H10 H 0.875(4) 0.1977(19) -0.0309(4)
O1A O 0.3008(3) -0.2996(2) 0.40102(12)
C1A C 0.3847(4) -0.3172(4) 0.3622(2)
O2A O 0.4622(4) -0.3831(3) 0.36322(17)
C2A C 0.3903(4) -0.2614(4) 0.3071(2)
C3A C 0.3114(5) -0.1920(4) 0.2994(2)
H1A H 0.2525 -0.1751 0.3302
N1A N 0.4264(2) -0.07867(19) 0.05333(11)
C4A C 0.3133(5) -0.1437(4) 0.2475(2)
H2A H 0.2570 -0.0938 0.2437
N2A N 0.3017(3) -0.0489(2) 0.06621(12)
C5A C 0.3941(4) -0.1663(3) 0.20190(19)
C6A C 0.4806(8) -0.2314(7) 0.2120(3)
H3A H 0.5449 -0.2452 0.1827
C7A C 0.4790(8) -0.2794(7) 0.2642(3)
H4A H 0.5414 -0.3256 0.2698
C8A C 0.3880(3) -0.1215(3) 0.14445(16)
C9A C 0.2793(3) -0.0756(3) 0.12087(14)
H5A H 0.1988 -0.0649 0.1417
C10A C 0.4805(3) -0.1215(3) 0.09954(16)
H6A H 0.5667 -0.1470 0.1009
C11A C 0.4928(4) -0.0511(3) 0.0000
H7A H 0.5841 -0.0772 0.0000
O1D O 0.3008(3) -0.2996(2) -0.40102(12)
C1D C 0.3847(4) -0.3172(4) -0.3622(2)
O2D O 0.4622(4) -0.3831(3) -0.36322(17)
C2D C 0.3903(4) -0.2614(4) -0.3071(2)
C3D C 0.3114(5) -0.1920(4) -0.2994(2)
H1D H 0.2525 -0.1751 -0.3302
N1D N 0.4264(2) -0.07867(19) -0.05333(11)
C4D C 0.3133(5) -0.1437(4) -0.2475(2)
H2D H 0.2570 -0.0938 -0.2437
N2D N 0.3017(3) -0.0489(2) -0.06621(12)
C5D C 0.3941(4) -0.1663(3) -0.20190(19)
C6D C 0.4806(8) -0.2314(7) -0.2120(3)
H3D H 0.5449 -0.2452 -0.1827
C7D C 0.4790(8) -0.2794(7) -0.2642(3)
H4D H 0.5414 -0.3256 -0.2698
C8D C 0.3880(3) -0.1215(3) -0.14445(16)
C9D C 0.2793(3) -0.0756(3) -0.12087(14)
H5D H 0.1988 -0.0649 -0.1417
C10D C 0.4805(3) -0.1215(3) -0.09954(16)
H6D H 0.5667 -0.1470 -0.1009
O1E O 0.6992(3) 0.2996(2) -0.40102(12)
C1E C 0.6153(4) 0.3172(4) -0.3622(2)
O2E O 0.5378(4) 0.3831(3) -0.36322(17)
C2E C 0.6097(4) 0.2614(4) -0.3071(2)
C3E C 0.6886(5) 0.1920(4) -0.2994(2)
H1E H 0.7475 0.1751 -0.3302
N1E N 0.5736(2) 0.07867(19) -0.05333(11)
C4E C 0.6867(5) 0.1437(4) -0.2475(2)
H2E H 0.7430 0.0938 -0.2437
N2E N 0.6983(3) 0.0489(2) -0.06621(12)
C5E C 0.6059(4) 0.1663(3) -0.20190(19)
C6E C 0.5194(8) 0.2314(7) -0.2120(3)
H3E H 0.4551 0.2452 -0.1827
C7E C 0.5210(8) 0.2794(7) -0.2642(3)
H4E H 0.4586 0.3256 -0.2698
C8E C 0.6120(3) 0.1215(3) -0.14445(16)
C9E C 0.7207(3) 0.0756(3) -0.12087(14)
H5E H 0.8012 0.0649 -0.1417
C10E C 0.5195(3) 0.1215(3) -0.09954(16)
H6E H 0.4333 0.1470 -0.1009
H8A H 0.983(4) -0.0522(17) 0.0801(17)
H9E H 0.810(4) -0.136(2) 0.0336(11)
H10E H 0.875(4) 0.1977(19) 0.0309(4)
Co1A Co 0.15708(6) -0.02263(5) 0.0000
O4A O 0.2067(3) 0.1090(2) 0.0000
H9A H 0.190(4) 0.136(2) -0.0336(11)
O5A O 0.1047(4) -0.1548(3) 0.0000
H10A H 0.125(4) -0.1977(19) -0.0309(4)
H9D H 0.190(4) 0.136(2) 0.0336(11)
H10D H 0.125(4) -0.1977(19) 0.0309(4)
O3D O 1.0000 0.0000 -0.06095(14)
H8E H 1.017(4) 0.0522(17) -0.0801(17)
H8D H 0.983(4) -0.0522(17) -0.0801(17)
Co1A_2 Co 1.15708(6) -0.02263(5) 0.0000
O3_2 O 0.0000 0.0000 0.06095(14)
O3D_2 O 0.0000 0.0000 -0.06095(14)
loop_
_geom_bond_atom_site_label_1
_geom_bond_atom_site_label_2
_geom_bond_site_symmetry_1
_geom_bond_site_symmetry_2
Co1 N2 1_555 1_555
O1 C1 1_555 1_555
C1 O2 1_555 1_555
C2 C1 1_555 1_555
C3 C2 1_555 1_555
H1 C3 1_555 1_555
N1 N2 1_555 1_555
C4 C3 1_555 1_555
H2 C4 1_555 1_555
N2 C9 1_555 1_555
C5 C4 1_555 1_555
C6 C5 1_555 1_555
H3 C6 1_555 1_555
C7 C2 1_555 1_555
H4 C7 1_555 1_555
C8 C5 1_555 1_555
C9 C8 1_555 1_555
H5 C9 1_555 1_555
C10 N1 1_555 1_555
H6 C10 1_555 1_555
C11 N1 1_555 1_555
H7 C11 1_555 1_555
O3 Co1 1_555 1_555
H8 O3 1_555 1_555
O4 Co1 1_555 1_555
H9 O4 1_555 1_555
O5 Co1 1_555 1_555
H10 O5 1_555 1_555
O1A C1A 1_555 1_555
C1A O2A 1_555 1_555
C2A C1A 1_555 1_555
C3A C2A 1_555 1_555
H1A C3A 1_555 1_555
N1A N2A 1_555 1_555
C4A C3A 1_555 1_555
H2A C4A 1_555 1_555
N2A C9A 1_555 1_555
C5A C4A 1_555 1_555
C6A C5A 1_555 1_555
H3A C6A 1_555 1_555
C7A C2A 1_555 1_555
H4A C7A 1_555 1_555
C8A C5A 1_555 1_555
C9A C8A 1_555 1_555
H5A C9A 1_555 1_555
C10A N1A 1_555 1_555
H6A C10A 1_555 1_555
C11A C11 1_555 1_555
H7A C11A 1_555 1_555
O1D C1D 1_555 1_555
C1D O2D 1_555 1_555
C2D C1D 1_555 1_555
C3D C2D 1_555 1_555
H1D C3D 1_555 1_555
N1D C11A 1_555 1_555
C4D C3D 1_555 1_555
H2D C4D 1_555 1_555
N2D N1D 1_555 1_555
C5D C4D 1_555 1_555
C6D C5D 1_555 1_555
H3D C6D 1_555 1_555
C7D C2D 1_555 1_555
H4D C7D 1_555 1_555
C8D C5D 1_555 1_555
C9D N2D 1_555 1_555
H5D C9D 1_555 1_555
C10D N1D 1_555 1_555
H6D C10D 1_555 1_555
O1E C1E 1_555 1_555
C1E O2E 1_555 1_555
C2E C1E 1_555 1_555
C3E C2E 1_555 1_555
H1E C3E 1_555 1_555
N1E C11 1_555 1_555
C4E C3E 1_555 1_555
H2E C4E 1_555 1_555
N2E Co1 1_555 1_555
C5E C4E 1_555 1_555
C6E C5E 1_555 1_555
H3E C6E 1_555 1_555
C7E C2E 1_555 1_555
H4E C7E 1_555 1_555
C8E C5E 1_555 1_555
C9E N2E 1_555 1_555
H5E C9E 1_555 1_555
C10E N1E 1_555 1_555
H6E C10E 1_555 1_555
H8A O3 1_555 1_555
H9E O4 1_555 1_555
H10E O5 1_555 1_555
Co1A N2A 1_555 1_555
O4A Co1A 1_555 1_555
H9A O4A 1_555 1_555
O5A Co1A 1_555 1_555
H10A O5A 1_555 1_555
H9D O4A 1_555 1_555
H10D O5A 1_555 1_555
O3D Co1 1_555 1_555
H8E O3D 1_555 1_555
H8D O3D 1_555 1_555
Co1A_2 O3 1_555 1_555
O3_2 Co1A 1_555 1_555
O3D_2 Co1A 1_555 1_555
C6 C7 1_555 1_555
C8 C10 1_555 1_555
N1A C11A 1_555 1_555
C6A C7A 1_555 1_555
C8A C10A 1_555 1_555
N2D Co1A 1_555 1_555
C6D C7D 1_555 1_555
C8D C9D 1_555 1_555
C8D C10D 1_555 1_555
N1E N2E 1_555 1_555
C6E C7E 1_555 1_555
C8E C9E 1_555 1_555
C8E C10E 1_555 1_555
O3D Co1A_2 1_555 1_555

#END
