
#######################################################################
#
#                 Cambridge Crystallographic Data Centre
#                                CCDC 
#
#######################################################################
#
# If this CIF has been generated from an entry in the Cambridge 
# Structural Database, then it will include bibliographic, chemical, 
# crystal, experimental, refinement or atomic coordinate data resulting 
# from the CCDC's data processing and validation procedures.
#
#######################################################################

data_QIXNES
_symmetry_cell_setting           monoclinic
_symmetry_space_group_name_H-M   'P 21/c'
_symmetry_Int_Tables_number      14
_space_group_name_Hall           '-P 2ybc'
loop_
_symmetry_equiv_pos_site_id
_symmetry_equiv_pos_as_xyz
1 x,y,z
2 -x,1/2+y,1/2-z
3 -x,-y,-z
4 x,1/2-y,1/2+z
_cell_length_a                   9.8605(6)
_cell_length_b                   29.2100(16)
_cell_length_c                   10.8652(6)
_cell_angle_alpha                90
_cell_angle_beta                 92.2030(10)
_cell_angle_gamma                90
_cell_volume                     3127.14
loop_
_atom_site_label
_atom_site_type_symbol
_atom_site_fract_x
_atom_site_fract_y
_atom_site_fract_z
C1 C 0.0749(4) 0.34892(14) -0.0874(4)
C2 C -0.0172(4) 0.38012(15) -0.1317(4)
H1 H 0.0133 0.4075 -0.1644
C3 C -0.1581(4) 0.37174(15) -0.1292(4)
H2 H -0.2190 0.3927 -0.1644
C4 C -0.2059(4) 0.33279(13) -0.0750(4)
C5 C -0.1127(4) 0.30112(13) -0.0173(4)
C6 C -0.1569(4) 0.26445(14) 0.0585(4)
C7 C -0.0646(4) 0.23335(16) 0.1049(4)
H3 H -0.0937 0.2099 0.1555
C8 C 0.0735(4) 0.23608(15) 0.0774(4)
H4 H 0.1330 0.2134 0.1059
C9 C 0.1213(4) 0.27134(14) 0.0099(4)
C10 C 0.0300(4) 0.30705(14) -0.0338(4)
C11 C 0.2183(4) 0.36542(13) -0.0797(4)
C12 C -0.3540(4) 0.32248(14) -0.0992(4)
C13 C -0.2975(4) 0.26168(15) 0.1058(4)
C14 C 0.2661(4) 0.26758(13) -0.0288(4)
C15 C 0.0264(4) 0.48603(16) 0.2287(4)
H5 H 0.0574 0.4824 0.3101
C16 C 0.1173(4) 0.48905(14) 0.1391(4)
C17 C 0.2627(4) 0.47647(14) 0.1729(4)
C18 C 0.0716(4) 0.49891(13) 0.0143(4)
C19 C 0.1617(4) 0.50630(13) -0.0825(4)
C20 C 0.3104(4) 0.51416(14) -0.0589(4)
C21 C 0.1135(4) 0.51170(15) -0.2018(4)
H6 H 0.1740 0.5139 -0.2651
O1 O 0.2626(3) 0.39038(10) -0.1653(3)
O2 O 0.2909(3) 0.35843(9) 0.0156(3)
O3 O -0.4373(3) 0.35445(10) -0.0963(3)
O4 O -0.3845(3) 0.28236(9) -0.1300(3)
O5 O -0.3545(3) 0.29649(10) 0.1466(3)
O6 O -0.3556(3) 0.22301(9) 0.1114(3)
O7 O 0.2872(3) 0.27274(9) -0.1408(2)
O8 O 0.3553(3) 0.25522(10) 0.0492(3)
O9 O 0.3135(3) 0.49080(11) 0.2733(3)
O10 O 0.3223(3) 0.44993(10) 0.1016(3)
O11 O 0.3415(3) 0.54595(10) 0.0141(3)
O12 O 0.3931(3) 0.49032(10) -0.1161(3)
O13 O 0.5214(4) 0.42853(11) -0.2512(3)
H7 H 0.566(5) 0.4088(11) -0.291(4)
H8 H 0.556(5) 0.4547(8) -0.262(5)
O14 O 0.5491(4) 0.38864(12) 0.1468(3)
H9 H 0.591(5) 0.3634(11) 0.151(4)
H10 H 0.551(6) 0.4023(14) 0.214(3)
O15 O -0.6826(4) 0.31720(11) 0.2375(3)
H11 H -0.689(6) 0.3334(14) 0.173(2)
H12 H -0.684(6) 0.3334(14) 0.303(2)
O16 O -0.4597(4) 0.30512(11) 0.3859(3)
H13 H -0.491(5) 0.3302(11) 0.402(5)
H14 H -0.402(5) 0.2954(16) 0.439(4)
O17 O -0.5960(4) 0.17524(10) 0.1799(3)
H15 H -0.617(5) 0.1566(13) 0.235(3)
H16 H -0.592(5) 0.1624(14) 0.111(2)
Y1 Y 0.45448(4) 0.418555(13) -0.04159(4)
Y2 Y -0.54043(4) 0.251663(14) 0.23669(4)
C15B C -0.0264(4) 0.51397(16) -0.2287(4)
H5B H -0.0574 0.5176 -0.3101
C16B C -0.1173(4) 0.51095(14) -0.1391(4)
C17B C -0.2627(4) 0.52353(14) -0.1729(4)
C18B C -0.0716(4) 0.50109(13) -0.0143(4)
C19B C -0.1617(4) 0.49370(13) 0.0825(4)
C20B C -0.3104(4) 0.48584(14) 0.0589(4)
C21B C -0.1135(4) 0.48830(15) 0.2018(4)
H6B H -0.1740 0.4861 0.2651
O9B O -0.3135(3) 0.50920(11) -0.2733(3)
O10B O -0.3223(3) 0.55007(10) -0.1016(3)
O11B O -0.3415(3) 0.45405(10) -0.0141(3)
O12B O -0.3931(3) 0.50968(10) 0.1161(3)
C1B C -0.0749(4) 0.65108(14) 0.0874(4)
C2B C 0.0172(4) 0.61988(15) 0.1317(4)
H1B H -0.0133 0.5925 0.1644
C3B C 0.1581(4) 0.62826(15) 0.1292(4)
H2B H 0.2190 0.6073 0.1644
C4B C 0.2059(4) 0.66721(13) 0.0750(4)
C5B C 0.1127(4) 0.69888(13) 0.0173(4)
C6B C 0.1569(4) 0.73555(14) -0.0585(4)
C7B C 0.0646(4) 0.76665(16) -0.1049(4)
H3B H 0.0937 0.7901 -0.1555
C8B C -0.0735(4) 0.76392(15) -0.0774(4)
H4B H -0.1330 0.7866 -0.1059
C9B C -0.1213(4) 0.72866(14) -0.0099(4)
C10B C -0.0300(4) 0.69295(14) 0.0338(4)
C11B C -0.2183(4) 0.63458(13) 0.0797(4)
C12B C 0.3540(4) 0.67752(14) 0.0992(4)
C13B C 0.2975(4) 0.73832(15) -0.1058(4)
C14B C -0.2661(4) 0.73242(13) 0.0288(4)
O1B O -0.2626(3) 0.60962(10) 0.1653(3)
O2B O -0.2909(3) 0.64157(9) -0.0156(3)
O3B O 0.4373(3) 0.64555(10) 0.0963(3)
O4B O 0.3845(3) 0.71764(9) 0.1300(3)
O5B O 0.3545(3) 0.70351(10) -0.1466(3)
O6B O 0.3556(3) 0.77699(9) -0.1114(3)
O7B O -0.2872(3) 0.72726(9) 0.1408(2)
O8B O -0.3553(3) 0.74478(10) -0.0492(3)
O13B O -0.5214(4) 0.57147(11) 0.2512(3)
H7B H -0.566(5) 0.5912(11) 0.291(4)
H8B H -0.556(5) 0.5453(8) 0.262(5)
O14B O -0.5491(4) 0.61136(12) -0.1468(3)
H9B H -0.591(5) 0.6366(11) -0.151(4)
H10B H -0.551(6) 0.5977(14) -0.214(3)
O15B O 0.6826(4) 0.68280(11) -0.2375(3)
H11B H 0.689(6) 0.6666(14) -0.173(2)
H12B H 0.684(6) 0.6666(14) -0.303(2)
O16B O 0.4597(4) 0.69488(11) -0.3859(3)
H13B H 0.491(5) 0.6698(11) -0.402(5)
H14B H 0.402(5) 0.7046(16) -0.439(4)
O17B O 0.5960(4) 0.82476(10) -0.1799(3)
H15B H 0.617(5) 0.8434(13) -0.235(3)
H16B H 0.592(5) 0.8376(14) -0.111(2)
Y1B Y -0.45448(4) 0.581445(13) 0.04159(4)
Y2B Y 0.54043(4) 0.748337(14) -0.23669(4)
O3_2 O 0.5627(3) 0.35445(10) -0.0963(3)
O3B_2 O -0.5627(3) 0.64555(10) 0.0963(3)
O4A O 0.3845(3) 0.78236(9) -0.3700(3)
O4C O -0.3845(3) 0.21764(9) 0.3700(3)
O7A O 0.7128(3) 0.77274(9) -0.3592(2)
O7C O -0.7128(3) 0.22726(9) 0.3592(2)
O8_2 O -0.6447(3) 0.25522(10) 0.0492(3)
O8B_2 O 0.6447(3) 0.74478(10) -0.0492(3)
O11_2 O -0.6585(3) 0.54595(10) 0.0141(3)
O11B_2 O 0.6585(3) 0.45405(10) -0.0141(3)
Y1_2 Y -0.54552(4) 0.418555(13) -0.04159(4)
Y1B_2 Y 0.54552(4) 0.581445(13) 0.04159(4)
Y2_2 Y 0.45957(4) 0.251663(14) 0.23669(4)
Y2A Y -0.45957(4) 0.751663(14) 0.26331(4)
Y2A_2 Y 0.54043(4) 0.751663(14) 0.26331(4)
Y2B_2 Y -0.45957(4) 0.748337(14) -0.23669(4)
Y2C Y -0.54043(4) 0.248337(14) -0.26331(4)
Y2C_2 Y 0.45957(4) 0.248337(14) -0.26331(4)
O18 O 0.1755(4) 0.42210(14) 0.5948(4)
H17 H 0.209(6) 0.4117(19) 0.661(4)
H18 H 0.219(6) 0.4448(16) 0.569(5)
O19 O 0.5312(5) 0.43905(13) 0.3594(4)
H19 H 0.471(4) 0.4592(15) 0.340(6)
H20 H 0.595(4) 0.4533(17) 0.401(5)
O20 O 0.2485(5) 0.51199(14) 0.5116(3)
H21 H 0.275(6) 0.507(2) 0.439(3)
H22 H 0.193(6) 0.5347(16) 0.510(5)
O21 O 0.6722(4) 0.37415(14) 0.5973(4)
H23 H 0.753(3) 0.383(2) 0.583(6)
H24 H 0.674(6) 0.3519(16) 0.646(5)
O22 O 0.3549(5) 0.37491(14) 0.4490(5)
H25 H 0.413(5) 0.3972(17) 0.449(7)
H26 H 0.283(4) 0.385(2) 0.481(6)
O23 O 0.9136(5) 0.40919(16) 0.4925(4)
H27 H 0.9932 0.4136 0.5230
H28 H 0.8961 0.3972 0.4224
O24 O -0.1244(19) 0.3669(7) 0.2577(18)
O25? O -0.122(2) 0.3416(8) 0.315(2)
loop_
_geom_bond_atom_site_label_1
_geom_bond_atom_site_label_2
_geom_bond_site_symmetry_1
_geom_bond_site_symmetry_2
C1 C2 1_555 1_555
C2 H1 1_555 1_555
C3 C2 1_555 1_555
H2 C3 1_555 1_555
C4 C3 1_555 1_555
C5 C4 1_555 1_555
C6 C5 1_555 1_555
C7 C6 1_555 1_555
H3 C7 1_555 1_555
C8 C7 1_555 1_555
H4 C8 1_555 1_555
C9 C8 1_555 1_555
C10 C1 1_555 1_555
C11 C1 1_555 1_555
C12 C4 1_555 1_555
C13 C6 1_555 1_555
C14 C9 1_555 1_555
C15 H5 1_555 1_555
C16 C15 1_555 1_555
C17 C16 1_555 1_555
C18 C16 1_555 1_555
C19 C18 1_555 1_555
C20 C19 1_555 1_555
C21 C19 1_555 1_555
H6 C21 1_555 1_555
O1 C11 1_555 1_555
O2 C11 1_555 1_555
O3 C12 1_555 1_555
O4 C12 1_555 1_555
O5 C13 1_555 1_555
O6 C13 1_555 1_555
O7 C14 1_555 1_555
O8 C14 1_555 1_555
O9 C17 1_555 1_555
O10 C17 1_555 1_555
O11 C20 1_555 1_555
O12 C20 1_555 1_555
O13 H7 1_555 1_555
H8 O13 1_555 1_555
O14 H9 1_555 1_555
H10 O14 1_555 1_555
O15 H11 1_555 1_555
H12 O15 1_555 1_555
O16 H13 1_555 1_555
H14 O16 1_555 1_555
O17 H15 1_555 1_555
H16 O17 1_555 1_555
Y1 O1 1_555 1_555
Y2 O5 1_555 1_555
O18 H17 1_555 1_555
H18 O18 1_555 1_555
O19 H19 1_555 1_555
H20 O19 1_555 1_555
O20 H21 1_555 1_555
H22 O20 1_555 1_555
O21 H23 1_555 1_555
H24 O21 1_555 1_555
O22 H25 1_555 1_555
H26 O22 1_555 1_555
O23 H27 1_555 1_555
H28 O23 1_555 1_555
C15B C21 1_555 1_555
H5B C15B 1_555 1_555
C16B C15B 1_555 1_555
C17B C16B 1_555 1_555
C18B C18 1_555 1_555
C19B C18B 1_555 1_555
C20B C19B 1_555 1_555
C21B C15 1_555 1_555
H6B C21B 1_555 1_555
O9B C17B 1_555 1_555
O10B C17B 1_555 1_555
O11B C20B 1_555 1_555
O12B C20B 1_555 1_555
C1B C2B 1_555 1_555
C2B H1B 1_555 1_555
C3B C2B 1_555 1_555
H2B C3B 1_555 1_555
C4B C3B 1_555 1_555
C5B C4B 1_555 1_555
C6B C5B 1_555 1_555
C7B C6B 1_555 1_555
H3B C7B 1_555 1_555
C8B C7B 1_555 1_555
H4B C8B 1_555 1_555
C9B C8B 1_555 1_555
C10B C1B 1_555 1_555
C11B C1B 1_555 1_555
C12B C4B 1_555 1_555
C13B C6B 1_555 1_555
C14B C9B 1_555 1_555
O1B C11B 1_555 1_555
O2B C11B 1_555 1_555
O3B C12B 1_555 1_555
O4B C12B 1_555 1_555
O5B C13B 1_555 1_555
O6B C13B 1_555 1_555
O7B C14B 1_555 1_555
O8B C14B 1_555 1_555
O13B H7B 1_555 1_555
H8B O13B 1_555 1_555
O14B H9B 1_555 1_555
H10B O14B 1_555 1_555
O15B H11B 1_555 1_555
H12B O15B 1_555 1_555
O16B H13B 1_555 1_555
H14B O16B 1_555 1_555
O17B H15B 1_555 1_555
H16B O17B 1_555 1_555
Y1B O10B 1_555 1_555
Y2B O5B 1_555 1_555
O3_2 Y1 1_555 1_555
O3B_2 Y1B 1_555 1_555
O4A Y2B 1_555 1_555
O4C Y2 1_555 1_555
O7A Y2B 1_555 1_555
O7C Y2 1_555 1_555
O8_2 Y2 1_555 1_555
O8B_2 Y2B 1_555 1_555
O11_2 Y1B 1_555 1_555
O11B_2 Y1 1_555 1_555
Y1_2 O3 1_555 1_555
Y1B_2 O11 1_555 1_555
Y2_2 O8 1_555 1_555
Y2A O7B 1_555 1_555
Y2A_2 O4B 1_555 1_555
Y2B_2 O8B 1_555 1_555
Y2C O4 1_555 1_555
Y2C_2 O7 1_555 1_555
C5 C10 1_555 1_555
C9 C10 1_555 1_555
O2 Y1 1_555 1_555
O6 Y2 1_555 1_555
O10 Y1 1_555 1_555
O12 Y1 1_555 1_555
O13 Y1 1_555 1_555
O14 Y1 1_555 1_555
O15 Y2 1_555 1_555
O16 Y2 1_555 1_555
O17 Y2 1_555 1_555
C16B C18B 1_555 1_555
C19B C21B 1_555 1_555
O11B Y1_2 1_555 1_555
O12B Y1B 1_555 1_555
C5B C10B 1_555 1_555
C9B C10B 1_555 1_555
O1B Y1B 1_555 1_555
O2B Y1B 1_555 1_555
O3B Y1B_2 1_555 1_555
O6B Y2B 1_555 1_555
O13B Y1B 1_555 1_555
O14B Y1B 1_555 1_555
O15B Y2B 1_555 1_555
O16B Y2B 1_555 1_555
O17B Y2B 1_555 1_555

#END
