
#######################################################################
#
#                 Cambridge Crystallographic Data Centre
#                                CCDC 
#
#######################################################################
#
# If this CIF has been generated from an entry in the Cambridge 
# Structural Database, then it will include bibliographic, chemical, 
# crystal, experimental, refinement or atomic coordinate data resulting 
# from the CCDC's data processing and validation procedures.
#
#######################################################################

data_QIZLOC
_symmetry_cell_setting           monoclinic
_symmetry_space_group_name_H-M   'C 2/c'
_symmetry_Int_Tables_number      15
_space_group_name_Hall           '-C 2yn'
loop_
_symmetry_equiv_pos_site_id
_symmetry_equiv_pos_as_xyz
1 x,y,z
2 -x,y,1/2-z
3 1/2+x,1/2+y,z
4 1/2-x,1/2+y,1/2-z
5 -x,-y,-z
6 x,-y,1/2+z
7 1/2-x,1/2-y,-z
8 1/2+x,1/2-y,1/2+z
_cell_length_a                   38.391(6)
_cell_length_b                   12.3697(11)
_cell_length_c                   14.1757(14)
_cell_angle_alpha                90
_cell_angle_beta                 90.165(10)
_cell_angle_gamma                90
_cell_volume                     6731.8
loop_
_atom_site_label
_atom_site_type_symbol
_atom_site_fract_x
_atom_site_fract_y
_atom_site_fract_z
Se1 Se 0.02364(7) 0.05108(17) 0.14787(13)
Cu1 Cu 0.22393(9) 0.3107(2) -0.00833(19)
Cu2 Cu 0.05692(8) 0.0045(2) -0.06178(16)
Cu3 Cu 0.04228(10) 0.2412(2) 0.05900(15)
Cu4 Cu 0.04824(9) 0.2238(2) 0.30615(15)
O1 O 0.2028(6) -0.2380(15) -0.4078(11)
O2 O 0.2508(6) -0.1304(15) -0.3837(12)
O3 O 0.2520(6) 0.0958(17) -0.0769(13)
O4 O 0.2070(6) 0.2009(15) -0.0845(13)
O5 O 0.1022(5) -0.0302(16) -0.1042(13)
O6 O 0.0972(6) -0.1602(17) -0.2086(13)
O7 O 0.0486(7) 0.2869(13) -0.0651(10)
O8 O 0.0563(6) 0.1282(12) -0.1430(9)
O9 O 0.0468(7) 0.6214(11) -0.3980(10)
O10 O 0.0443(5) 0.6233(11) -0.2393(8)
O11 O 0.0489(6) 0.2705(12) -0.5657(9)
O12 O 0.0539(4) 0.1190(11) -0.4782(9)
O13 O 0.0300(4) 0.0905(10) 0.0323(7)
O14 O 0.0352(5) 0.1782(11) 0.1816(8)
O15 O -0.0169(5) 0.0642(10) 0.1551(8)
C1 C 0.2193(8) -0.168(2) -0.3648(16)
C2 C 0.2030(8) -0.112(2) -0.2833(16)
C3 C 0.1690(8) -0.128(2) -0.2640(17)
H1 H 0.1569 -0.1780 -0.3000
C4 C 0.1512(7) -0.0732(18) -0.1938(16)
C5 C 0.1697(9) 0.014(3) -0.1457(18)
H2 H 0.1578 0.0586 -0.1043
C6 C 0.2038(9) 0.0287(18) -0.1606(16)
C7 C 0.2200(8) -0.031(2) -0.2326(16)
H3 H 0.2431 -0.0153 -0.2472
C8 C 0.2196(9) 0.113(3) -0.1046(19)
C9 C 0.1119(8) -0.093(2) -0.1677(19)
C10 C 0.0525(9) 0.228(2) -0.1363(15)
C11 C 0.0506(7) 0.2896(17) -0.2294(12)
C12 C 0.0530(7) 0.2346(18) -0.3146(15)
H4 H 0.0562 0.1601 -0.3133
C13 C 0.0509(7) 0.2829(17) -0.3970(11)
C14 C 0.0491(7) 0.3988(19) -0.4006(14)
H5 H 0.0495 0.4351 -0.4580
C15 C 0.0467(7) 0.4551(17) -0.3163(13)
C16 C 0.0497(7) 0.3988(16) -0.2330(13)
H6 H 0.0511 0.4375 -0.1769
C17 C 0.0452(7) 0.5772(19) -0.3197(17)
C18 C 0.0522(7) 0.220(3) -0.4881(14)
Cu1C Cu 0.27607(9) -0.1893(2) -0.49167(19)
Cu1E Cu 0.22393(9) -0.3107(2) -0.50833(19)
Cu1F Cu 0.27607(9) 0.1893(2) 0.00833(19)
Cu2D Cu -0.05692(8) -0.0045(2) 0.06178(16)
Cu2E Cu 0.05692(8) -0.0045(2) -0.56178(16)
Cu3E Cu 0.04228(10) 0.7588(2) -0.44100(15)
Cu4_2 Cu 0.04824(9) 0.2238(2) -0.69385(15)
Cu4A Cu -0.04824(9) 0.2238(2) 0.19385(15)
Cu4E Cu 0.04824(9) -0.2238(2) -0.19385(15)
Cu4E_2 Cu 0.04824(9) 0.7762(2) -0.19385(15)
O1E O 0.2028(6) 0.2380(15) 0.0922(11)
O2C O 0.2492(6) 0.3696(15) -0.1163(12)
O3F O 0.2480(6) 0.4042(17) 0.0769(13)
O6E O 0.0972(6) 0.1602(17) 0.2914(13)
O9E O 0.0468(7) 0.3786(11) 0.1020(10)
O10E O 0.0443(5) 0.3767(11) 0.2607(8)
O11_2 O 0.0489(6) 0.2705(12) 0.4343(9)
O12E O 0.0539(4) -0.1190(11) 0.0218(9)
O15A O 0.0169(5) 0.0642(10) 0.3449(8)
O15D O 0.0169(5) -0.0642(10) -0.1551(8)
loop_
_geom_bond_atom_site_label_1
_geom_bond_atom_site_label_2
_geom_bond_site_symmetry_1
_geom_bond_site_symmetry_2
Se1 O13 1_555 1_555
Cu1 O4 1_555 1_555
Cu2 O5 1_555 1_555
Cu3 O7 1_555 1_555
Cu4 O14 1_555 1_555
O1 C1 1_555 1_555
O2 C1 1_555 1_555
O3 C8 1_555 1_555
O4 C8 1_555 1_555
O5 C9 1_555 1_555
O6 C9 1_555 1_555
O7 C10 1_555 1_555
O8 Cu2 1_555 1_555
O9 C17 1_555 1_555
O10 C17 1_555 1_555
O11 C18 1_555 1_555
O12 C18 1_555 1_555
O13 Cu2 1_555 1_555
O14 Se1 1_555 1_555
O15 Se1 1_555 1_555
C1 C2 1_555 1_555
C2 C3 1_555 1_555
C3 H1 1_555 1_555
C4 C3 1_555 1_555
C5 C4 1_555 1_555
H2 C5 1_555 1_555
C6 C5 1_555 1_555
C7 C2 1_555 1_555
H3 C7 1_555 1_555
C8 C6 1_555 1_555
C9 C4 1_555 1_555
C10 O8 1_555 1_555
C11 C10 1_555 1_555
C12 C11 1_555 1_555
H4 C12 1_555 1_555
C13 C12 1_555 1_555
C14 C13 1_555 1_555
H5 C14 1_555 1_555
C15 C14 1_555 1_555
C16 C11 1_555 1_555
H6 C16 1_555 1_555
C17 C15 1_555 1_555
C18 C13 1_555 1_555
Cu1C O2 1_555 1_555
Cu1E O1 1_555 1_555
Cu1F Cu1 1_555 1_555
Cu2D O15 1_555 1_555
Cu2E O12 1_555 1_555
Cu3E O9 1_555 1_555
Cu4_2 O11 1_555 1_555
Cu4A O15 1_555 1_555
Cu4E O6 1_555 1_555
Cu4E_2 O10 1_555 1_555
O1E Cu1 1_555 1_555
O2C Cu1 1_555 1_555
O3F Cu1 1_555 1_555
O6E Cu4 1_555 1_555
O9E Cu3 1_555 1_555
O10E Cu4 1_555 1_555
O11_2 Cu4 1_555 1_555
O12E Cu2 1_555 1_555
O15A Cu4 1_555 1_555
O15D Cu2 1_555 1_555
Cu3 O13 1_555 1_555
Cu3 O14 1_555 1_555
O3 Cu1F 1_555 1_555
C6 C7 1_555 1_555
C15 C16 1_555 1_555
Cu1C Cu1E 1_555 1_555
Cu4E O15D 1_555 1_555

#END
