
#######################################################################
#
#                 Cambridge Crystallographic Data Centre
#                                CCDC 
#
#######################################################################
#
# If this CIF has been generated from an entry in the Cambridge 
# Structural Database, then it will include bibliographic, chemical, 
# crystal, experimental, refinement or atomic coordinate data resulting 
# from the CCDC's data processing and validation procedures.
#
#######################################################################

data_QODHUO12
_symmetry_cell_setting           monoclinic
_symmetry_space_group_name_H-M   'C 2/c'
_symmetry_Int_Tables_number      15
_space_group_name_Hall           '-C 2yn'
loop_
_symmetry_equiv_pos_site_id
_symmetry_equiv_pos_as_xyz
1 x,y,z
2 -x,y,1/2-z
3 1/2+x,1/2+y,z
4 1/2-x,1/2+y,1/2-z
5 -x,-y,-z
6 x,-y,1/2+z
7 1/2-x,1/2-y,-z
8 1/2+x,1/2-y,1/2+z
_cell_length_a                   22.0639(8)
_cell_length_b                   16.3382(4)
_cell_length_c                   25.6170(10)
_cell_angle_alpha                90
_cell_angle_beta                 115.311(4)
_cell_angle_gamma                90
_cell_volume                     8348.02
loop_
_atom_site_label
_atom_site_type_symbol
_atom_site_fract_x
_atom_site_fract_y
_atom_site_fract_z
Ag1 Ag -0.15593(2) 0.45744(3) -0.632172(17)
Ag2 Ag 0.32296(2) 0.25214(3) -0.132750(17)
C1 C 0.1237(2) 0.2570(3) -0.4976(2)
C2 C 0.7780(3) 0.6377(3) 0.0092(2)
H1 H 0.7987 0.6341 0.0493
C3 C 0.2351(3) 0.0650(3) -0.6117(2)
H2 H 0.2132 0.0583 -0.6515
C4 C 0.5978(2) 0.4700(3) 0.0010(2)
C5 C 0.2981(2) 0.0842(3) -0.4951(2)
H3 H 0.3204 0.0886 -0.4551
C6 C 0.0331(3) 0.3122(3) -0.5889(2)
H4 H 0.0545 0.2908 -0.6101
C7 C 0.4437(3) 0.3430(3) -0.0351(2)
H5 H 0.4236 0.3148 -0.0152
C8 C 0.5034(2) 0.3835(3) -0.0035(2)
H6 H 0.5230 0.3821 0.0367
C9 C 0.0600(2) 0.3022(3) -0.5298(2)
C10 C 0.2099(2) 0.2269(3) -0.4123(2)
C11 C 0.6789(3) 0.4561(4) 0.1813(2)
H7 H 0.6348 0.4385 0.1614
C12 C 0.7198(2) 0.6520(3) -0.1079(2)
H8 H 0.6998 0.6563 -0.1480
C13 C 0.6825(2) 0.5518(3) 0.0068(2)
C14 C 0.5334(2) 0.4262(3) -0.0329(2)
C15 C 0.6805(2) 0.5021(3) 0.0883(2)
C16 C 0.2436(2) 0.2374(3) -0.3483(2)
C17 C 0.0261(3) 0.3356(3) -0.5000(2)
H9 H 0.0434 0.3309 -0.4601
C18 C 0.7155(2) 0.6011(3) -0.0224(2)
C19 C 0.3259(2) 0.0409(3) -0.5259(2)
H10 H 0.3681 0.0177 -0.5057
C20 C 0.6857(2) 0.6096(3) -0.0815(2)
H11 H 0.6436 0.5874 -0.1034
C21 C 0.8085(3) 0.6797(3) -0.0206(2)
H12 H 0.8501 0.7036 0.0005
C22 C -0.0265(2) 0.3547(3) -0.6159(2)
H13 H -0.0436 0.3629 -0.6555
C23 C 0.2359(2) 0.1210(3) -0.5255(2)
C24 C -0.0332(3) 0.3754(4) -0.5304(2)
H14 H -0.0557 0.3973 -0.5101
C25 C 0.2054(2) 0.1721(3) -0.4949(2)
C26 C 0.2039(2) 0.1101(3) -0.5848(2)
H15 H 0.1618 0.1329 -0.6061
C27 C 0.8076(3) 0.5049(4) 0.2425(2)
H16 H 0.8519 0.5215 0.2632
C28 C 0.5024(3) 0.4269(3) -0.0928(2)
H17 H 0.5205 0.4563 -0.1138
C29 C 0.4438(3) 0.3830(3) -0.1204(2)
H18 H 0.4243 0.3815 -0.1605
C30 C 0.2157(3) 0.2891(3) -0.3218(2)
H19 H 0.1775 0.3193 -0.3436
C31 C 0.3023(3) 0.1975(3) -0.3151(2)
H20 H 0.3238 0.1650 -0.3319
C32 C 0.3283(3) 0.2074(4) -0.2557(2)
H21 H 0.3678 0.1798 -0.2331
C33 C 0.7123(2) 0.4924(3) 0.1520(2)
C34 C 0.7781(3) 0.5167(3) 0.1832(2)
H22 H 0.8021 0.5405 0.1648
C35 C 0.7123(3) 0.4467(4) 0.2406(2)
H23 H 0.6896 0.4225 0.2600
C36 C 0.2454(3) 0.2951(4) -0.2626(2)
H24 H 0.2261 0.3297 -0.2451
N1 N -0.0607(2) 0.3847(3) -0.58778(18)
N2 N 0.2955(2) 0.0305(2) -0.58323(18)
N3 N 0.3008(2) 0.2536(3) -0.22886(19)
N4 N 0.1531(2) 0.2682(3) -0.44072(17)
N5 N 0.1480(2) 0.2101(3) -0.52740(18)
N6 N 0.2383(2) 0.1778(3) -0.43694(18)
N7 N 0.4134(2) 0.3423(3) -0.09275(18)
N8 N 0.7802(2) 0.6870(2) -0.07837(18)
N9 N 0.7761(2) 0.4711(3) 0.27159(19)
N10 N 0.6228(2) 0.4627(3) 0.05881(18)
N11 N 0.62633(19) 0.5113(2) -0.02696(17)
N12 N 0.7115(2) 0.5497(3) 0.06481(18)
Ag1_2 Ag 0.84407(2) 0.45744(3) 0.367828(17)
Ag1B Ag 0.34407(2) -0.04256(3) -0.632172(17)
Ag2B Ag 0.82296(2) 0.75214(3) -0.132750(17)
N2B N -0.2045(2) 0.5305(2) -0.58323(18)
N8B N 0.2802(2) 0.1870(2) -0.07837(18)
N9_2 N -0.2239(2) 0.4711(3) -0.72841(19)
Mo1 Mo 0.0000 0.46060(5) -0.7500
Mo2 Mo -0.00134(2) 0.58828(3) -0.639542(18)
Mo3 Mo -0.01051(2) 0.79168(3) -0.643672(19)
Mo4 Mo 0.0000 0.90534(5) -0.7500
Mo5 Mo -0.09146(2) 0.69332(3) -0.790980(19)
O1 O 0.0619(3) 0.3969(4) -0.7054(3)
O2 O -0.0347(2) 0.5133(2) -0.70680(17)
O3 O -0.07359(19) 0.5828(3) -0.63085(17)
O4 O 0.0520(2) 0.5243(3) -0.58730(18)
O5 O 0.03301(19) 0.6898(2) -0.60673(17)
O6 O -0.0517(2) 0.6853(2) -0.71407(17)
O7 O -0.0753(2) 0.6039(3) -0.82271(18)
O8 O -0.17593(18) 0.6990(2) -0.81620(19)
O9 O -0.0792(2) 0.7871(3) -0.62944(19)
O10 O 0.0407(2) 0.8568(3) -0.59368(18)
O11 O -0.0495(2) 0.8587(2) -0.71240(17)
O12 O -0.06363(19) 0.7829(2) -0.81514(17)
O13 O 0.0569(2) 0.9672(3) -0.70007(19)
Mo2A Mo 0.00134(2) 0.58828(3) -0.860458(18)
Mo3A Mo 0.01051(2) 0.79168(3) -0.856328(19)
Mo5A Mo 0.09146(2) 0.69332(3) -0.709020(19)
O1A O -0.0619(3) 0.3969(4) -0.7946(3)
O2A O 0.0347(2) 0.5133(2) -0.79320(17)
O3A O 0.07359(19) 0.5828(3) -0.86915(17)
O4A O -0.0520(2) 0.5243(3) -0.91270(18)
O5A O -0.03301(19) 0.6898(2) -0.89327(17)
O6A O 0.0517(2) 0.6853(2) -0.78593(17)
O7A O 0.0753(2) 0.6039(3) -0.67729(18)
O8A O 0.17593(18) 0.6990(2) -0.68380(19)
O9A O 0.0792(2) 0.7871(3) -0.87056(19)
O10A O -0.0407(2) 0.8568(3) -0.90632(18)
O11A O 0.0495(2) 0.8587(2) -0.78760(17)
O12A O 0.06363(19) 0.7829(2) -0.68486(17)
O13A O -0.0569(2) 0.9672(3) -0.79993(19)
loop_
_geom_bond_atom_site_label_1
_geom_bond_atom_site_label_2
_geom_bond_site_symmetry_1
_geom_bond_site_symmetry_2
Ag1 N1 1_555 1_555
Ag2 N3 1_555 1_555
C1 C9 1_555 1_555
C2 H1 1_555 1_555
C3 H2 1_555 1_555
C4 C14 1_555 1_555
C5 H3 1_555 1_555
C6 H4 1_555 1_555
C7 H5 1_555 1_555
C8 C7 1_555 1_555
H6 C8 1_555 1_555
C9 C6 1_555 1_555
C10 C16 1_555 1_555
C11 H7 1_555 1_555
C12 H8 1_555 1_555
C13 C18 1_555 1_555
C14 C8 1_555 1_555
C15 C33 1_555 1_555
C16 C30 1_555 1_555
C17 C9 1_555 1_555
H9 C17 1_555 1_555
C18 C2 1_555 1_555
C19 C5 1_555 1_555
H10 C19 1_555 1_555
C20 C12 1_555 1_555
H11 C20 1_555 1_555
C21 C2 1_555 1_555
H12 C21 1_555 1_555
C22 C6 1_555 1_555
H13 C22 1_555 1_555
C23 C5 1_555 1_555
C24 C17 1_555 1_555
H14 C24 1_555 1_555
C25 C23 1_555 1_555
C26 C3 1_555 1_555
H15 C26 1_555 1_555
C27 H16 1_555 1_555
C28 C14 1_555 1_555
H17 C28 1_555 1_555
C29 C28 1_555 1_555
H18 C29 1_555 1_555
C30 H19 1_555 1_555
C31 C16 1_555 1_555
H20 C31 1_555 1_555
C32 C31 1_555 1_555
H21 C32 1_555 1_555
C33 C11 1_555 1_555
C34 C27 1_555 1_555
H22 C34 1_555 1_555
C35 C11 1_555 1_555
H23 C35 1_555 1_555
C36 C30 1_555 1_555
H24 C36 1_555 1_555
N1 C22 1_555 1_555
N2 C3 1_555 1_555
N3 C32 1_555 1_555
N4 C1 1_555 1_555
N5 C1 1_555 1_555
N6 C10 1_555 1_555
N7 Ag2 1_555 1_555
N8 C12 1_555 1_555
N9 C27 1_555 1_555
N10 C4 1_555 1_555
N11 C4 1_555 1_555
N12 C13 1_555 1_555
Mo1 O1 1_555 1_555
Mo2 O2 1_555 1_555
Mo3 O5 1_555 1_555
Mo4 O11 1_555 1_555
Mo5 O6 1_555 1_555
O2 Mo1 1_555 1_555
O3 Mo2 1_555 1_555
O4 Mo2 1_555 1_555
O5 Mo2 1_555 1_555
O6 Mo2 1_555 1_555
O7 Mo5 1_555 1_555
O8 Mo5 1_555 1_555
O9 Mo3 1_555 1_555
O10 Mo3 1_555 1_555
O11 Mo3 1_555 1_555
O12 Mo4 1_555 1_555
O13 Mo4 1_555 1_555
Ag1_2 N9 1_555 1_555
Ag1B N2 1_555 1_555
Ag2B N8 1_555 1_555
N2B Ag1 1_555 1_555
N8B Ag2 1_555 1_555
N9_2 Ag1 1_555 1_555
Mo2A O7 1_555 1_555
Mo3A O12 1_555 1_555
Mo5A O6A 1_555 1_555
O1A Mo1 1_555 1_555
O2A Mo1 1_555 1_555
O3A Mo2A 1_555 1_555
O4A Mo2A 1_555 1_555
O5A Mo2A 1_555 1_555
O6A Mo2A 1_555 1_555
O7A Mo2 1_555 1_555
O8A Mo5A 1_555 1_555
O9A Mo3A 1_555 1_555
O10A Mo3A 1_555 1_555
O11A Mo4 1_555 1_555
O12A Mo3 1_555 1_555
O13A Mo4 1_555 1_555
C7 N7 1_555 1_555
C10 N4 1_555 1_555
C13 N11 1_555 1_555
C15 N10 1_555 1_555
C15 N12 1_555 1_555
C18 C20 1_555 1_555
C19 N2 1_555 1_555
C21 N8 1_555 1_555
C23 C26 1_555 1_555
C24 N1 1_555 1_555
C25 N5 1_555 1_555
C25 N6 1_555 1_555
C29 N7 1_555 1_555
C33 C34 1_555 1_555
C35 N9 1_555 1_555
C36 N3 1_555 1_555
Mo3 O6 1_555 1_555
Mo4 O12A 1_555 1_555
Mo5 O12 1_555 1_555
Mo2A O2A 1_555 1_555
Mo3A O5A 1_555 1_555
Mo3A O6A 1_555 1_555
Mo3A O11A 1_555 1_555
Mo5A O7A 1_555 1_555
Mo5A O12A 1_555 1_555

#END
