
#######################################################################
#
#                 Cambridge Crystallographic Data Centre
#                                CCDC 
#
#######################################################################
#
# If this CIF has been generated from an entry in the Cambridge 
# Structural Database, then it will include bibliographic, chemical, 
# crystal, experimental, refinement or atomic coordinate data resulting 
# from the CCDC's data processing and validation procedures.
#
#######################################################################

data_QOFBIY01
_symmetry_cell_setting           monoclinic
_symmetry_space_group_name_H-M   'C 2/c'
_symmetry_Int_Tables_number      15
_space_group_name_Hall           '-C 2yn'
loop_
_symmetry_equiv_pos_site_id
_symmetry_equiv_pos_as_xyz
1 x,y,z
2 -x,y,1/2-z
3 1/2+x,1/2+y,z
4 1/2-x,1/2+y,1/2-z
5 -x,-y,-z
6 x,-y,1/2+z
7 1/2-x,1/2-y,-z
8 1/2+x,1/2-y,1/2+z
_cell_length_a                   22.0600(5)
_cell_length_b                   16.3472(5)
_cell_length_c                   25.6770(8)
_cell_angle_alpha                90
_cell_angle_beta                 115.392(4)
_cell_angle_gamma                90
_cell_volume                     8365.1
loop_
_atom_site_label
_atom_site_type_symbol
_atom_site_fract_x
_atom_site_fract_y
_atom_site_fract_z
Ag1 Ag 0.343704(13) 0.04236(2) 0.367833(13)
N1 N 0.43914(14) 0.1150(2) 0.41198(15)
O1 O 0.42643(12) -0.08245(19) 0.37034(13)
N2 N 0.79628(14) 0.46908(19) 0.41715(14)
N3 N 1.27458(15) 0.0270(2) 1.27197(15)
C1 C 0.46659(18) 0.1237(3) 0.46983(18)
C2 C 0.47336(17) 0.1455(3) 0.38451(18)
Mo1 Mo 0.498031(15) -0.08736(2) 0.360390(15)
C3 C 0.52626(18) 0.1640(3) 0.50017(18)
H1 H 0.4442 0.1016 0.4901
C4 C 0.53309(18) 0.1884(2) 0.41143(18)
H2 H 0.4562 0.1376 0.3449
O2 O 0.46343(13) -0.01366(18) 0.29307(12)
O3 O 0.55215(13) -0.02341(19) 0.41170(13)
O4 O 0.57297(15) -0.10344(19) 0.32046(15)
O5 O 0.53358(12) -0.18979(17) 0.39246(12)
O6 O 0.44486(15) -0.18521(18) 0.28595(13)
C5 C 0.55995(17) 0.1978(2) 0.47058(17)
H3 H 0.5438 0.1685 0.5401
H4 H 0.5545 0.2102 0.3903
Mo2 Mo 0.5000 0.03715(4) 0.2500
Mo3 Mo 0.591540(15) -0.19286(2) 0.290852(15)
Mo4 Mo 0.488845(15) -0.29134(2) 0.356413(15)
C6 C 0.62415(17) 0.2430(2) 0.50266(17)
O7 O 0.5617(2) 0.1002(3) 0.2954(2)
O8 O 0.67659(13) -0.19886(19) 0.31817(15)
O9 O 0.56120(13) -0.28250(18) 0.31274(13)
O10 O 0.42146(13) -0.28731(19) 0.37206(14)
O11 O 0.54157(13) -0.35738(19) 0.40565(13)
O12 O 0.44924(12) -0.35843(17) 0.28780(12)
N4 N 0.64795(14) 0.2891(2) 0.47297(14)
N5 N 0.65326(14) 0.2314(2) 0.55986(14)
Mo5 Mo 0.5000 -0.40067(3) 0.2500
C7 C 0.70614(17) 0.3274(2) 0.50561(17)
C8 C 0.70980(17) 0.2735(2) 0.58774(17)
O13 O 0.55675(14) -0.4639(2) 0.29990(14)
C9 C 0.73629(16) 0.3778(2) 0.47503(17)
N6 N 0.73850(14) 0.32277(19) 0.56330(14)
C10 C 0.74292(17) 0.2633(2) 0.65184(17)
C11 C 0.79854(17) 0.4159(2) 0.50537(17)
C12 C 0.70468(17) 0.3888(2) 0.41552(17)
C13 C 0.71527(19) 0.2118(3) 0.67860(18)
C14 C 0.80145(18) 0.3055(3) 0.68546(18)
H5 H 0.8208 0.4121 0.5453
C15 C 0.82601(18) 0.4592(2) 0.47437(17)
C16 C 0.73576(18) 0.4332(2) 0.38850(18)
H6 H 0.6626 0.3661 0.3941
H7 H 0.6773 0.1811 0.6569
C17 C 0.74494(19) 0.2068(3) 0.73787(19)
C18 C 0.8268(2) 0.2971(3) 0.74475(19)
H8 H 0.8228 0.3382 0.6688
H9 H 0.8679 0.4831 0.4947
H10 H 0.7141 0.4388 0.3486
H11 H 0.7263 0.1714 0.7554
N7 N 0.79922(16) 0.2503(2) 0.77162(15)
H12 H 0.8656 0.3259 0.7674
Ag2 Ag 0.822923(14) 0.25016(2) 0.867488(14)
N8 N 0.91278(14) 0.1597(2) 0.90782(15)
N9 N 1.27981(14) -0.18542(19) 0.92177(15)
C19 C 0.94293(17) 0.1577(2) 0.96580(17)
C20 C 0.94299(18) 0.1190(3) 0.87972(18)
C21 C 1.00229(17) 0.1172(2) 0.99677(18)
H13 H 0.9226 0.1850 0.9859
C22 C 1.00189(18) 0.0751(3) 0.90760(18)
H14 H 0.9233 0.1204 0.8396
H15 H 1.0219 0.1180 1.0369
C23 C 1.03250(17) 0.0752(2) 0.96725(17)
H16 H 1.0204 0.0462 0.8867
C24 C 1.09719(17) 0.0308(2) 1.00141(17)
N10 N 1.12602(14) -0.0096(2) 0.97325(14)
N11 N 1.12166(14) 0.03776(19) 1.05930(14)
C25 C 1.18197(17) -0.0507(2) 1.00724(17)
C26 C 1.17946(17) -0.0021(2) 1.08865(17)
C27 C 1.21506(17) -0.1000(2) 0.97804(17)
N12 N 1.21071(14) -0.0491(2) 1.06479(15)
C28 C 1.21098(18) 0.0073(2) 1.15224(18)
C29 C 1.27766(18) -0.1374(2) 1.00950(18)
C30 C 1.18613(17) -0.1081(2) 0.91859(17)
C31 C 1.17763(18) 0.0429(3) 1.18162(18)
C32 C 1.27721(18) -0.0182(3) 1.18392(19)
H17 H 1.2985 -0.1347 1.0495
C33 C 1.30755(18) -0.1783(2) 0.97951(19)
C34 C 1.21942(17) -0.1504(2) 0.89267(18)
H18 H 1.1444 -0.0851 0.8964
H19 H 1.1336 0.0606 1.1617
C35 C 1.21051(19) 0.0516(3) 1.24065(18)
C36 C 1.30583(19) -0.0068(3) 1.24288(19)
H20 H 1.3013 -0.0421 1.1658
H21 H 1.3492 -0.2023 1.0005
H22 H 1.1991 -0.1550 0.8527
H23 H 1.1876 0.0755 1.2598
H24 H 1.3500 -0.0239 1.2638
Ag1A Ag 0.656296(13) 0.04236(2) 0.132167(13)
N1A N 0.56086(14) 0.1150(2) 0.08802(15)
O1A O 0.57357(12) -0.08245(19) 0.12966(13)
N2A N 0.20372(14) 0.46908(19) 0.08285(14)
N3A N -0.27458(15) 0.0270(2) -0.77197(15)
C1A C 0.53341(18) 0.1237(3) 0.03017(18)
C2A C 0.52664(17) 0.1455(3) 0.11549(18)
Mo1A Mo 0.501969(15) -0.08736(2) 0.139610(15)
C3A C 0.47374(18) 0.1640(3) -0.00017(18)
H1A H 0.5558 0.1016 0.0099
C4A C 0.46691(18) 0.1884(2) 0.08857(18)
H2A H 0.5438 0.1376 0.1551
O2A O 0.53657(13) -0.01366(18) 0.20693(12)
O3A O 0.44785(13) -0.02341(19) 0.08830(13)
O4A O 0.42703(15) -0.10344(19) 0.17954(15)
O5A O 0.46642(12) -0.18979(17) 0.10754(12)
O6A O 0.55514(15) -0.18521(18) 0.21405(13)
C5A C 0.44005(17) 0.1978(2) 0.02942(17)
H3A H 0.4562 0.1685 -0.0401
H4A H 0.4455 0.2102 0.1097
Mo3A Mo 0.408460(15) -0.19286(2) 0.209148(15)
Mo4A Mo 0.511155(15) -0.29134(2) 0.143587(15)
C6A C 0.37585(17) 0.2430(2) -0.00266(17)
O7A O 0.4383(2) 0.1002(3) 0.2046(2)
O8A O 0.32341(13) -0.19886(19) 0.18183(15)
O9A O 0.43880(13) -0.28250(18) 0.18726(13)
O10A O 0.57854(13) -0.28731(19) 0.12794(14)
O11A O 0.45843(13) -0.35738(19) 0.09435(13)
O12A O 0.55076(12) -0.35843(17) 0.21220(12)
N4A N 0.35205(14) 0.2891(2) 0.02703(14)
N5A N 0.34674(14) 0.2314(2) -0.05986(14)
C7A C 0.29386(17) 0.3274(2) -0.00561(17)
C8A C 0.29020(17) 0.2735(2) -0.08774(17)
O13A O 0.44325(14) -0.4639(2) 0.20010(14)
C9A C 0.26371(16) 0.3778(2) 0.02497(17)
N6A N 0.26150(14) 0.32277(19) -0.06330(14)
C10A C 0.25708(17) 0.2633(2) -0.15184(17)
C11A C 0.20146(17) 0.4159(2) -0.00537(17)
C12A C 0.29532(17) 0.3888(2) 0.08448(17)
C13A C 0.28473(19) 0.2118(3) -0.17860(18)
C14A C 0.19855(18) 0.3055(3) -0.18546(18)
H5A H 0.1792 0.4121 -0.0453
C15A C 0.17399(18) 0.4592(2) 0.02563(17)
C16A C 0.26424(18) 0.4332(2) 0.11150(18)
H6A H 0.3374 0.3661 0.1059
H7A H 0.3227 0.1811 -0.1569
C17A C 0.25506(19) 0.2068(3) -0.23787(19)
C18A C 0.1732(2) 0.2971(3) -0.24475(19)
H8A H 0.1772 0.3382 -0.1688
H9A H 0.1321 0.4831 0.0053
H10A H 0.2859 0.4388 0.1514
H11A H 0.2737 0.1714 -0.2554
N7A N 0.20078(16) 0.2503(2) -0.27162(15)
H12A H 0.1344 0.3259 -0.2674
Ag2A Ag 0.177077(14) 0.25016(2) -0.367488(14)
N8A N 0.08722(14) 0.1597(2) -0.40782(15)
N9A N -0.27981(14) -0.18542(19) -0.42177(15)
C19A C 0.05707(17) 0.1577(2) -0.46580(17)
C20A C 0.05701(18) 0.1190(3) -0.37972(18)
C21A C -0.00229(17) 0.1172(2) -0.49677(18)
H13A H 0.0774 0.1850 -0.4859
C22A C -0.00189(18) 0.0751(3) -0.40760(18)
H14A H 0.0767 0.1204 -0.3396
H15A H -0.0219 0.1180 -0.5369
C23A C -0.03250(17) 0.0752(2) -0.46725(17)
H16A H -0.0204 0.0462 -0.3867
C24A C -0.09719(17) 0.0308(2) -0.50141(17)
N10A N -0.12602(14) -0.0096(2) -0.47325(14)
N11A N -0.12166(14) 0.03776(19) -0.55930(14)
C25A C -0.18197(17) -0.0507(2) -0.50724(17)
C26A C -0.17946(17) -0.0021(2) -0.58865(17)
C27A C -0.21506(17) -0.1000(2) -0.47804(17)
N12A N -0.21071(14) -0.0491(2) -0.56479(15)
C28A C -0.21098(18) 0.0073(2) -0.65224(18)
C29A C -0.27766(18) -0.1374(2) -0.50950(18)
C30A C -0.18613(17) -0.1081(2) -0.41859(17)
C31A C -0.17763(18) 0.0429(3) -0.68162(18)
C32A C -0.27721(18) -0.0182(3) -0.68392(19)
H17A H -0.2985 -0.1347 -0.5495
C33A C -0.30755(18) -0.1783(2) -0.47951(19)
C34A C -0.21942(17) -0.1504(2) -0.39267(18)
H18A H -0.1444 -0.0851 -0.3964
H19A H -0.1336 0.0606 -0.6617
C35A C -0.21051(19) 0.0516(3) -0.74065(18)
C36A C -0.30583(19) -0.0068(3) -0.74288(19)
H20A H -0.3013 -0.0421 -0.6658
H21A H -0.3492 -0.2023 -0.5005
H22A H -0.1991 -0.1550 -0.3527
H23A H -0.1876 0.0755 -0.7598
H24A H -0.3500 -0.0239 -0.7638
Ag1_2 Ag 1.343704(13) 0.04236(2) 1.367833(13)
Ag1A_2 Ag -0.343704(13) 0.04236(2) -0.867833(13)
Ag1B Ag 0.843704(13) 0.54236(2) 0.367833(13)
Ag1C Ag 0.156296(13) 0.54236(2) 0.132167(13)
N2B N 0.29628(14) -0.03092(19) 0.41715(14)
N2C N 0.70372(14) -0.03092(19) 0.08285(14)
N3_2 N 0.27458(15) 0.0270(2) 0.27197(15)
N3A_2 N 0.72542(15) 0.0270(2) 0.22803(15)
Ag2B Ag 1.322923(14) -0.24984(2) 0.867488(14)
Ag2C Ag -0.322923(14) -0.24984(2) -0.367488(14)
N9B N 0.77981(14) 0.31458(19) 0.92177(15)
N9C N 0.22019(14) 0.31458(19) -0.42177(15)
O14 O 0.5999(3) -0.6138(5) 0.2673(3)
H25 H 0.5707 -0.6505 0.2623
H26 H 0.5869 -0.5696 0.2767
O15 O 0.5000 0.2585(14) 0.2500
H27 H 0.5195 0.2134 0.2640
H27A H 0.4805 0.2134 0.2360
H28? H 0.5298 0.2946 0.2556
loop_
_geom_bond_atom_site_label_1
_geom_bond_atom_site_label_2
_geom_bond_site_symmetry_1
_geom_bond_site_symmetry_2
Ag1 N1 1_555 1_555
N1 C1 1_555 1_555
O1 Ag1 1_555 1_555
N2 C15 1_555 1_555
N3 C35 1_555 1_555
C1 C3 1_555 1_555
C2 N1 1_555 1_555
Mo1 O1 1_555 1_555
C3 C5 1_555 1_555
H1 C1 1_555 1_555
C4 C2 1_555 1_555
H2 C2 1_555 1_555
O2 Mo1 1_555 1_555
O3 Mo1 1_555 1_555
O4 Mo1 1_555 1_555
O5 Mo1 1_555 1_555
O6 Mo1 1_555 1_555
C5 C4 1_555 1_555
H3 C3 1_555 1_555
H4 C4 1_555 1_555
Mo2 O2 1_555 1_555
Mo3 O4 1_555 1_555
Mo4 O5 1_555 1_555
C6 C5 1_555 1_555
O7 Mo2 1_555 1_555
O8 Mo3 1_555 1_555
O9 Mo3 1_555 1_555
O10 Mo4 1_555 1_555
O11 Mo4 1_555 1_555
O12 Mo4 1_555 1_555
N4 C6 1_555 1_555
N5 C6 1_555 1_555
Mo5 O9 1_555 1_555
C7 N4 1_555 1_555
C8 N5 1_555 1_555
O13 Mo5 1_555 1_555
C9 C7 1_555 1_555
N6 C7 1_555 1_555
C10 C8 1_555 1_555
C11 C9 1_555 1_555
C12 C9 1_555 1_555
C13 C10 1_555 1_555
C14 C10 1_555 1_555
H5 C11 1_555 1_555
C15 C11 1_555 1_555
C16 N2 1_555 1_555
H6 C12 1_555 1_555
H7 C13 1_555 1_555
C17 C13 1_555 1_555
C18 C14 1_555 1_555
H8 C14 1_555 1_555
H9 C15 1_555 1_555
H10 C16 1_555 1_555
H11 C17 1_555 1_555
N7 C17 1_555 1_555
H12 C18 1_555 1_555
Ag2 N7 1_555 1_555
N8 Ag2 1_555 1_555
N9 C33 1_555 1_555
C19 N8 1_555 1_555
C20 N8 1_555 1_555
C21 C19 1_555 1_555
H13 C19 1_555 1_555
C22 C20 1_555 1_555
H14 C20 1_555 1_555
H15 C21 1_555 1_555
C23 C21 1_555 1_555
H16 C22 1_555 1_555
C24 C23 1_555 1_555
N10 C24 1_555 1_555
N11 C24 1_555 1_555
C25 N10 1_555 1_555
C26 N11 1_555 1_555
C27 C25 1_555 1_555
N12 C25 1_555 1_555
C28 C26 1_555 1_555
C29 C27 1_555 1_555
C30 C27 1_555 1_555
C31 C28 1_555 1_555
C32 C28 1_555 1_555
H17 C29 1_555 1_555
C33 C29 1_555 1_555
C34 N9 1_555 1_555
H18 C30 1_555 1_555
H19 C31 1_555 1_555
C35 C31 1_555 1_555
C36 N3 1_555 1_555
H20 C32 1_555 1_555
H21 C33 1_555 1_555
H22 C34 1_555 1_555
H23 C35 1_555 1_555
H24 C36 1_555 1_555
O14 H25 1_555 1_555
H26 O14 1_555 1_555
O15 H27 1_555 1_555
Ag1A N1A 1_555 1_555
N1A C1A 1_555 1_555
O1A Ag1A 1_555 1_555
N2A C15A 1_555 1_555
N3A C35A 1_555 1_555
C1A C3A 1_555 1_555
C2A N1A 1_555 1_555
Mo1A O1A 1_555 1_555
C3A C5A 1_555 1_555
H1A C1A 1_555 1_555
C4A C2A 1_555 1_555
H2A C2A 1_555 1_555
O2A Mo2 1_555 1_555
O3A Mo1A 1_555 1_555
O4A Mo1A 1_555 1_555
O5A Mo1A 1_555 1_555
O6A Mo3 1_555 1_555
C5A C4A 1_555 1_555
H3A C3A 1_555 1_555
H4A C4A 1_555 1_555
Mo3A O6 1_555 1_555
Mo4A O5A 1_555 1_555
C6A C5A 1_555 1_555
O7A Mo2 1_555 1_555
O8A Mo3A 1_555 1_555
O9A Mo5 1_555 1_555
O10A Mo4A 1_555 1_555
O11A Mo4A 1_555 1_555
O12A Mo5 1_555 1_555
N4A C6A 1_555 1_555
N5A C6A 1_555 1_555
C7A N4A 1_555 1_555
C8A N5A 1_555 1_555
O13A Mo5 1_555 1_555
C9A C7A 1_555 1_555
N6A C7A 1_555 1_555
C10A C8A 1_555 1_555
C11A C9A 1_555 1_555
C12A C9A 1_555 1_555
C13A C10A 1_555 1_555
C14A C10A 1_555 1_555
H5A C11A 1_555 1_555
C15A C11A 1_555 1_555
C16A N2A 1_555 1_555
H6A C12A 1_555 1_555
H7A C13A 1_555 1_555
C17A C13A 1_555 1_555
C18A C14A 1_555 1_555
H8A C14A 1_555 1_555
H9A C15A 1_555 1_555
H10A C16A 1_555 1_555
H11A C17A 1_555 1_555
N7A C17A 1_555 1_555
H12A C18A 1_555 1_555
Ag2A N7A 1_555 1_555
N8A Ag2A 1_555 1_555
N9A C33A 1_555 1_555
C19A N8A 1_555 1_555
C20A N8A 1_555 1_555
C21A C19A 1_555 1_555
H13A C19A 1_555 1_555
C22A C20A 1_555 1_555
H14A C20A 1_555 1_555
H15A C21A 1_555 1_555
C23A C21A 1_555 1_555
H16A C22A 1_555 1_555
C24A C23A 1_555 1_555
N10A C24A 1_555 1_555
N11A C24A 1_555 1_555
C25A N10A 1_555 1_555
C26A N11A 1_555 1_555
C27A C25A 1_555 1_555
N12A C25A 1_555 1_555
C28A C26A 1_555 1_555
C29A C27A 1_555 1_555
C30A C27A 1_555 1_555
C31A C28A 1_555 1_555
C32A C28A 1_555 1_555
H17A C29A 1_555 1_555
C33A C29A 1_555 1_555
C34A N9A 1_555 1_555
H18A C30A 1_555 1_555
H19A C31A 1_555 1_555
C35A C31A 1_555 1_555
C36A N3A 1_555 1_555
H20A C32A 1_555 1_555
H21A C33A 1_555 1_555
H22A C34A 1_555 1_555
H23A C35A 1_555 1_555
H24A C36A 1_555 1_555
Ag1_2 N3 1_555 1_555
Ag1A_2 N3A 1_555 1_555
Ag1B N2 1_555 1_555
Ag1C N2A 1_555 1_555
N2B Ag1 1_555 1_555
N2C Ag1A 1_555 1_555
N3_2 Ag1 1_555 1_555
N3A_2 Ag1A 1_555 1_555
Ag2B N9 1_555 1_555
Ag2C N9A 1_555 1_555
N9B Ag2 1_555 1_555
N9C Ag2A 1_555 1_555
H27A O15 1_555 1_555
O6 Mo4 1_555 1_555
Mo4 O9 1_555 1_555
O12 Mo5 1_555 1_555
C8 N6 1_555 1_555
C12 C16 1_555 1_555
C18 N7 1_555 1_555
C22 C23 1_555 1_555
C26 N12 1_555 1_555
C30 C34 1_555 1_555
C32 C36 1_555 1_555
Mo1A O2A 1_555 1_555
Mo1A O6A 1_555 1_555
O4A Mo3A 1_555 1_555
O6A Mo4A 1_555 1_555
Mo3A O9A 1_555 1_555
Mo4A O9A 1_555 1_555
Mo4A O12A 1_555 1_555
C8A N6A 1_555 1_555
C12A C16A 1_555 1_555
C18A N7A 1_555 1_555
C22A C23A 1_555 1_555
C26A N12A 1_555 1_555
C30A C34A 1_555 1_555
C32A C36A 1_555 1_555

#END
