
#######################################################################
#
#                 Cambridge Crystallographic Data Centre
#                                CCDC 
#
#######################################################################
#
# If this CIF has been generated from an entry in the Cambridge 
# Structural Database, then it will include bibliographic, chemical, 
# crystal, experimental, refinement or atomic coordinate data resulting 
# from the CCDC's data processing and validation procedures.
#
#######################################################################

data_QOFBIY
_symmetry_cell_setting           monoclinic
_symmetry_space_group_name_H-M   'C 2/c'
_symmetry_Int_Tables_number      15
_space_group_name_Hall           '-C 2yn'
loop_
_symmetry_equiv_pos_site_id
_symmetry_equiv_pos_as_xyz
1 x,y,z
2 -x,y,1/2-z
3 1/2+x,1/2+y,z
4 1/2-x,1/2+y,1/2-z
5 -x,-y,-z
6 x,-y,1/2+z
7 1/2-x,1/2-y,-z
8 1/2+x,1/2-y,1/2+z
_cell_length_a                   22.0765(5)
_cell_length_b                   16.3158(5)
_cell_length_c                   25.6800(8)
_cell_angle_alpha                90
_cell_angle_beta                 115.416(4)
_cell_angle_gamma                90
_cell_volume                     8354.59
loop_
_atom_site_label
_atom_site_type_symbol
_atom_site_fract_x
_atom_site_fract_y
_atom_site_fract_z
Ag1 Ag -0.177200(15) 1.24959(2) -0.132587(13)
Ag2 Ag 0.343480(14) 1.45725(2) 0.367674(13)
C1 C 0.00206(19) 1.3827(2) -0.00329(17)
H1 H 0.0215 1.3818 0.0368
C2 C 0.03290(19) 1.8120(2) 0.41119(17)
H2 H 0.0544 1.7905 0.3900
C3 C 0.12390(18) 1.7575(2) 0.50268(17)
C4 C 0.05978(18) 1.8021(2) 0.47046(17)
C5 C 0.27750(19) 1.6369(2) 0.00955(18)
H3 H 0.2983 1.6338 0.0496
C6 C 0.23588(19) 1.5667(2) 0.38856(17)
H4 H 0.2140 1.5604 0.3488
C7 C 0.21950(19) 1.6505(2) -0.10753(18)
H5 H 0.1993 1.6553 -0.1475
C8 C -0.05734(19) 1.3424(2) -0.03449(18)
H6 H -0.0777 1.3152 -0.0144
C9 C 0.09703(18) 1.4686(2) 0.00150(17)
C10 C 0.02603(19) 1.8362(3) 0.50012(18)
H7 H 0.0436 1.8320 0.5400
C11 C 0.20969(18) 1.7263(2) 0.58792(17)
C12 C -0.03372(19) 1.8761(3) 0.46948(18)
H8 H -0.0563 1.8979 0.4896
C13 C 0.03248(18) 1.4247(2) -0.03260(17)
C14 C 0.3058(2) 1.5069(3) 0.24289(19)
H9 H 0.3498 1.5243 0.2638
C15 C 0.21522(18) 1.5998(2) -0.02187(17)
C16 C 0.1774(2) 1.4567(3) 0.18173(18)
H10 H 0.1334 1.4386 0.1618
C17 C 0.00162(19) 1.4245(3) -0.09251(17)
H11 H 0.0202 1.4532 -0.1134
C18 C 0.32611(19) 1.5406(2) 0.47437(17)
H12 H 0.3678 1.5164 0.4948
C19 C 0.24281(19) 1.7361(2) 0.65192(17)
C20 C 0.3266(2) 1.7025(3) 0.74469(19)
H13 H 0.3653 1.6734 0.7672
C21 C 0.30760(19) 1.6787(2) -0.02037(18)
H14 H 0.3490 1.7034 0.0006
C22 C 0.29848(18) 1.5844(2) 0.50512(17)
H15 H 0.3209 1.5886 0.5450
C23 C -0.02652(19) 1.8545(3) 0.38442(18)
H16 H -0.0436 1.8625 0.3448
C24 C 0.17909(18) 1.5021(2) 0.08844(17)
C25 C 0.20600(18) 1.6727(2) 0.50572(17)
C26 C -0.05727(19) 1.3810(2) -0.12033(18)
H17 H -0.0770 1.3798 -0.1604
C27 C 0.2768(2) 1.5177(3) 0.18374(18)
H18 H 0.3010 1.5412 0.1655
C28 C 0.18585(18) 1.6080(2) -0.08147(17)
H19 H 0.1440 1.5851 -0.1036
C29 C 0.18198(18) 1.5504(2) 0.00718(17)
C30 C 0.2102(2) 1.4482(3) 0.24074(18)
H20 H 0.1873 1.4245 0.2600
C31 C 0.23636(18) 1.6220(2) 0.47502(17)
C32 C 0.21073(19) 1.4928(2) 0.15211(17)
C33 C 0.20471(19) 1.6117(2) 0.41534(17)
H21 H 0.1629 1.6351 0.3938
C34 C 0.2151(2) 1.7878(3) 0.67851(18)
H22 H 0.1773 1.8188 0.6567
C35 C 0.2444(2) 1.7929(3) 0.73784(19)
H23 H 0.2255 1.8280 0.7553
C36 C 0.3012(2) 1.6945(3) 0.68564(18)
H24 H 0.3227 1.6621 0.6689
N1 N -0.08766(16) 1.3401(2) -0.09254(15)
N2 N 0.27410(17) 1.4726(2) 0.27180(15)
N3 N 0.27963(16) 1.68523(19) -0.07840(15)
N4 N 0.12583(15) 1.5094(2) -0.02662(14)
N5 N 0.12131(15) 1.4620(2) 0.05897(14)
N6 N 0.21046(16) 1.5488(2) 0.06488(14)
N7 N 0.29632(15) 1.5311(2) 0.41691(14)
N8 N -0.06114(16) 1.8851(2) 0.41184(15)
N9 N 0.29904(17) 1.7494(2) 0.77171(15)
N10 N 0.14806(15) 1.7105(2) 0.47292(14)
N11 N 0.15314(15) 1.7683(2) 0.55984(14)
N12 N 0.23848(15) 1.6773(2) 0.56333(14)
Mo1 Mo 0.5000 1.46345(4) 0.2500
Mo2 Mo 0.497785(16) 1.58688(2) 0.360431(14)
Mo3 Mo 0.488833(16) 1.79132(2) 0.356519(14)
Mo4 Mo 0.5000 1.90013(3) 0.2500
Mo5 Mo 0.408560(16) 1.69242(2) 0.209286(15)
O1 O 0.5615(2) 1.3999(3) 0.2956(2)
O2 O 0.46259(15) 1.51334(18) 0.29279(13)
O3 O 0.55209(14) 1.52264(19) 0.41165(13)
O4 O 0.42634(14) 1.58240(19) 0.37081(13)
O5 O 0.53351(14) 1.68947(18) 0.39218(12)
O6 O 0.44393(17) 1.68508(19) 0.28594(13)
O7 O 0.42167(14) 1.78734(19) 0.37269(14)
O8 O 0.54188(15) 1.85726(19) 0.40568(13)
O9 O 0.42804(17) 1.6027(2) 0.18056(16)
O10 O 0.32338(14) 1.69845(19) 0.18113(15)
O11 O 0.44904(14) 1.85831(17) 0.28793(12)
O12 O 0.43929(14) 1.78214(18) 0.18781(13)
O13 O 0.55669(15) 1.96360(19) 0.29996(14)
Ag1A Ag 1.177200(15) 1.24959(2) 0.632587(13)
Ag2A Ag 0.656520(14) 1.45725(2) 0.132326(13)
C1A C 0.99794(19) 1.3827(2) 0.50329(17)
H1A H 0.9785 1.3818 0.4632
C2A C 0.96710(19) 1.8120(2) 0.08881(17)
H2A H 0.9456 1.7905 0.1100
C3A C 0.87610(18) 1.7575(2) -0.00268(17)
C4A C 0.94022(18) 1.8021(2) 0.02954(17)
C5A C 0.72250(19) 1.6369(2) 0.49045(18)
H3A H 0.7017 1.6338 0.4504
C6A C 0.76412(19) 1.5667(2) 0.11144(17)
H4A H 0.7860 1.5604 0.1512
C7A C 0.78050(19) 1.6505(2) 0.60753(18)
H5A H 0.8007 1.6553 0.6475
C8A C 1.05734(19) 1.3424(2) 0.53449(18)
H6A H 1.0777 1.3152 0.5144
C9A C 0.90297(18) 1.4686(2) 0.49850(17)
C10A C 0.97397(19) 1.8362(3) -0.00012(18)
H7A H 0.9564 1.8320 -0.0400
C11A C 0.79031(18) 1.7263(2) -0.08792(17)
C12A C 1.03372(19) 1.8761(3) 0.03052(18)
H8A H 1.0563 1.8979 0.0104
C13A C 0.96752(18) 1.4247(2) 0.53260(17)
C14A C 0.6942(2) 1.5069(3) 0.25711(19)
H9A H 0.6502 1.5243 0.2362
C15A C 0.78478(18) 1.5998(2) 0.52187(17)
C16A C 0.8226(2) 1.4567(3) 0.31827(18)
H10A H 0.8666 1.4386 0.3382
C17A C 0.99838(19) 1.4245(3) 0.59251(17)
H11A H 0.9798 1.4532 0.6134
C18A C 0.67389(19) 1.5406(2) 0.02563(17)
H12A H 0.6322 1.5164 0.0052
C19A C 0.75719(19) 1.7361(2) -0.15192(17)
C20A C 0.6734(2) 1.7025(3) -0.24469(19)
H13A H 0.6347 1.6734 -0.2672
C21A C 0.69240(19) 1.6787(2) 0.52037(18)
H14A H 0.6510 1.7034 0.4994
C22A C 0.70152(18) 1.5844(2) -0.00512(17)
H15A H 0.6791 1.5886 -0.0450
C23A C 1.02652(19) 1.8545(3) 0.11558(18)
H16A H 1.0436 1.8625 0.1552
C24A C 0.82091(18) 1.5021(2) 0.41156(17)
C25A C 0.79400(18) 1.6727(2) -0.00572(17)
C26A C 1.05727(19) 1.3810(2) 0.62033(18)
H17A H 1.0770 1.3798 0.6604
C27A C 0.7232(2) 1.5177(3) 0.31626(18)
H18A H 0.6990 1.5412 0.3345
C28A C 0.81415(18) 1.6080(2) 0.58147(17)
H19A H 0.8560 1.5851 0.6036
C29A C 0.81802(18) 1.5504(2) 0.49282(17)
C30A C 0.7898(2) 1.4482(3) 0.25926(18)
H20A H 0.8127 1.4245 0.2400
C31A C 0.76364(18) 1.6220(2) 0.02498(17)
C32A C 0.78927(19) 1.4928(2) 0.34789(17)
C33A C 0.79529(19) 1.6117(2) 0.08466(17)
H21A H 0.8371 1.6351 0.1062
C34A C 0.7849(2) 1.7878(3) -0.17851(18)
H22A H 0.8227 1.8188 -0.1567
C35A C 0.7556(2) 1.7929(3) -0.23784(19)
H23A H 0.7745 1.8280 -0.2553
C36A C 0.6988(2) 1.6945(3) -0.18564(18)
H24A H 0.6773 1.6621 -0.1689
N1A N 1.08766(16) 1.3401(2) 0.59254(15)
N2A N 0.72590(17) 1.4726(2) 0.22820(15)
N3A N 0.72037(16) 1.68523(19) 0.57840(15)
N4A N 0.87417(15) 1.5094(2) 0.52662(14)
N5A N 0.87869(15) 1.4620(2) 0.44103(14)
N6A N 0.78954(16) 1.5488(2) 0.43512(14)
N7A N 0.70368(15) 1.5311(2) 0.08309(14)
N8A N 1.06114(16) 1.8851(2) 0.08816(15)
N9A N 0.70096(17) 1.7494(2) -0.27171(15)
N10A N 0.85194(15) 1.7105(2) 0.02708(14)
N11A N 0.84686(15) 1.7683(2) -0.05984(14)
N12A N 0.76152(15) 1.6773(2) -0.06333(14)
Mo2A Mo 0.502215(16) 1.58688(2) 0.139569(14)
Mo3A Mo 0.511167(16) 1.79132(2) 0.143481(14)
Mo5A Mo 0.591440(16) 1.69242(2) 0.290714(15)
O1A O 0.4385(2) 1.3999(3) 0.2044(2)
O2A O 0.53741(15) 1.51334(18) 0.20721(13)
O3A O 0.44791(14) 1.52264(19) 0.08835(13)
O4A O 0.57366(14) 1.58240(19) 0.12919(13)
O5A O 0.46649(14) 1.68947(18) 0.10782(12)
O6A O 0.55607(17) 1.68508(19) 0.21406(13)
O7A O 0.57833(14) 1.78734(19) 0.12731(14)
O8A O 0.45812(15) 1.85726(19) 0.09432(13)
O9A O 0.57196(17) 1.6027(2) 0.31944(16)
O10A O 0.67662(14) 1.69845(19) 0.31887(15)
O11A O 0.55096(14) 1.85831(17) 0.21207(12)
O12A O 0.56071(14) 1.78214(18) 0.31219(13)
O13A O 0.44331(15) 1.96360(19) 0.20004(14)
Ag1B Ag 0.322800(15) 1.74959(2) -0.132587(13)
Ag1B_2 Ag 0.322800(15) 1.74959(2) 0.867413(13)
Ag1C Ag 0.677200(15) 1.74959(2) -0.367413(13)
Ag1C_2 Ag 0.677200(15) 1.74959(2) 0.632587(13)
Ag2B Ag -0.156520(14) 1.95725(2) 0.367674(13)
Ag2C Ag 1.156520(14) 1.95725(2) 0.132326(13)
N3B N -0.22037(16) 1.18523(19) -0.07840(15)
N3C N 1.22037(16) 1.18523(19) 0.57840(15)
N8B N 0.43886(16) 1.3851(2) 0.41184(15)
N8C N 0.56114(16) 1.3851(2) 0.08816(15)
N9B N -0.20096(17) 1.2494(2) -0.22829(15)
N9C N 1.20096(17) 1.2494(2) 0.72829(15)
O14 O 0.5994(4) 2.1143(5) 0.2670(3)
H25 H 0.5707 2.1517 0.2623
H26 H 0.5860 2.0704 0.2765
O15 O 0.5000 1.2463(12) 0.2500
H27 H 0.5201 1.2908 0.2645
H27A H 0.4799 1.2908 0.2355
H28? H 0.5293 1.2093 0.2555
loop_
_geom_bond_atom_site_label_1
_geom_bond_atom_site_label_2
_geom_bond_site_symmetry_1
_geom_bond_site_symmetry_2
Ag1 N1 1_555 1_555
Ag2 N2 1_555 1_555
C1 H1 1_555 1_555
C2 H2 1_555 1_555
C3 C4 1_555 1_555
C4 C2 1_555 1_555
C5 H3 1_555 1_555
C6 H4 1_555 1_555
C7 H5 1_555 1_555
C8 C1 1_555 1_555
H6 C8 1_555 1_555
C9 C13 1_555 1_555
C10 C4 1_555 1_555
H7 C10 1_555 1_555
C11 C19 1_555 1_555
C12 C10 1_555 1_555
H8 C12 1_555 1_555
C13 C1 1_555 1_555
C14 H9 1_555 1_555
C15 C5 1_555 1_555
C16 H10 1_555 1_555
C17 C13 1_555 1_555
H11 C17 1_555 1_555
C18 H12 1_555 1_555
C19 C34 1_555 1_555
C20 H13 1_555 1_555
C21 C5 1_555 1_555
H14 C21 1_555 1_555
C22 C18 1_555 1_555
H15 C22 1_555 1_555
C23 C2 1_555 1_555
H16 C23 1_555 1_555
C24 C32 1_555 1_555
C25 C31 1_555 1_555
C26 C17 1_555 1_555
H17 C26 1_555 1_555
C27 C14 1_555 1_555
H18 C27 1_555 1_555
C28 C7 1_555 1_555
H19 C28 1_555 1_555
C29 C15 1_555 1_555
C30 C16 1_555 1_555
H20 C30 1_555 1_555
C31 C22 1_555 1_555
C32 C16 1_555 1_555
C33 C6 1_555 1_555
H21 C33 1_555 1_555
C34 H22 1_555 1_555
C35 C34 1_555 1_555
H23 C35 1_555 1_555
C36 C19 1_555 1_555
H24 C36 1_555 1_555
N1 C8 1_555 1_555
N2 C14 1_555 1_555
N3 C7 1_555 1_555
N4 C9 1_555 1_555
N5 C9 1_555 1_555
N6 C24 1_555 1_555
N7 Ag2 1_555 1_555
N8 C12 1_555 1_555
N9 C20 1_555 1_555
N10 C3 1_555 1_555
N11 C3 1_555 1_555
N12 C11 1_555 1_555
Mo1 O1 1_555 1_555
Mo2 O2 1_555 1_555
Mo3 O5 1_555 1_555
Mo4 O11 1_555 1_555
Mo5 O6 1_555 1_555
O2 Mo1 1_555 1_555
O3 Mo2 1_555 1_555
O4 Ag2 1_555 1_555
O5 Mo2 1_555 1_555
O6 Mo2 1_555 1_555
O7 Mo3 1_555 1_555
O8 Mo3 1_555 1_555
O9 Mo5 1_555 1_555
O10 Mo5 1_555 1_555
O11 Mo3 1_555 1_555
O12 Mo4 1_555 1_555
O13 Mo4 1_555 1_555
O14 H25 1_555 1_555
H26 O14 1_555 1_555
O15 H27 1_555 1_555
Ag1A N1A 1_555 1_555
Ag2A N2A 1_555 1_555
C1A H1A 1_555 1_555
C2A H2A 1_555 1_555
C3A C4A 1_555 1_555
C4A C2A 1_555 1_555
C5A H3A 1_555 1_555
C6A H4A 1_555 1_555
C7A H5A 1_555 1_555
C8A C1A 1_555 1_555
H6A C8A 1_555 1_555
C9A C13A 1_555 1_555
C10A C4A 1_555 1_555
H7A C10A 1_555 1_555
C11A C19A 1_555 1_555
C12A C10A 1_555 1_555
H8A C12A 1_555 1_555
C13A C1A 1_555 1_555
C14A H9A 1_555 1_555
C15A C5A 1_555 1_555
C16A H10A 1_555 1_555
C17A C13A 1_555 1_555
H11A C17A 1_555 1_555
C18A H12A 1_555 1_555
C19A C34A 1_555 1_555
C20A H13A 1_555 1_555
C21A C5A 1_555 1_555
H14A C21A 1_555 1_555
C22A C18A 1_555 1_555
H15A C22A 1_555 1_555
C23A C2A 1_555 1_555
H16A C23A 1_555 1_555
C24A C32A 1_555 1_555
C25A C31A 1_555 1_555
C26A C17A 1_555 1_555
H17A C26A 1_555 1_555
C27A C14A 1_555 1_555
H18A C27A 1_555 1_555
C28A C7A 1_555 1_555
H19A C28A 1_555 1_555
C29A C15A 1_555 1_555
C30A C16A 1_555 1_555
H20A C30A 1_555 1_555
C31A C22A 1_555 1_555
C32A C16A 1_555 1_555
C33A C6A 1_555 1_555
H21A C33A 1_555 1_555
C34A H22A 1_555 1_555
C35A C34A 1_555 1_555
H23A C35A 1_555 1_555
C36A C19A 1_555 1_555
H24A C36A 1_555 1_555
N1A C8A 1_555 1_555
N2A C14A 1_555 1_555
N3A C7A 1_555 1_555
N4A C9A 1_555 1_555
N5A C9A 1_555 1_555
N6A C24A 1_555 1_555
N7A Ag2A 1_555 1_555
N8A C12A 1_555 1_555
N9A C20A 1_555 1_555
N10A C3A 1_555 1_555
N11A C3A 1_555 1_555
N12A C11A 1_555 1_555
Mo2A O9 1_555 1_555
Mo3A O12 1_555 1_555
Mo5A O6A 1_555 1_555
O1A Mo1 1_555 1_555
O2A Mo1 1_555 1_555
O3A Mo2A 1_555 1_555
O4A Ag2A 1_555 1_555
O5A Mo2A 1_555 1_555
O6A Mo2A 1_555 1_555
O7A Mo3A 1_555 1_555
O8A Mo3A 1_555 1_555
O9A Mo2 1_555 1_555
O10A Mo5A 1_555 1_555
O11A Mo4 1_555 1_555
O12A Mo3 1_555 1_555
O13A Mo4 1_555 1_555
Ag1B N3 1_555 1_555
Ag1B_2 N9 1_555 1_555
Ag1C N9A 1_555 1_555
Ag1C_2 N3A 1_555 1_555
Ag2B N8 1_555 1_555
Ag2C N8A 1_555 1_555
N3B Ag1 1_555 1_555
N3C Ag1A 1_555 1_555
N8B Ag2 1_555 1_555
N8C Ag2A 1_555 1_555
N9B Ag1 1_555 1_555
N9C Ag1A 1_555 1_555
H27A O15 1_555 1_555
C6 N7 1_555 1_555
C11 N11 1_555 1_555
C15 C28 1_555 1_555
C18 N7 1_555 1_555
C20 C36 1_555 1_555
C21 N3 1_555 1_555
C23 N8 1_555 1_555
C24 N5 1_555 1_555
C25 N10 1_555 1_555
C25 N12 1_555 1_555
C26 N1 1_555 1_555
C27 C32 1_555 1_555
C29 N4 1_555 1_555
C29 N6 1_555 1_555
C30 N2 1_555 1_555
C31 C33 1_555 1_555
C35 N9 1_555 1_555
Mo2 O4 1_555 1_555
Mo3 O6 1_555 1_555
Mo4 O12A 1_555 1_555
Mo5 O12 1_555 1_555
C6A N7A 1_555 1_555
C11A N11A 1_555 1_555
C15A C28A 1_555 1_555
C18A N7A 1_555 1_555
C20A C36A 1_555 1_555
C21A N3A 1_555 1_555
C23A N8A 1_555 1_555
C24A N5A 1_555 1_555
C25A N10A 1_555 1_555
C25A N12A 1_555 1_555
C26A N1A 1_555 1_555
C27A C32A 1_555 1_555
C29A N4A 1_555 1_555
C29A N6A 1_555 1_555
C30A N2A 1_555 1_555
C31A C33A 1_555 1_555
C35A N9A 1_555 1_555
Mo2A O2A 1_555 1_555
Mo2A O4A 1_555 1_555
Mo3A O5A 1_555 1_555
Mo3A O6A 1_555 1_555
Mo3A O11A 1_555 1_555
Mo5A O9A 1_555 1_555
Mo5A O12A 1_555 1_555

#END
