
#######################################################################
#
#                 Cambridge Crystallographic Data Centre
#                                CCDC 
#
#######################################################################
#
# If this CIF has been generated from an entry in the Cambridge 
# Structural Database, then it will include bibliographic, chemical, 
# crystal, experimental, refinement or atomic coordinate data resulting 
# from the CCDC's data processing and validation procedures.
#
#######################################################################

data_QOKBOJ
_symmetry_cell_setting           tetragonal
_symmetry_space_group_name_H-M   'I 41/a m d'
_symmetry_Int_Tables_number      141
_space_group_name_Hall           '-I 4bd 2'
loop_
_symmetry_equiv_pos_site_id
_symmetry_equiv_pos_as_xyz
1 x,y,z
2 1/4-y,3/4+x,1/4+z
3 1/2-x,-y,1/2+z
4 1/4+y,1/4-x,3/4+z
5 x,-y,-z
6 1/4+y,3/4+x,1/4-z
7 1/2-x,y,1/2-z
8 1/4-y,1/4-x,3/4-z
9 1/2+x,1/2+y,1/2+z
10 3/4-y,1/4+x,3/4+z
11 -x,1/2-y,z
12 3/4+y,3/4-x,1/4+z
13 1/2+x,1/2-y,1/2-z
14 3/4+y,1/4+x,3/4-z
15 -x,1/2+y,-z
16 3/4-y,3/4-x,1/4-z
17 -x,-y,-z
18 3/4+y,1/4-x,3/4-z
19 1/2+x,y,1/2-z
20 3/4-y,3/4+x,1/4-z
21 -x,y,z
22 3/4-y,1/4-x,3/4+z
23 1/2+x,-y,1/2+z
24 3/4+y,3/4+x,1/4+z
25 1/2-x,1/2-y,1/2-z
26 1/4+y,3/4-x,1/4-z
27 x,1/2+y,-z
28 1/4-y,1/4+x,3/4-z
29 1/2-x,1/2+y,1/2+z
30 1/4-y,3/4-x,1/4+z
31 x,1/2-y,z
32 1/4+y,1/4+x,3/4+z
_cell_length_a                   34.4985(14)
_cell_length_b                   34.4985(14)
_cell_length_c                   20.3429(6)
_cell_angle_alpha                90
_cell_angle_beta                 90
_cell_angle_gamma                90
_cell_volume                     24211
loop_
_atom_site_label
_atom_site_type_symbol
_atom_site_fract_x
_atom_site_fract_y
_atom_site_fract_z
O10 O 0.0000 -0.0598(5) -0.2583(7)
Zr1 Zr 0.0000 0.04053(3) -0.39942(3)
Zr2 Zr 0.051070(15) -0.04175(2) -0.45037(2)
O1 O 0.03853(12) 0.02506(15) -0.31779(16)
O2 O 0.07870(14) -0.09408(17) -0.4935(3)
O3 O 0.07338(10) -0.02722(15) -0.35071(16)
O4 O 0.38786(10) -0.02568(14) -0.03431(16)
O5 O 0.0000 -0.0225(2) -0.4020(3)
O6 O 0.05047(15) 0.02219(18) -0.4510(2)
O7 O 0.0000 0.0636(2) -0.4990(2)
O8 O 0.03793(19) -0.09425(17) -0.3888(2)
O9 O 0.03472(19) 0.09457(18) -0.3800(3)
C1 C 0.08379(15) -0.0023(2) -0.2442(2)
C2 C 0.06944(17) 0.0187(2) -0.1925(2)
H1 H 0.0469 0.0331 -0.1981
C3 C 0.08775(18) 0.0188(2) -0.1324(2)
H2 H 0.0774 0.0330 -0.0977
C4 C 0.12165(15) -0.0024(2) -0.1236(2)
C5 C 0.13626(17) -0.0257(2) -0.1759(2)
H3 H 0.1582 -0.0409 -0.1703
C6 C 0.11640(18) -0.0249(2) -0.2359(2)
H4 H 0.1254 -0.0398 -0.2708
C7 C 0.1229(2) 0.0000 0.0000
H5 H 0.0960 0.0000 0.0000
C8 C 0.14439(18) -0.0018(2) -0.0590(2)
C9 C 0.18403(15) -0.0021(2) -0.0585(2)
H6 H 0.1976 -0.0038 -0.0979
C10 C 0.2040(2) 0.0000 0.0000
C11 C 0.2469(2) 0.0000 0.0000
C12 C 0.26768(16) -0.0268(2) -0.0379(2)
H7 H 0.2545 -0.0450 -0.0631
C13 C 0.30761(16) -0.0261(2) -0.0380(2)
H8 H 0.3211 -0.0436 -0.0642
C14 C 0.3280(2) 0.0000 0.0000
C15 C 0.06208(18) -0.0013(3) -0.3098(2)
C16 C 0.3710(2) 0.0000 0.0000
O1D O 0.03853(12) -0.02506(15) 0.31779(16)
O3D O 0.07338(10) 0.02722(15) 0.35071(16)
O4D O 0.38786(10) 0.02568(14) 0.03431(16)
C1D C 0.08379(15) 0.0023(2) 0.2442(2)
C2D C 0.06944(17) -0.0187(2) 0.1925(2)
H1D H 0.0469 -0.0331 0.1981
C3D C 0.08775(18) -0.0188(2) 0.1324(2)
H2D H 0.0774 -0.0330 0.0977
C4D C 0.12165(15) 0.0024(2) 0.1236(2)
C5D C 0.13626(17) 0.0257(2) 0.1759(2)
H3D H 0.1582 0.0409 0.1703
C6D C 0.11640(18) 0.0249(2) 0.2359(2)
H4D H 0.1254 0.0398 0.2708
C8D C 0.14439(18) 0.0018(2) 0.0590(2)
C9D C 0.18403(15) 0.0021(2) 0.0585(2)
H6D H 0.1976 0.0038 0.0979
C12D C 0.26768(16) 0.0268(2) 0.0379(2)
H7D H 0.2545 0.0450 0.0631
C13D C 0.30761(16) 0.0261(2) 0.0380(2)
H8D H 0.3211 0.0436 0.0642
C15D C 0.06208(18) 0.0013(3) 0.3098(2)
Zr2D Zr 0.051070(15) 0.04175(2) -0.54963(2)
O2D O 0.07870(14) 0.09408(17) -0.5065(3)
O6D O 0.05047(15) -0.02219(18) -0.5490(2)
O8D O 0.03793(19) 0.09425(17) -0.6112(2)
O9T O -0.03472(19) 0.09457(18) -0.3800(3)
Zr1D Zr 0.0000 -0.04053(3) -0.60058(3)
Zr1D_2 Zr 0.0000 -0.04053(3) 0.39942(3)
Zr2B Zr 0.448930(15) 0.04175(2) 0.04963(2)
Zr2D_2 Zr 0.051070(15) 0.04175(2) 0.45037(2)
Zr2F Zr 0.448930(15) -0.04175(2) -0.04963(2)
Zr2P Zr -0.051070(15) 0.04175(2) -0.54963(2)
Zr2T Zr -0.051070(15) -0.04175(2) -0.45037(2)
O1T O -0.03853(12) 0.02506(15) -0.31779(16)
O3D_2 O 0.07338(10) 0.02722(15) -0.64929(16)
O4B O 0.11214(10) 0.02568(14) -0.53431(16)
O4F O 0.11214(10) -0.02568(14) -0.46569(16)
O5D O 0.0000 0.0225(2) -0.5980(3)
O6T O -0.05047(15) 0.02219(18) -0.4510(2)
O7D O 0.0000 -0.0636(2) -0.5010(2)
loop_
_geom_bond_atom_site_label_1
_geom_bond_atom_site_label_2
_geom_bond_site_symmetry_1
_geom_bond_site_symmetry_2
Zr1 O1 1_555 1_555
Zr2 O2 1_555 1_555
O1 C15 1_555 1_555
O3 Zr2 1_555 1_555
O4 C16 1_555 1_555
O5 Zr1 1_555 1_555
O6 Zr1 1_555 1_555
O7 Zr1 1_555 1_555
O8 Zr2 1_555 1_555
O9 Zr1 1_555 1_555
C1 C2 1_555 1_555
C2 H1 1_555 1_555
C3 C2 1_555 1_555
H2 C3 1_555 1_555
C4 C3 1_555 1_555
C5 C4 1_555 1_555
H3 C5 1_555 1_555
C6 C1 1_555 1_555
H4 C6 1_555 1_555
C7 H5 1_555 1_555
C8 C4 1_555 1_555
C9 C8 1_555 1_555
H6 C9 1_555 1_555
C10 C9 1_555 1_555
C11 C10 1_555 1_555
C12 C11 1_555 1_555
H7 C12 1_555 1_555
C13 C12 1_555 1_555
H8 C13 1_555 1_555
C14 C13 1_555 1_555
C15 O3 1_555 1_555
C16 C14 1_555 1_555
O1D C15D 1_555 1_555
O3D C15D 1_555 1_555
O4D C16 1_555 1_555
C1D C2D 1_555 1_555
C2D H1D 1_555 1_555
C3D C2D 1_555 1_555
H2D C3D 1_555 1_555
C4D C3D 1_555 1_555
C5D C4D 1_555 1_555
H3D C5D 1_555 1_555
C6D C1D 1_555 1_555
H4D C6D 1_555 1_555
C8D C7 1_555 1_555
C9D C10 1_555 1_555
H6D C9D 1_555 1_555
C12D C11 1_555 1_555
H7D C12D 1_555 1_555
C13D C14 1_555 1_555
H8D C13D 1_555 1_555
C15D C1D 1_555 1_555
Zr2D O6 1_555 1_555
O2D Zr2D 1_555 1_555
O6D Zr2 1_555 1_555
O8D Zr2D 1_555 1_555
O9T Zr1 1_555 1_555
Zr1D O6D 1_555 1_555
Zr1D_2 O1D 1_555 1_555
Zr2B O4D 1_555 1_555
Zr2D_2 O3D 1_555 1_555
Zr2F O4 1_555 1_555
Zr2P O7 1_555 1_555
Zr2T O5 1_555 1_555
O1T Zr1 1_555 1_555
O3D_2 Zr2D 1_555 1_555
O4B Zr2D 1_555 1_555
O4F Zr2 1_555 1_555
O5D Zr2D 1_555 1_555
O6T Zr1 1_555 1_555
O7D Zr2 1_555 1_555
Zr2 O5 1_555 1_555
Zr2 O6 1_555 1_555
O7 Zr2D 1_555 1_555
C1 C15 1_555 1_555
C5 C6 1_555 1_555
C7 C8 1_555 1_555
C4D C8D 1_555 1_555
C5D C6D 1_555 1_555
C8D C9D 1_555 1_555
C12D C13D 1_555 1_555
Zr2D O6D 1_555 1_555
Zr1D O5D 1_555 1_555
Zr1D O7D 1_555 1_555
Zr2P O5D 1_555 1_555
Zr2P O6T 1_555 1_555
Zr2T O6T 1_555 1_555
Zr2T O7D 1_555 1_555

#END
