
#######################################################################
#
#                 Cambridge Crystallographic Data Centre
#                                CCDC 
#
#######################################################################
#
# If this CIF has been generated from an entry in the Cambridge 
# Structural Database, then it will include bibliographic, chemical, 
# crystal, experimental, refinement or atomic coordinate data resulting 
# from the CCDC's data processing and validation procedures.
#
#######################################################################

data_QOKKAE
_symmetry_cell_setting           triclinic
_symmetry_space_group_name_H-M   'P -1'
_symmetry_Int_Tables_number      2
_space_group_name_Hall           '-P 1'
loop_
_symmetry_equiv_pos_site_id
_symmetry_equiv_pos_as_xyz
1 x,y,z
2 -x,-y,-z
_cell_length_a                   8.6697(17)
_cell_length_b                   10.155(2)
_cell_length_c                   13.455(3)
_cell_angle_alpha                85.39(3)
_cell_angle_beta                 89.00(3)
_cell_angle_gamma                77.26(3)
_cell_volume                     1151.69
loop_
_atom_site_label
_atom_site_type_symbol
_atom_site_fract_x
_atom_site_fract_y
_atom_site_fract_z
Yb1 Yb 0.08102(3) 0.19330(3) 0.502635(19)
Yb2 Yb 0.46699(3) 0.23244(3) -0.077158(19)
O1 O 0.0632(5) 0.1382(5) 0.3358(3)
O2 O 0.1699(6) 0.0933(7) 0.1874(4)
O3 O 0.4615(6) 0.1859(5) 0.0901(3)
O4 O 0.5381(6) -0.0336(5) 0.1345(4)
O5 O 0.8412(5) 0.0373(4) 0.4925(3)
O6 O 0.8074(5) 0.2576(4) 0.4602(3)
O7 O 0.5607(5) 0.1907(5) 0.6139(3)
O8 O 0.2982(5) 0.2071(5) 0.5988(3)
O9 O -0.0066(5) 0.3794(5) 0.5968(3)
O10 O -0.0597(5) 0.6044(4) 0.5958(3)
O11 O 0.0142(6) 0.1162(5) 0.6582(3)
H1 H -0.0221 0.1719 0.7012
H2 H 0.0258 0.0316 0.6730
O12 O 0.3336(6) 0.4494(5) -0.0424(4)
O13 O 0.3546(6) 0.6399(5) 0.0248(4)
O14 O 0.2109(6) 0.2020(5) -0.0321(4)
H3 H 0.2001 0.2100 0.0302
H4 H 0.1859 0.1285 -0.0442
O15 O 0.2911(5) 0.3150(5) -0.2117(3)
H5 H 0.2176 0.2715 -0.2080
H6 H 0.3409 0.2977 -0.2658
O16 O 0.6217(6) 0.2673(5) -0.2120(4)
H7 H 0.6436 0.3444 -0.2253
H8 H 0.6573 0.2031 -0.2488
O17 O 0.7198(6) 0.0930(5) -0.0437(4)
H9 H 0.7890 0.1230 -0.0139
H10 H 0.7415 0.0126 -0.0617
N1 N 0.3281(6) 0.1622(5) 0.4103(4)
C1 C 0.1770(7) 0.1227(6) 0.2735(5)
C2 C 0.3331(7) 0.1363(6) 0.3144(4)
C3 C 0.4740(7) 0.1173(6) 0.2604(4)
C4 C 0.6138(7) 0.1236(6) 0.3093(4)
H11 H 0.7098 0.1103 0.2755
C5 C 0.6058(7) 0.1501(6) 0.4093(5)
C6 C 0.4604(7) 0.1692(6) 0.4571(4)
C7 C 0.4384(7) 0.1916(6) 0.5667(5)
C8 C 0.4890(7) 0.0881(6) 0.1528(4)
C9 C 0.7596(7) 0.1492(6) 0.4597(4)
C10 C -0.0179(7) 0.4937(6) 0.5563(5)
C11 C 0.4107(8) 0.5255(7) -0.0045(5)
O9A O 0.0066(5) 0.6206(5) 0.4032(3)
O10A O 0.0597(5) 0.3956(4) 0.4042(3)
C10A C 0.0179(7) 0.5063(6) 0.4437(5)
O12A O 0.6664(6) 0.5506(5) 0.0424(4)
O13A O 0.6454(6) 0.3601(5) -0.0248(4)
C11A C 0.5893(8) 0.4745(7) 0.0045(5)
Yb1A Yb -0.08102(3) 0.80670(3) 0.497365(19)
Yb2A Yb -0.46699(3) 0.76756(3) 1.077158(19)
O1A O -0.0632(5) 0.8618(5) 0.6642(3)
O2A O -0.1699(6) 0.9067(7) 0.8126(4)
O3A O -0.4615(6) 0.8141(5) 0.9099(3)
O4A O -0.5381(6) 1.0336(5) 0.8655(4)
O5A O -0.8412(5) 0.9627(4) 0.5075(3)
O6A O -0.8074(5) 0.7424(4) 0.5398(3)
O7A O -0.5607(5) 0.8093(5) 0.3861(3)
O8A O -0.2982(5) 0.7929(5) 0.4012(3)
O11A O -0.0142(6) 0.8838(5) 0.3418(3)
H1A H 0.0221 0.8281 0.2988
H2A H -0.0258 0.9684 0.3270
O14A O -0.2109(6) 0.7980(5) 1.0321(4)
H3A H -0.2001 0.7900 0.9698
H4A H -0.1859 0.8715 1.0442
O15A O -0.2911(5) 0.6850(5) 1.2117(3)
H5A H -0.2176 0.7285 1.2080
H6A H -0.3409 0.7023 1.2658
O16A O -0.6217(6) 0.7327(5) 1.2120(4)
H7A H -0.6436 0.6556 1.2253
H8A H -0.6573 0.7969 1.2488
O17A O -0.7198(6) 0.9070(5) 1.0437(4)
H9A H -0.7890 0.8770 1.0139
H10A H -0.7415 0.9874 1.0617
N1A N -0.3281(6) 0.8378(5) 0.5897(4)
C1A C -0.1770(7) 0.8773(6) 0.7265(5)
C2A C -0.3331(7) 0.8637(6) 0.6856(4)
C3A C -0.4740(7) 0.8827(6) 0.7396(4)
C4A C -0.6138(7) 0.8764(6) 0.6907(4)
H11A H -0.7098 0.8897 0.7245
C5A C -0.6058(7) 0.8499(6) 0.5907(5)
C6A C -0.4604(7) 0.8308(6) 0.5429(4)
C7A C -0.4384(7) 0.8084(6) 0.4333(5)
C8A C -0.4890(7) 0.9119(6) 0.8472(4)
C9A C -0.7596(7) 0.8508(6) 0.5403(4)
Yb1_2 Yb -0.91898(3) 1.19330(3) 0.502635(19)
Yb1_3 Yb 1.08102(3) 0.19330(3) 0.502635(19)
Yb1A_2 Yb -1.08102(3) 0.80670(3) 0.497365(19)
Yb1A_3 Yb 0.91898(3) -0.19330(3) 0.497365(19)
Yb2_2 Yb -0.53301(3) 1.23244(3) 0.922842(19)
Yb2A_2 Yb 0.53301(3) -0.23244(3) 0.077158(19)
Yb2A_3 Yb 0.53301(3) 0.76756(3) 0.077158(19)
O4_2 O -0.4619(6) 0.9664(5) 1.1345(4)
O4A_2 O 0.4619(6) 0.0336(5) -0.1345(4)
O5_2 O -0.1588(5) 1.0373(4) 0.4925(3)
O5A_2 O 0.1588(5) -0.0373(4) 0.5075(3)
O6_2 O -0.1926(5) 0.2576(4) 0.4602(3)
O6A_2 O 0.1926(5) 0.7424(4) 0.5398(3)
O12A_2 O -0.3336(6) 0.5506(5) 1.0424(4)
O13_2 O -0.6454(6) 0.6399(5) 1.0248(4)
O18 O 0.1267(8) 0.4693(7) 0.2033(5)
H12 H 0.2269 0.4629 0.2016
H13 H 0.1189 0.4814 0.2654
O19 O 0.7540(7) 0.4066(6) 0.2597(4)
H14 H 0.7872 0.3536 0.3107
H15 H 0.8322 0.4266 0.2277
O22 O 0.8545(19) 0.205(2) 0.1286(12)
O24 O 0.3631(9) 0.4972(6) 0.4626(6)
H16 H 0.3157 0.5780 0.4747
H17 H 0.3967 0.4568 0.5194
O25 O 0.4236(8) 0.4644(5) 0.2663(6)
H18 H 0.5209 0.4428 0.2507
H19 H 0.4151 0.4754 0.3282
O26 O 0.0391(6) -0.2439(5) 0.1665(4)
H20 H 0.1173 -0.2111 0.1461
H21 H 0.0721 -0.3257 0.1891
O22A O 1.1455(19) 0.795(2) -0.1286(12)
O20? O 0.996(2) 0.434(2) 0.0344(14)
O21? O 0.957(2) 0.331(2) 0.0912(15)
O23? O 0.8738(19) 0.086(2) 0.1207(11)
loop_
_geom_bond_atom_site_label_1
_geom_bond_atom_site_label_2
_geom_bond_site_symmetry_1
_geom_bond_site_symmetry_2
Yb1 O1 1_555 1_555
Yb2 O3 1_555 1_555
O1 C1 1_555 1_555
O2 C1 1_555 1_555
O3 C8 1_555 1_555
O4 C8 1_555 1_555
O5 C9 1_555 1_555
O6 C9 1_555 1_555
O7 C7 1_555 1_555
O8 Yb1 1_555 1_555
O9 Yb1 1_555 1_555
O10 C10 1_555 1_555
O11 Yb1 1_555 1_555
H1 O11 1_555 1_555
H2 O11 1_555 1_555
O12 Yb2 1_555 1_555
O13 C11 1_555 1_555
O14 Yb2 1_555 1_555
H3 O14 1_555 1_555
H4 O14 1_555 1_555
O15 Yb2 1_555 1_555
H5 O15 1_555 1_555
H6 O15 1_555 1_555
O16 Yb2 1_555 1_555
H7 O16 1_555 1_555
H8 O16 1_555 1_555
O17 Yb2 1_555 1_555
H9 O17 1_555 1_555
H10 O17 1_555 1_555
N1 Yb1 1_555 1_555
C1 C2 1_555 1_555
C2 N1 1_555 1_555
C3 C2 1_555 1_555
C4 C3 1_555 1_555
H11 C4 1_555 1_555
C5 C4 1_555 1_555
C6 N1 1_555 1_555
C7 O8 1_555 1_555
C8 C3 1_555 1_555
C9 C5 1_555 1_555
C10 O9 1_555 1_555
C11 O12 1_555 1_555
O18 H12 1_555 1_555
H13 O18 1_555 1_555
O19 H14 1_555 1_555
H15 O19 1_555 1_555
O24 H16 1_555 1_555
H17 O24 1_555 1_555
O25 H18 1_555 1_555
H19 O25 1_555 1_555
O26 H20 1_555 1_555
H21 O26 1_555 1_555
O9A C10A 1_555 1_555
O10A Yb1 1_555 1_555
C10A C10 1_555 1_555
O12A C11A 1_555 1_555
O13A Yb2 1_555 1_555
C11A C11 1_555 1_555
Yb1A O10 1_555 1_555
Yb2A O3A 1_555 1_555
O1A Yb1A 1_555 1_555
O2A C1A 1_555 1_555
O3A C8A 1_555 1_555
O4A C8A 1_555 1_555
O5A C9A 1_555 1_555
O6A C9A 1_555 1_555
O7A C7A 1_555 1_555
O8A Yb1A 1_555 1_555
O11A Yb1A 1_555 1_555
H1A O11A 1_555 1_555
H2A O11A 1_555 1_555
O14A Yb2A 1_555 1_555
H3A O14A 1_555 1_555
H4A O14A 1_555 1_555
O15A Yb2A 1_555 1_555
H5A O15A 1_555 1_555
H6A O15A 1_555 1_555
O16A Yb2A 1_555 1_555
H7A O16A 1_555 1_555
H8A O16A 1_555 1_555
O17A Yb2A 1_555 1_555
H9A O17A 1_555 1_555
H10A O17A 1_555 1_555
N1A Yb1A 1_555 1_555
C1A O1A 1_555 1_555
C2A N1A 1_555 1_555
C3A C2A 1_555 1_555
C4A C3A 1_555 1_555
H11A C4A 1_555 1_555
C5A C4A 1_555 1_555
C6A N1A 1_555 1_555
C7A O8A 1_555 1_555
C8A C3A 1_555 1_555
C9A C5A 1_555 1_555
Yb1_2 O5A 1_555 1_555
Yb1_3 O6 1_555 1_555
Yb1A_2 O6A 1_555 1_555
Yb1A_3 O5 1_555 1_555
Yb2_2 O4A 1_555 1_555
Yb2A_2 O4 1_555 1_555
Yb2A_3 O13 1_555 1_555
O4_2 Yb2A 1_555 1_555
O4A_2 Yb2 1_555 1_555
O5_2 Yb1A 1_555 1_555
O5A_2 Yb1 1_555 1_555
O6_2 Yb1 1_555 1_555
O6A_2 Yb1A 1_555 1_555
O12A_2 Yb2A 1_555 1_555
O13_2 Yb2A 1_555 1_555
C5 C6 1_555 1_555
C6 C7 1_555 1_555
O9A Yb1A 1_555 1_555
O10A C10A 1_555 1_555
O12A Yb2A_3 1_555 1_555
O13A C11A 1_555 1_555
C1A C2A 1_555 1_555
C5A C6A 1_555 1_555
C6A C7A 1_555 1_555

#END
