
#######################################################################
#
#                 Cambridge Crystallographic Data Centre
#                                CCDC 
#
#######################################################################
#
# If this CIF has been generated from an entry in the Cambridge 
# Structural Database, then it will include bibliographic, chemical, 
# crystal, experimental, refinement or atomic coordinate data resulting 
# from the CCDC's data processing and validation procedures.
#
#######################################################################

data_QOMGOQ
_symmetry_cell_setting           monoclinic
_symmetry_space_group_name_H-M   'P 21/m'
_symmetry_Int_Tables_number      11
_space_group_name_Hall           '-P 2yb'
loop_
_symmetry_equiv_pos_site_id
_symmetry_equiv_pos_as_xyz
1 x,y,z
2 -x,1/2+y,-z
3 -x,-y,-z
4 x,1/2-y,z
_cell_length_a                   18.3859(11)
_cell_length_b                   28.9574(18)
_cell_length_c                   18.3999(12)
_cell_angle_alpha                90
_cell_angle_beta                 114.5400(10)
_cell_angle_gamma                90
_cell_volume                     8911.37
loop_
_atom_site_label
_atom_site_type_symbol
_atom_site_fract_x
_atom_site_fract_y
_atom_site_fract_z
Zn1 Zn 0.079122(15) 0.454906(10) 0.078422(19)
Zn2 Zn 0.421605(15) 0.545088(10) 0.420920(19)
O1 O 0.19396(11) 0.45661(6) 0.17110(13)
O2 O 0.32881(11) 0.54334(6) 0.30614(13)
O3 O 0.06446(10) 0.52515(6) 0.08028(12)
O4 O 0.41948(10) 0.47512(6) 0.43574(12)
O5 O 0.50494(10) 0.41703(6) 0.48509(12)
O6 O 0.15303(11) 0.38662(7) 0.12699(14)
O7 O 0.37322(11) 0.61334(7) 0.34683(13)
N1 N 0.12504(13) 0.46144(8) -0.01022(17)
O8 O 0.01506(10) 0.58296(6) -0.00451(12)
N2 N 0.03107(14) 0.45112(8) 0.16632(17)
N3 N -0.33400(15) 0.45107(9) 0.53057(17)
N4 N 0.48961(14) 0.46127(8) -0.37523(16)
C1 C 0.41910(15) 0.36109(9) 0.35783(18)
H1 H 0.4660 0.3496 0.3975
C2 C 0.06718(14) 0.56444(9) 0.05681(17)
C3 C 0.14221(16) 0.63899(9) 0.08094(18)
H2 H 0.1027 0.6504 0.0338
C4 C 0.30188(15) 0.34945(8) 0.23404(18)
H3 H 0.2708 0.3301 0.1923
C5 C 0.26599(16) 0.65068(9) 0.19775(18)
H4 H 0.3080 0.6699 0.2286
C6 C 0.44338(14) 0.43544(9) 0.43298(17)
C7 C 0.32602(14) 0.58633(9) 0.29667(18)
C8 C 0.39521(14) 0.40591(9) 0.36091(17)
C9 C 0.20388(15) 0.41375(9) 0.17411(18)
C10 C 0.20597(16) 0.66630(8) 0.12863(18)
C11 C 0.27949(14) 0.39467(9) 0.23727(18)
C12 C 0.37173(16) 0.33384(8) 0.29454(19)
C13 C 0.13925(14) 0.59405(9) 0.10573(17)
C14 C 0.3520(2) 0.2500 0.2834(3)
H5 H 0.2979 0.2500 0.2726
C15 C 0.2173(2) 0.7500 0.1484(3)
H6 H 0.2277 0.7500 0.2024
C16 C 0.26230(15) 0.60510(8) 0.22057(17)
C17 C 0.19953(15) 0.57674(9) 0.17437(18)
H7 H 0.1979 0.5462 0.1894
N5 N 0.39728(13) 0.28693(7) 0.29240(16)
C18 C 0.32624(15) 0.42323(9) 0.30047(18)
H8 H 0.3112 0.4538 0.3021
N6 N 0.20847(15) 0.71306(7) 0.10262(16)
C19 C 0.17130(19) 0.49618(11) -0.0106(2)
H9 H 0.1815 0.5191 0.0278
C20 C 0.48949(18) 0.49693(11) -0.3287(2)
H10 H 0.5276 0.5200 -0.3191
C21 C 0.43616(19) 0.50129(11) -0.2945(2)
H11 H 0.4384 0.5268 -0.2630
C22 C 0.19299(19) 0.46752(12) -0.1202(2)
C23 C 0.3795(2) 0.46768(12) -0.3071(2)
C24 C 0.20555(18) 0.50073(11) -0.0643(2)
H12 H 0.2369 0.5263 -0.0622
C25 C -0.33474(19) 0.41792(12) 0.4806(2)
H13 H -0.3735 0.3950 0.4683
C26 C -0.0203(2) 0.41835(12) 0.1646(2)
H14 H -0.0339 0.3959 0.1250
C27 C 0.3254(2) 0.46861(14) -0.2651(3)
C28 C -0.2240(2) 0.44842(13) 0.4614(3)
C29 C -0.0383(2) 0.44848(13) 0.2749(3)
C30 C 0.2347(2) 0.46885(14) -0.1751(3)
C31 C 0.4313(2) 0.43066(12) -0.3910(2)
H15 H 0.4277 0.4067 -0.4260
C32 C 0.3759(2) 0.43219(14) -0.3589(3)
H16 H 0.3364 0.4097 -0.3718
C33 C -0.2817(2) 0.41553(14) 0.4461(3)
H17 H -0.2849 0.3912 0.4119
C34 C -0.0540(2) 0.41610(14) 0.2181(3)
H18 H -0.0883 0.3919 0.2152
C35 C 0.47402(17) 0.27333(10) 0.3060(3)
H19 H 0.5171 0.2925 0.3136
C36 C 0.1094(2) 0.43056(13) -0.0681(2)
H20 H 0.0743 0.4067 -0.0714
C37 C 0.1412(2) 0.43155(14) -0.1232(3)
H21 H 0.1287 0.4087 -0.1620
C38 C 0.1954(2) 0.72673(10) 0.0265(2)
H22 H 0.1880 0.7076 -0.0165
C39 C -0.2203(3) 0.48253(13) 0.5170(3)
H23 H -0.1805 0.5050 0.5320
C40 C -0.0781(3) 0.44879(15) 0.3320(4)
C41 C -0.1693(3) 0.44853(14) 0.4217(4)
C42 C 0.0486(3) 0.48261(12) 0.2240(3)
H24 H 0.0842 0.5060 0.2265
C43 C 0.0176(3) 0.48255(14) 0.2793(3)
H25 H 0.0331 0.5047 0.3194
C44 C -0.2760(2) 0.48251(12) 0.5491(3)
H26 H -0.2730 0.5055 0.5854
C45 C -0.1169(3) 0.4793(3) 0.4274(3)
H27 H -0.1080 0.5026 0.4650
C46 C 0.2281(4) 0.4392(3) -0.2266(4)
H28 H 0.1900 0.4162 -0.2359
C47 C -0.0729(3) 0.4809(3) 0.3826(3)
H29 H -0.0385 0.5057 0.3888
C48 C 0.2729(4) 0.4379(2) -0.2706(4)
H30 H 0.2648 0.4136 -0.3061
C49 C 0.2911(8) 0.4971(4) -0.1647(9)
H31 H 0.3075 0.5165 -0.1205
C50 C 0.3297(8) 0.5008(4) -0.2148(9)
H32 H 0.3595 0.5272 -0.2123
C51 C -0.1764(10) 0.4176(3) 0.3707(11)
H33 H -0.2122 0.3935 0.3642
C52 C -0.1332(10) 0.4178(3) 0.3235(10)
H34 H -0.1439 0.3951 0.2846
O1C O 0.19396(11) 0.04339(6) 0.17110(13)
O4C O 0.41948(10) 0.02488(6) 0.43574(12)
O5C O 0.50494(10) 0.08297(6) 0.48509(12)
O6C O 0.15303(11) 0.11338(7) 0.12699(14)
C1C C 0.41910(15) 0.13891(9) 0.35783(18)
H1C H 0.4660 0.1504 0.3975
C4C C 0.30188(15) 0.15055(8) 0.23404(18)
H3C H 0.2708 0.1699 0.1923
C6C C 0.44338(14) 0.06456(9) 0.43298(17)
C8C C 0.39521(14) 0.09409(9) 0.36091(17)
C9C C 0.20388(15) 0.08625(9) 0.17411(18)
C11C C 0.27949(14) 0.10533(9) 0.23727(18)
C12C C 0.37173(16) 0.16616(8) 0.29454(19)
N5C N 0.39728(13) 0.21307(7) 0.29240(16)
C18C C 0.32624(15) 0.07677(9) 0.30047(18)
H8C H 0.3112 0.0462 0.3021
C35C C 0.47402(17) 0.22667(10) 0.3060(3)
H19C H 0.5171 0.2075 0.3136
O2C O 0.32881(11) 0.95666(6) 0.30614(13)
O3C O 0.06446(10) 0.97485(6) 0.08028(12)
O7C O 0.37322(11) 0.88666(7) 0.34683(13)
O8C O 0.01506(10) 0.91704(6) -0.00451(12)
C2C C 0.06718(14) 0.93556(9) 0.05681(17)
C3C C 0.14221(16) 0.86101(9) 0.08094(18)
H2C H 0.1027 0.8496 0.0338
C5C C 0.26599(16) 0.84932(9) 0.19775(18)
H4C H 0.3080 0.8301 0.2286
C7C C 0.32602(14) 0.91367(9) 0.29667(18)
C10C C 0.20597(16) 0.83370(8) 0.12863(18)
C13C C 0.13925(14) 0.90595(9) 0.10573(17)
C16C C 0.26230(15) 0.89490(8) 0.22057(17)
C17C C 0.19953(15) 0.92326(9) 0.17437(18)
H7C H 0.1979 0.9538 0.1894
N6C N 0.20847(15) 0.78694(7) 0.10262(16)
C38C C 0.1954(2) 0.77327(10) 0.0265(2)
H22C H 0.1880 0.7924 -0.0165
Zn1B Zn -0.079122(15) 0.545094(10) -0.078422(19)
N1B N -0.12504(13) 0.53856(8) 0.01022(17)
N2B N -0.03107(14) 0.54888(8) -0.16632(17)
N3B N 0.33400(15) 0.54893(9) -0.53057(17)
N4B N -0.48961(14) 0.53873(8) 0.37523(16)
C19B C -0.17130(19) 0.50382(11) 0.0106(2)
H9B H -0.1815 0.4809 -0.0278
C20B C -0.48949(18) 0.50307(11) 0.3287(2)
H10B H -0.5276 0.4800 0.3191
C21B C -0.43616(19) 0.49871(11) 0.2945(2)
H11B H -0.4384 0.4732 0.2630
C22B C -0.19299(19) 0.53248(12) 0.1202(2)
C23B C -0.3795(2) 0.53232(12) 0.3071(2)
C24B C -0.20555(18) 0.49927(11) 0.0643(2)
H12B H -0.2369 0.4737 0.0622
C25B C 0.33474(19) 0.58208(12) -0.4806(2)
H13B H 0.3735 0.6050 -0.4683
C26B C 0.0203(2) 0.58165(12) -0.1646(2)
H14B H 0.0339 0.6041 -0.1250
C27B C -0.3254(2) 0.53139(14) 0.2651(3)
C28B C 0.2240(2) 0.55158(13) -0.4614(3)
C29B C 0.0383(2) 0.55152(13) -0.2749(3)
C30B C -0.2347(2) 0.53115(14) 0.1751(3)
C31B C -0.4313(2) 0.56934(12) 0.3910(2)
H15B H -0.4277 0.5933 0.4260
C32B C -0.3759(2) 0.56781(14) 0.3589(3)
H16B H -0.3364 0.5903 0.3718
C33B C 0.2817(2) 0.58447(14) -0.4461(3)
H17B H 0.2849 0.6088 -0.4119
C34B C 0.0540(2) 0.58390(14) -0.2181(3)
H18B H 0.0883 0.6081 -0.2152
C36B C -0.1094(2) 0.56944(13) 0.0681(2)
H20B H -0.0743 0.5933 0.0714
C37B C -0.1412(2) 0.56845(14) 0.1232(3)
H21B H -0.1287 0.5913 0.1620
C39B C 0.2203(3) 0.51747(13) -0.5170(3)
H23B H 0.1805 0.4950 -0.5320
C40B C 0.0781(3) 0.55121(15) -0.3320(4)
C41B C 0.1693(3) 0.55147(14) -0.4217(4)
C42B C -0.0486(3) 0.51739(12) -0.2240(3)
H24B H -0.0842 0.4940 -0.2265
C43B C -0.0176(3) 0.51745(14) -0.2793(3)
H25B H -0.0331 0.4953 -0.3194
C44B C 0.2760(2) 0.51749(12) -0.5491(3)
H26B H 0.2730 0.4945 -0.5854
C45B C 0.1169(3) 0.5207(3) -0.4274(3)
H27B H 0.1080 0.4974 -0.4650
C46B C -0.2281(4) 0.5608(3) 0.2266(4)
H28B H -0.1900 0.5838 0.2359
C47B C 0.0729(3) 0.5191(3) -0.3826(3)
H29B H 0.0385 0.4943 -0.3888
C48B C -0.2729(4) 0.5621(2) 0.2706(4)
H30B H -0.2648 0.5864 0.3061
C49B C -0.2911(8) 0.5029(4) 0.1647(9)
H31B H -0.3075 0.4835 0.1205
C50B C -0.3297(8) 0.4992(4) 0.2148(9)
H32B H -0.3595 0.4728 0.2123
C51B C 0.1764(10) 0.5824(3) -0.3707(11)
H33B H 0.2122 0.6065 -0.3642
C52B C 0.1332(10) 0.5822(3) -0.3235(10)
H34B H 0.1439 0.6049 -0.2846
Zn2B Zn 0.578395(15) 0.454912(10) 0.579080(19)
Zn1A Zn -0.079122(15) 0.954906(10) -0.078422(19)
Zn1C Zn 0.079122(15) 0.045094(10) 0.078422(19)
Zn1C_2 Zn 0.079122(15) 1.045094(10) 0.078422(19)
Zn2_2 Zn -0.578395(15) 0.545088(10) 0.420920(19)
Zn2_3 Zn 0.421605(15) 0.545088(10) -0.579080(19)
Zn2A Zn 0.578395(15) 0.045088(10) 0.579080(19)
Zn2B_2 Zn -0.421605(15) 0.454912(10) 0.579080(19)
Zn2B_3 Zn 0.578395(15) 0.454912(10) -0.420920(19)
Zn2C Zn 0.421605(15) -0.045088(10) 0.420920(19)
Zn2C_2 Zn 0.421605(15) 0.954912(10) 0.420920(19)
O1B O -0.19396(11) 0.54339(6) -0.17110(13)
O2B O 0.67119(11) 0.45666(6) 0.69386(13)
O3B O -0.06446(10) 0.47485(6) -0.08028(12)
O4B O 0.58052(10) 0.52488(6) 0.56426(12)
O5B O 0.49506(10) 0.58297(6) 0.51491(12)
O6B O -0.15303(11) 0.61338(7) -0.12699(14)
O7B O 0.62678(11) 0.38666(7) 0.65317(13)
O8B O -0.01506(10) 0.41704(6) 0.00451(12)
N3_2 N 0.66600(15) 0.45107(9) 0.53057(17)
N3B_2 N 0.33400(15) 0.54893(9) 0.46943(17)
N4_2 N 0.48961(14) 0.46127(8) 0.62477(16)
N4B_2 N 0.51039(14) 0.53873(8) 0.37523(16)
loop_
_geom_bond_atom_site_label_1
_geom_bond_atom_site_label_2
_geom_bond_site_symmetry_1
_geom_bond_site_symmetry_2
Zn1 O1 1_555 1_555
Zn2 O2 1_555 1_555
O1 C9 1_555 1_555
O2 C7 1_555 1_555
O3 Zn1 1_555 1_555
O4 Zn2 1_555 1_555
O5 C6 1_555 1_555
O6 Zn1 1_555 1_555
O7 Zn2 1_555 1_555
N1 Zn1 1_555 1_555
O8 C2 1_555 1_555
N2 Zn1 1_555 1_555
N3 C25 1_555 1_555
N4 C20 1_555 1_555
C1 H1 1_555 1_555
C2 O3 1_555 1_555
C3 H2 1_555 1_555
C4 H3 1_555 1_555
C5 H4 1_555 1_555
C6 O4 1_555 1_555
C7 O7 1_555 1_555
C8 C1 1_555 1_555
C9 O6 1_555 1_555
C10 C3 1_555 1_555
C11 C4 1_555 1_555
C12 C1 1_555 1_555
C13 C2 1_555 1_555
C14 H5 1_555 1_555
C15 H6 1_555 1_555
C16 C5 1_555 1_555
C17 C13 1_555 1_555
H7 C17 1_555 1_555
N5 C12 1_555 1_555
C18 C8 1_555 1_555
H8 C18 1_555 1_555
N6 C10 1_555 1_555
C19 N1 1_555 1_555
H9 C19 1_555 1_555
C20 H10 1_555 1_555
C21 C20 1_555 1_555
H11 C21 1_555 1_555
C22 C24 1_555 1_555
C23 C21 1_555 1_555
C24 C19 1_555 1_555
H12 C24 1_555 1_555
C25 H13 1_555 1_555
C26 N2 1_555 1_555
H14 C26 1_555 1_555
C27 C23 1_555 1_555
C28 C33 1_555 1_555
C29 C34 1_555 1_555
C30 C22 1_555 1_555
C31 N4 1_555 1_555
H15 C31 1_555 1_555
C32 C23 1_555 1_555
H16 C32 1_555 1_555
C33 C25 1_555 1_555
H17 C33 1_555 1_555
C34 C26 1_555 1_555
H18 C34 1_555 1_555
C35 N5 1_555 1_555
H19 C35 1_555 1_555
C36 N1 1_555 1_555
H20 C36 1_555 1_555
C37 C22 1_555 1_555
H21 C37 1_555 1_555
C38 N6 1_555 1_555
H22 C38 1_555 1_555
C39 C28 1_555 1_555
H23 C39 1_555 1_555
C40 C29 1_555 1_555
C41 C28 1_555 1_555
C42 N2 1_555 1_555
H24 C42 1_555 1_555
C43 C29 1_555 1_555
H25 C43 1_555 1_555
C44 N3 1_555 1_555
H26 C44 1_555 1_555
C45 C41 1_555 1_555
H27 C45 1_555 1_555
C46 C30 1_555 1_555
H28 C46 1_555 1_555
C47 C40 1_555 1_555
H29 C47 1_555 1_555
C48 C27 1_555 1_555
H30 C48 1_555 1_555
C49 C30 1_555 1_555
H31 C49 1_555 1_555
C50 C27 1_555 1_555
H32 C50 1_555 1_555
C51 C41 1_555 1_555
H33 C51 1_555 1_555
C52 C40 1_555 1_555
H34 C52 1_555 1_555
O1C C9C 1_555 1_555
O4C C6C 1_555 1_555
O5C C6C 1_555 1_555
O6C C9C 1_555 1_555
C1C H1C 1_555 1_555
C4C H3C 1_555 1_555
C6C C8C 1_555 1_555
C8C C1C 1_555 1_555
C9C C11C 1_555 1_555
C11C C4C 1_555 1_555
C12C C1C 1_555 1_555
N5C C14 1_555 1_555
C18C C8C 1_555 1_555
H8C C18C 1_555 1_555
C35C C35 1_555 1_555
H19C C35C 1_555 1_555
O2C C7C 1_555 1_555
O3C C2C 1_555 1_555
O7C C7C 1_555 1_555
O8C C2C 1_555 1_555
C2C C13C 1_555 1_555
C3C H2C 1_555 1_555
C5C H4C 1_555 1_555
C7C C16C 1_555 1_555
C10C C3C 1_555 1_555
C13C C3C 1_555 1_555
C16C C5C 1_555 1_555
C17C C13C 1_555 1_555
H7C C17C 1_555 1_555
N6C C15 1_555 1_555
C38C C38 1_555 1_555
H22C C38C 1_555 1_555
Zn1B O8 1_555 1_555
N1B Zn1B 1_555 1_555
N2B Zn1B 1_555 1_555
N3B C25B 1_555 1_555
N4B C20B 1_555 1_555
C19B N1B 1_555 1_555
H9B C19B 1_555 1_555
C20B H10B 1_555 1_555
C21B C20B 1_555 1_555
H11B C21B 1_555 1_555
C22B C24B 1_555 1_555
C23B C21B 1_555 1_555
C24B C19B 1_555 1_555
H12B C24B 1_555 1_555
C25B H13B 1_555 1_555
C26B N2B 1_555 1_555
H14B C26B 1_555 1_555
C27B C23B 1_555 1_555
C28B C33B 1_555 1_555
C29B C34B 1_555 1_555
C30B C22B 1_555 1_555
C31B N4B 1_555 1_555
H15B C31B 1_555 1_555
C32B C23B 1_555 1_555
H16B C32B 1_555 1_555
C33B C25B 1_555 1_555
H17B C33B 1_555 1_555
C34B C26B 1_555 1_555
H18B C34B 1_555 1_555
C36B N1B 1_555 1_555
H20B C36B 1_555 1_555
C37B C22B 1_555 1_555
H21B C37B 1_555 1_555
C39B C28B 1_555 1_555
H23B C39B 1_555 1_555
C40B C29B 1_555 1_555
C41B C28B 1_555 1_555
C42B N2B 1_555 1_555
H24B C42B 1_555 1_555
C43B C29B 1_555 1_555
H25B C43B 1_555 1_555
C44B N3B 1_555 1_555
H26B C44B 1_555 1_555
C45B C41B 1_555 1_555
H27B C45B 1_555 1_555
C46B C30B 1_555 1_555
H28B C46B 1_555 1_555
C47B C40B 1_555 1_555
H29B C47B 1_555 1_555
C48B C27B 1_555 1_555
H30B C48B 1_555 1_555
C49B C30B 1_555 1_555
H31B C49B 1_555 1_555
C50B C27B 1_555 1_555
H32B C50B 1_555 1_555
C51B C41B 1_555 1_555
H33B C51B 1_555 1_555
C52B C40B 1_555 1_555
H34B C52B 1_555 1_555
Zn2B O5 1_555 1_555
Zn1A O8C 1_555 1_555
Zn1C O1C 1_555 1_555
Zn1C_2 O3C 1_555 1_555
Zn2_2 N4B 1_555 1_555
Zn2_3 N3B 1_555 1_555
Zn2A O5C 1_555 1_555
Zn2B_2 N3 1_555 1_555
Zn2B_3 N4 1_555 1_555
Zn2C O4C 1_555 1_555
Zn2C_2 O2C 1_555 1_555
O1B Zn1B 1_555 1_555
O2B Zn2B 1_555 1_555
O3B Zn1B 1_555 1_555
O4B Zn2B 1_555 1_555
O5B Zn2 1_555 1_555
O6B Zn1B 1_555 1_555
O7B Zn2B 1_555 1_555
O8B Zn1 1_555 1_555
N3_2 Zn2B 1_555 1_555
N3B_2 Zn2 1_555 1_555
N4_2 Zn2B 1_555 1_555
N4B_2 Zn2 1_555 1_555
C3 C13 1_555 1_555
C4 C12 1_555 1_555
C5 C10 1_555 1_555
C6 C8 1_555 1_555
C7 C16 1_555 1_555
C9 C11 1_555 1_555
C11 C18 1_555 1_555
C14 N5 1_555 1_555
C15 N6 1_555 1_555
C16 C17 1_555 1_555
C31 C32 1_555 1_555
C36 C37 1_555 1_555
C39 C44 1_555 1_555
C42 C43 1_555 1_555
C45 C47 1_555 1_555
C46 C48 1_555 1_555
C49 C50 1_555 1_555
C51 C52 1_555 1_555
O6C Zn1C 1_555 1_555
C4C C12C 1_555 1_555
C11C C18C 1_555 1_555
C12C N5C 1_555 1_555
N5C C35C 1_555 1_555
O7C Zn2C_2 1_555 1_555
C5C C10C 1_555 1_555
C10C N6C 1_555 1_555
C16C C17C 1_555 1_555
N6C C38C 1_555 1_555
C31B C32B 1_555 1_555
C36B C37B 1_555 1_555
C39B C44B 1_555 1_555
C42B C43B 1_555 1_555
C45B C47B 1_555 1_555
C46B C48B 1_555 1_555
C49B C50B 1_555 1_555
C51B C52B 1_555 1_555

#END
