
#######################################################################
#
#                 Cambridge Crystallographic Data Centre
#                                CCDC 
#
#######################################################################
#
# If this CIF has been generated from an entry in the Cambridge 
# Structural Database, then it will include bibliographic, chemical, 
# crystal, experimental, refinement or atomic coordinate data resulting 
# from the CCDC's data processing and validation procedures.
#
#######################################################################

data_QOMGIK
_symmetry_cell_setting           monoclinic
_symmetry_space_group_name_H-M   'P 21/m'
_symmetry_Int_Tables_number      11
_space_group_name_Hall           '-P 2yb'
loop_
_symmetry_equiv_pos_site_id
_symmetry_equiv_pos_as_xyz
1 x,y,z
2 -x,1/2+y,-z
3 -x,-y,-z
4 x,1/2-y,z
_cell_length_a                   13.591(5)
_cell_length_b                   29.082(5)
_cell_length_c                   19.884(5)
_cell_angle_alpha                90
_cell_angle_beta                 96.667(5)
_cell_angle_gamma                90
_cell_volume                     7806.07
loop_
_atom_site_label
_atom_site_type_symbol
_atom_site_fract_x
_atom_site_fract_y
_atom_site_fract_z
Zn1 Zn 0.492792(18) 0.947925(8) 0.825650(11)
Zn2 Zn 0.545006(18) 1.035097(8) 0.675391(11)
O1 O 0.44053(12) 0.89608(5) 0.37927(7)
O2 O 0.47177(11) 0.96193(5) 0.43176(7)
C1 C 0.40404(16) 0.83314(7) 0.56590(10)
O3 O 0.57034(11) 1.06827(5) 0.76438(7)
O4 O 0.54564(16) 1.12484(6) 1.11010(8)
C2 C 0.46361(15) 0.90166(7) 0.62155(9)
N1 N 0.61175(16) 1.21309(6) 0.89852(9)
O5 O 0.47096(11) 0.90963(5) 0.73994(6)
C3 C 0.55412(16) 1.09007(7) 0.87590(10)
C4 C 0.45483(15) 0.91942(7) 0.43286(10)
N2 N 0.33607(15) 0.95626(6) 0.81927(9)
O6 O 0.50439(12) 1.01755(5) 0.83075(8)
N3 N 0.70161(13) 1.02675(6) 0.67865(9)
N4 N 0.37086(15) 0.78702(6) 0.57190(9)
C5 C 0.44845(16) 0.89671(7) 0.49986(10)
C6 C 0.53563(15) 1.07748(7) 0.94072(10)
H1 H 0.5164 1.0469 0.9498
O7 O 0.53560(11) 0.96557(5) 0.68297(7)
C7 C 0.42799(16) 0.85791(7) 0.62541(10)
H2 H 0.4197 0.8446 0.6680
C8 C 0.58757(19) 1.16685(7) 0.91344(11)
C9 C 0.57889(17) 1.13435(7) 0.86128(10)
H3 H 0.5899 1.1428 0.8166
N5 N 1.38870(15) 1.04239(6) 0.67576(9)
C10 C 0.49230(15) 0.92794(7) 0.68576(9)
N6 N -0.35030(13) 0.93967(7) 0.82951(9)
C11 C 0.41399(17) 0.85197(7) 0.50265(10)
H4 H 0.3976 0.8346 0.4625
C12 C 0.52784(18) 1.09631(9) 1.06258(11)
O8 O 0.49874(12) 1.05611(6) 1.07109(7)
C13 C 0.47403(15) 0.92199(7) 0.55893(9)
H5 H 0.4982 0.9525 0.5567
C14 C 1.18497(18) 1.04625(9) 0.68549(13)
C15 C 0.54554(18) 1.11018(8) 0.99227(10)
C16 C 1.25127(19) 1.07977(9) 0.71401(14)
H6 H 1.2271 1.1052 0.7372
C17 C 1.22699(19) 1.01126(10) 0.65045(14)
H7 H 1.1863 0.9875 0.6294
C18 C 0.57167(19) 1.15504(8) 0.97889(11)
H8 H 0.5786 1.1774 1.0140
C19 C 0.27324(17) 0.92550(9) 0.78748(12)
H9 H 0.2992 0.9019 0.7615
C20 C 0.86239(18) 1.05891(9) 0.70422(13)
H10 H 0.9020 1.0840 0.7221
C21 C 0.1967(2) 0.99247(10) 0.85991(15)
H11 H 0.1724 1.0167 0.8854
C22 C 0.4138(3) 0.7500 0.54972(15)
H12 H 0.4667 0.7500 0.5224
C23 C 0.29550(19) 0.98926(9) 0.85465(14)
H13 H 0.3382 1.0116 0.8773
C24 C -0.0397(2) 0.93291(11) 0.81468(14)
H14 H -0.0175 0.9069 0.7917
C25 C -0.14698(19) 0.93520(10) 0.82264(13)
C26 C 0.54272(15) 1.05539(7) 0.81960(10)
C27 C 0.90677(18) 1.02061(9) 0.67849(13)
C28 C 0.6769(2) 1.22707(8) 0.85392(12)
H15 H 0.7145 1.2077 0.8282
C29 C 0.13159(19) 0.96046(10) 0.82824(14)
C30 C 0.74348(19) 0.98984(9) 0.65484(14)
H16 H 0.7019 0.9654 0.6373
C31 C 0.84397(19) 0.98529(10) 0.65436(15)
H17 H 0.8704 0.9579 0.6375
C32 C 1.07933(19) 1.04914(10) 0.69221(13)
H18 H 1.0561 1.0766 0.7108
C33 C -0.28861(19) 0.96912(10) 0.86310(13)
H19 H -0.3152 0.9918 0.8903
C34 C -0.1876(2) 0.96846(10) 0.86056(15)
H20 H -0.1463 0.9907 0.8847
C35 C -0.2099(2) 0.90386(10) 0.78968(14)
H21 H -0.1847 0.8798 0.7643
C36 C 0.0260(2) 0.96322(11) 0.83642(15)
H22 H 0.0042 0.9893 0.8594
C37 C 1.34765(18) 1.07626(8) 0.70885(13)
H23 H 1.3902 1.0993 0.7300
C38 C 0.17282(19) 0.92680(10) 0.79104(13)
H24 H 0.1312 0.9043 0.7677
C39 C 0.76293(18) 1.06042(9) 0.70369(12)
H25 H 0.7347 1.0868 0.7221
C40 C -0.30943(18) 0.90730(9) 0.79343(12)
H26 H -0.3520 0.8856 0.7692
C41 C 1.01326(18) 1.01671(10) 0.67461(14)
H27 H 1.0368 0.9886 0.6581
C42 C 1.32677(18) 1.01103(10) 0.64632(13)
H28 H 1.3532 0.9872 0.6211
C43 C 0.3016(2) 0.77289(9) 0.61332(16)
H29 H 0.2614 0.7923 0.6373
C44 C 0.5735(3) 1.2500 0.92474(15)
H30 H 0.5268 1.2500 0.9568
O1C O 0.44053(12) 0.60392(5) 0.37927(7)
O2C O 0.47177(11) 0.53807(5) 0.43176(7)
C1C C 0.40404(16) 0.66686(7) 0.56590(10)
C2C C 0.46361(15) 0.59834(7) 0.62155(9)
O5C O 0.47096(11) 0.59037(5) 0.73994(6)
C4C C 0.45483(15) 0.58058(7) 0.43286(10)
N4C N 0.37086(15) 0.71298(6) 0.57190(9)
C5C C 0.44845(16) 0.60329(7) 0.49986(10)
O7C O 0.53560(11) 0.53443(5) 0.68297(7)
C7C C 0.42799(16) 0.64209(7) 0.62541(10)
H2C H 0.4197 0.6554 0.6680
C10C C 0.49230(15) 0.57206(7) 0.68576(9)
C11C C 0.41399(17) 0.64803(7) 0.50265(10)
H4C H 0.3976 0.6654 0.4625
C13C C 0.47403(15) 0.57801(7) 0.55893(9)
H5C H 0.4982 0.5475 0.5567
C43C C 0.3016(2) 0.72711(9) 0.61332(16)
H29C H 0.2614 0.7077 0.6373
O3C O 0.57034(11) 1.43173(5) 0.76438(7)
O4C O 0.54564(16) 1.37516(6) 1.11010(8)
N1C N 0.61175(16) 1.28691(6) 0.89852(9)
C3C C 0.55412(16) 1.40993(7) 0.87590(10)
O6C O 0.50439(12) 1.48245(5) 0.83075(8)
C6C C 0.53563(15) 1.42252(7) 0.94072(10)
H1C H 0.5164 1.4531 0.9498
C8C C 0.58757(19) 1.33315(7) 0.91344(11)
C9C C 0.57889(17) 1.36565(7) 0.86128(10)
H3C H 0.5899 1.3572 0.8166
C12C C 0.52784(18) 1.40369(9) 1.06258(11)
O8C O 0.49874(12) 1.44389(6) 1.07109(7)
C15C C 0.54554(18) 1.38982(8) 0.99227(10)
C18C C 0.57167(19) 1.34496(8) 0.97889(11)
H8C H 0.5786 1.3226 1.0140
C26C C 0.54272(15) 1.44461(7) 0.81960(10)
C28C C 0.6769(2) 1.27293(8) 0.85392(12)
H15C H 0.7145 1.2923 0.8282
Zn2B Zn 0.454994(18) 0.964903(8) 0.324609(11)
N3B N 0.29839(13) 0.97325(6) 0.32135(9)
N5B N -0.38870(15) 0.95761(6) 0.32424(9)
C14B C -0.18497(18) 0.95375(9) 0.31451(13)
C16B C -0.25127(19) 0.92023(9) 0.28599(14)
H6B H -0.2271 0.8948 0.2628
C17B C -0.22699(19) 0.98874(10) 0.34955(14)
H7B H -0.1863 1.0125 0.3706
C20B C 0.13761(18) 0.94109(9) 0.29578(13)
H10B H 0.0980 0.9160 0.2779
C27B C 0.09323(18) 0.97939(9) 0.32151(13)
C30B C 0.25652(19) 1.01016(9) 0.34516(14)
H16B H 0.2981 1.0346 0.3627
C31B C 0.15603(19) 1.01471(10) 0.34564(15)
H17B H 0.1296 1.0421 0.3625
C32B C -0.07933(19) 0.95086(10) 0.30779(13)
H18B H -0.0561 0.9234 0.2892
C37B C -0.34765(18) 0.92374(8) 0.29115(13)
H23B H -0.3902 0.9007 0.2700
C39B C 0.23707(18) 0.93958(9) 0.29631(12)
H25B H 0.2653 0.9132 0.2779
C41B C -0.01326(18) 0.98329(10) 0.32539(14)
H27B H -0.0368 1.0114 0.3419
C42B C -0.32677(18) 0.98897(10) 0.35368(13)
H28B H -0.3532 1.0128 0.3789
Zn1_2 Zn 1.492792(18) 0.947925(8) 0.825650(11)
N2_2 N 1.33607(15) 0.95626(6) 0.81927(9)
N6_2 N 0.64970(13) 0.93967(7) 0.82951(9)
C19_2 C 1.27324(17) 0.92550(9) 0.78748(12)
H9_2 H 1.2992 0.9019 0.7615
C21_2 C 1.1967(2) 0.99247(10) 0.85991(15)
H11_2 H 1.1724 1.0167 0.8854
C23_2 C 1.29550(19) 0.98926(9) 0.85465(14)
H13_2 H 1.3382 1.0116 0.8773
C24_2 C 0.9603(2) 0.93291(11) 0.81468(14)
H14_2 H 0.9825 0.9069 0.7917
C25_2 C 0.85302(19) 0.93520(10) 0.82264(13)
C29_2 C 1.13159(19) 0.96046(10) 0.82824(14)
C33_2 C 0.71139(19) 0.96912(10) 0.86310(13)
H19_2 H 0.6848 0.9918 0.8903
C34_2 C 0.8124(2) 0.96846(10) 0.86056(15)
H20_2 H 0.8537 0.9907 0.8847
C35_2 C 0.7901(2) 0.90386(10) 0.78968(14)
H21_2 H 0.8153 0.8798 0.7643
C36_2 C 1.0260(2) 0.96322(11) 0.83642(15)
H22_2 H 1.0042 0.9893 0.8594
C38_2 C 1.17282(19) 0.92680(10) 0.79104(13)
H24_2 H 1.1312 0.9043 0.7677
C40_2 C 0.69057(18) 0.90730(9) 0.79343(12)
H26_2 H 0.6480 0.8856 0.7692
Zn1_3 Zn -0.507208(18) 0.947925(8) 0.825650(11)
Zn1A Zn 0.507208(18) 1.447925(8) 1.174350(11)
Zn1B Zn 0.507208(18) 1.052075(8) 1.174350(11)
Zn1C Zn 0.492792(18) 0.552075(8) 0.825650(11)
Zn1C_2 Zn 0.492792(18) 1.552075(8) 0.825650(11)
Zn2_2 Zn 1.545006(18) 1.035097(8) 0.675391(11)
Zn2A Zn 0.454994(18) 0.535097(8) 0.324609(11)
Zn2B_2 Zn -0.545006(18) 0.964903(8) 0.324609(11)
Zn2C Zn 0.545006(18) 0.464903(8) 0.675391(11)
Zn2C_2 Zn 0.545006(18) 1.464903(8) 0.675391(11)
O1B O 0.55947(12) 1.10392(5) 0.62073(7)
O2B O 0.52823(11) 1.03807(5) 0.56824(7)
O3B O 0.42966(11) 0.93173(5) 0.23562(7)
O4B O 0.45436(16) 0.87516(6) 0.88990(8)
O4B_2 O 1.45436(16) 0.87516(6) 0.88990(8)
O5_2 O 1.47096(11) 0.90963(5) 0.73994(6)
O6_2 O 1.50439(12) 1.01755(5) 0.83075(8)
O7B O 0.46440(11) 1.03443(5) 0.31703(7)
N5_2 N 0.38870(15) 1.04239(6) 0.67576(9)
N5B_2 N 0.61130(15) 0.95761(6) 0.32424(9)
N6_3 N 1.64970(13) 0.93967(7) 0.82951(9)
O8B O 0.50126(12) 0.94389(6) 0.92891(7)
O8B_2 O 1.50126(12) 0.94389(6) 0.92891(7)
loop_
_geom_bond_atom_site_label_1
_geom_bond_atom_site_label_2
_geom_bond_site_symmetry_1
_geom_bond_site_symmetry_2
Zn1 O5 1_555 1_555
Zn2 O3 1_555 1_555
O1 C4 1_555 1_555
O2 C4 1_555 1_555
C1 N4 1_555 1_555
O3 C26 1_555 1_555
O4 C12 1_555 1_555
C2 C7 1_555 1_555
N1 C8 1_555 1_555
O5 C10 1_555 1_555
C3 C6 1_555 1_555
C4 C5 1_555 1_555
N2 Zn1 1_555 1_555
O6 Zn1 1_555 1_555
N3 Zn2 1_555 1_555
N4 C22 1_555 1_555
C5 C11 1_555 1_555
C6 H1 1_555 1_555
O7 Zn2 1_555 1_555
C7 C1 1_555 1_555
H2 C7 1_555 1_555
C8 C9 1_555 1_555
C9 C3 1_555 1_555
H3 C9 1_555 1_555
N5 C37 1_555 1_555
C10 C2 1_555 1_555
N6 C33 1_555 1_555
C11 C1 1_555 1_555
H4 C11 1_555 1_555
C12 O8 1_555 1_555
O8 Zn1B 1_555 1_555
C13 C2 1_555 1_555
H5 C13 1_555 1_555
C14 C16 1_555 1_555
C15 C6 1_555 1_555
C16 H6 1_555 1_555
C17 C14 1_555 1_555
H7 C17 1_555 1_555
C18 C8 1_555 1_555
H8 C18 1_555 1_555
C19 N2 1_555 1_555
H9 C19 1_555 1_555
C20 H10 1_555 1_555
C21 H11 1_555 1_555
C22 H12 1_555 1_555
C23 N2 1_555 1_555
H13 C23 1_555 1_555
C24 H14 1_555 1_555
C25 C24 1_555 1_555
C26 C3 1_555 1_555
C27 C20 1_555 1_555
C28 N1 1_555 1_555
H15 C28 1_555 1_555
C29 C21 1_555 1_555
C30 N3 1_555 1_555
H16 C30 1_555 1_555
C31 C27 1_555 1_555
H17 C31 1_555 1_555
C32 C14 1_555 1_555
H18 C32 1_555 1_555
C33 H19 1_555 1_555
C34 C25 1_555 1_555
H20 C34 1_555 1_555
C35 C25 1_555 1_555
H21 C35 1_555 1_555
C36 C24 1_555 1_555
H22 C36 1_555 1_555
C37 C16 1_555 1_555
H23 C37 1_555 1_555
C38 C19 1_555 1_555
H24 C38 1_555 1_555
C39 N3 1_555 1_555
H25 C39 1_555 1_555
C40 N6 1_555 1_555
H26 C40 1_555 1_555
C41 C27 1_555 1_555
H27 C41 1_555 1_555
C42 N5 1_555 1_555
H28 C42 1_555 1_555
C43 N4 1_555 1_555
H29 C43 1_555 1_555
C44 N1 1_555 1_555
H30 C44 1_555 1_555
O1C C4C 1_555 1_555
O2C C4C 1_555 1_555
C1C N4C 1_555 1_555
C2C C7C 1_555 1_555
O5C C10C 1_555 1_555
C4C C5C 1_555 1_555
N4C C22 1_555 1_555
C5C C11C 1_555 1_555
O7C C10C 1_555 1_555
C7C C1C 1_555 1_555
H2C C7C 1_555 1_555
C10C C2C 1_555 1_555
C11C C1C 1_555 1_555
H4C C11C 1_555 1_555
C13C C2C 1_555 1_555
H5C C13C 1_555 1_555
C43C C43 1_555 1_555
H29C C43C 1_555 1_555
O3C C26C 1_555 1_555
O4C C12C 1_555 1_555
N1C C44 1_555 1_555
C3C C6C 1_555 1_555
O6C C26C 1_555 1_555
C6C H1C 1_555 1_555
C8C N1C 1_555 1_555
C9C C3C 1_555 1_555
H3C C9C 1_555 1_555
C12C O8C 1_555 1_555
O8C Zn1A 1_555 1_555
C15C C6C 1_555 1_555
C18C C8C 1_555 1_555
H8C C18C 1_555 1_555
C26C C3C 1_555 1_555
C28C C28 1_555 1_555
H15C C28C 1_555 1_555
Zn2B O1 1_555 1_555
N3B Zn2B 1_555 1_555
N5B C37B 1_555 1_555
C14B C16B 1_555 1_555
C16B H6B 1_555 1_555
C17B C14B 1_555 1_555
H7B C17B 1_555 1_555
C20B H10B 1_555 1_555
C27B C20B 1_555 1_555
C30B N3B 1_555 1_555
H16B C30B 1_555 1_555
C31B C27B 1_555 1_555
H17B C31B 1_555 1_555
C32B C14B 1_555 1_555
H18B C32B 1_555 1_555
C37B C16B 1_555 1_555
H23B C37B 1_555 1_555
C39B N3B 1_555 1_555
H25B C39B 1_555 1_555
C41B C27B 1_555 1_555
H27B C41B 1_555 1_555
C42B N5B 1_555 1_555
H28B C42B 1_555 1_555
Zn1_2 N2_2 1_555 1_555
N2_2 C19_2 1_555 1_555
N6_2 Zn1 1_555 1_555
C19_2 H9_2 1_555 1_555
C21_2 H11_2 1_555 1_555
C23_2 N2_2 1_555 1_555
H13_2 C23_2 1_555 1_555
C24_2 H14_2 1_555 1_555
C25_2 C24_2 1_555 1_555
C29_2 C21_2 1_555 1_555
C33_2 N6_2 1_555 1_555
H19_2 C33_2 1_555 1_555
C34_2 C25_2 1_555 1_555
H20_2 C34_2 1_555 1_555
C35_2 C25_2 1_555 1_555
H21_2 C35_2 1_555 1_555
C36_2 C24_2 1_555 1_555
H22_2 C36_2 1_555 1_555
C38_2 C19_2 1_555 1_555
H24_2 C38_2 1_555 1_555
C40_2 N6_2 1_555 1_555
H26_2 C40_2 1_555 1_555
Zn1_3 N6 1_555 1_555
Zn1A O4C 1_555 1_555
Zn1B O4 1_555 1_555
Zn1C O5C 1_555 1_555
Zn1C_2 O6C 1_555 1_555
Zn2_2 N5 1_555 1_555
Zn2A O1C 1_555 1_555
Zn2B_2 N5B 1_555 1_555
Zn2C O7C 1_555 1_555
Zn2C_2 O3C 1_555 1_555
O1B Zn2 1_555 1_555
O2B Zn2 1_555 1_555
O3B Zn2B 1_555 1_555
O4B Zn1 1_555 1_555
O4B_2 Zn1_2 1_555 1_555
O5_2 Zn1_2 1_555 1_555
O6_2 Zn1_2 1_555 1_555
O7B Zn2B 1_555 1_555
N5_2 Zn2 1_555 1_555
N5B_2 Zn2B 1_555 1_555
N6_3 Zn1_2 1_555 1_555
O8B Zn1 1_555 1_555
O8B_2 Zn1_2 1_555 1_555
O2 Zn2B 1_555 1_555
O6 C26 1_555 1_555
C5 C13 1_555 1_555
O7 C10 1_555 1_555
C12 C15 1_555 1_555
C15 C18 1_555 1_555
C17 C42 1_555 1_555
C20 C39 1_555 1_555
C21 C23 1_555 1_555
C29 C36 1_555 1_555
C29 C38 1_555 1_555
C30 C31 1_555 1_555
C32 C41 1_555 1_555
C33 C34 1_555 1_555
C35 C40 1_555 1_555
O2C Zn2A 1_555 1_555
N4C C43C 1_555 1_555
C5C C13C 1_555 1_555
N1C C28C 1_555 1_555
C8C C9C 1_555 1_555
C12C C15C 1_555 1_555
C15C C18C 1_555 1_555
C17B C42B 1_555 1_555
C20B C39B 1_555 1_555
C30B C31B 1_555 1_555
C32B C41B 1_555 1_555
C21_2 C23_2 1_555 1_555
C29_2 C36_2 1_555 1_555
C29_2 C38_2 1_555 1_555
C33_2 C34_2 1_555 1_555
C35_2 C40_2 1_555 1_555

#END
