
#######################################################################
#
#                 Cambridge Crystallographic Data Centre
#                                CCDC 
#
#######################################################################
#
# If this CIF has been generated from an entry in the Cambridge 
# Structural Database, then it will include bibliographic, chemical, 
# crystal, experimental, refinement or atomic coordinate data resulting 
# from the CCDC's data processing and validation procedures.
#
#######################################################################

data_QOMRUH
_symmetry_cell_setting           monoclinic
_symmetry_space_group_name_H-M   'P 21/n'
_symmetry_Int_Tables_number      14
_space_group_name_Hall           '-P 2yn'
loop_
_symmetry_equiv_pos_site_id
_symmetry_equiv_pos_as_xyz
1 x,y,z
2 1/2-x,1/2+y,1/2-z
3 -x,-y,-z
4 1/2+x,1/2-y,1/2+z
_cell_length_a                   13.2440(7)
_cell_length_b                   14.5210(8)
_cell_length_c                   15.6950(8)
_cell_angle_alpha                90
_cell_angle_beta                 92.7460(10)
_cell_angle_gamma                90
_cell_volume                     3014.94
loop_
_atom_site_label
_atom_site_type_symbol
_atom_site_fract_x
_atom_site_fract_y
_atom_site_fract_z
Cu1 Cu 0.5000 0.0000 0.5000
Cu2 Cu 0.52973(4) 0.20030(4) 0.39005(4)
C1 C 0.8247(6) -0.1473(5) 0.1266(4)
H1 H 0.8464 -0.1302 0.0734
C2 C 0.7584(6) -0.0898(5) 0.1653(4)
H2 H 0.7378 -0.0347 0.1397
C3 C 0.7235(4) -0.1154(4) 0.2425(4)
C4 C 0.7587(6) -0.1979(5) 0.2783(5)
H3 H 0.7369 -0.2173 0.3308
C5 C 0.8260(6) -0.2503(5) 0.2353(4)
H4 H 0.8491 -0.3052 0.2595
C6 C 0.6558(4) -0.0568(4) 0.2906(4)
C7 C 0.0910(10) -0.1733(6) 0.2161(7)
H5 H 0.0581 -0.1295 0.1816
C8 C 0.1643(9) -0.1427(6) 0.2758(7)
H6 H 0.1845 -0.0813 0.2764
C9 C 0.2053(4) -0.2019(4) 0.3322(4)
C10 C 0.1742(8) -0.2908(6) 0.3264(6)
H7 H 0.1988 -0.3341 0.3659
C11 C 0.1057(8) -0.3167(6) 0.2613(6)
H8 H 0.0871 -0.3783 0.2567
C12 C 0.2832(4) -0.1718(4) 0.3970(3)
N1 N 0.8594(3) -0.2248(3) 0.1595(3)
N2 N 0.6334(4) 0.0310(3) 0.2708(3)
N3 N 0.5763(3) 0.0587(3) 0.3342(3)
N4 N 0.5656(3) -0.0105(3) 0.3870(3)
N5 N 0.6143(4) -0.0841(3) 0.3620(3)
N6 N 0.0658(3) -0.2573(3) 0.2055(3)
N7 N 0.3314(3) -0.0922(3) 0.3939(3)
N8 N 0.3942(3) -0.0946(3) 0.4620(3)
N9 N 0.3836(3) -0.1716(3) 0.5040(3)
N10 N 0.3127(3) -0.2237(3) 0.4641(3)
N11 N 0.4200(3) 0.1313(3) 0.4419(3)
N12 N 0.3398(6) 0.1531(8) 0.4437(8)
N13 N 0.2509(9) 0.1629(15) 0.4334(17)
Cu2B Cu 0.47027(4) -0.20030(4) 0.60995(4)
C1B C 0.1753(6) 0.1473(5) 0.8734(4)
H1B H 0.1536 0.1302 0.9266
C2B C 0.2416(6) 0.0898(5) 0.8347(4)
H2B H 0.2622 0.0347 0.8603
C3B C 0.2765(4) 0.1154(4) 0.7575(4)
C4B C 0.2413(6) 0.1979(5) 0.7217(5)
H3B H 0.2631 0.2173 0.6692
C5B C 0.1740(6) 0.2503(5) 0.7647(4)
H4B H 0.1509 0.3052 0.7405
C6B C 0.3442(4) 0.0568(4) 0.7094(4)
C7B C 0.9090(10) 0.1733(6) 0.7839(7)
H5B H 0.9419 0.1295 0.8184
C8B C 0.8357(9) 0.1427(6) 0.7242(7)
H6B H 0.8155 0.0813 0.7236
C9B C 0.7947(4) 0.2019(4) 0.6678(4)
C10B C 0.8258(8) 0.2908(6) 0.6736(6)
H7B H 0.8012 0.3341 0.6341
C11B C 0.8943(8) 0.3167(6) 0.7387(6)
H8B H 0.9129 0.3783 0.7433
C12B C 0.7168(4) 0.1718(4) 0.6030(3)
N1B N 0.1406(3) 0.2248(3) 0.8405(3)
N2B N 0.3666(4) -0.0310(3) 0.7292(3)
N3B N 0.4237(3) -0.0587(3) 0.6658(3)
N4B N 0.4344(3) 0.0105(3) 0.6130(3)
N5B N 0.3857(4) 0.0841(3) 0.6380(3)
N6B N 0.9342(3) 0.2573(3) 0.7945(3)
N7B N 0.6686(3) 0.0922(3) 0.6061(3)
N8B N 0.6058(3) 0.0946(3) 0.5380(3)
N9B N 0.6164(3) 0.1716(3) 0.4960(3)
N10B N 0.6873(3) 0.2237(3) 0.5359(3)
N11B N 0.5800(3) -0.1313(3) 0.5581(3)
N12B N 0.6602(6) -0.1531(8) 0.5563(8)
N13B N 0.7491(9) -0.1629(15) 0.5666(17)
Cu2A Cu -0.02973(4) -0.29970(4) 0.10995(4)
Cu2A_2 Cu 0.97027(4) -0.29970(4) 0.10995(4)
Cu2C Cu 0.02973(4) 0.29970(4) 0.89005(4)
Cu2C_2 Cu 1.02973(4) 0.29970(4) 0.89005(4)
N1A N 0.6406(3) 0.2752(3) 0.3405(3)
N1C N 0.3594(3) -0.2752(3) 0.6595(3)
N6A N 0.4342(3) 0.2427(3) 0.2945(3)
N6C N 0.5658(3) -0.2427(3) 0.7055(3)
C13 C 0.408(2) -0.077(2) 0.155(2)
C14 C 0.461(2) -0.135(2) 0.1283(18)
C15 C 0.346(3) -0.121(3) -0.022(2)
C16 C 0.3199(17) -0.0501(17) 0.0205(16)
O1 O 0.3250(15) -0.0497(13) 0.1078(13)
O2 O 0.455(3) -0.140(2) 0.035(2)
C17? C 0.549(2) -0.2836(18) 0.2206(17)
C18? C 0.544(6) -0.367(4) 0.170(5)
C19? C 0.4696(19) -0.4494(18) 0.2782(17)
C20? C 0.432(4) -0.363(3) 0.305(3)
O3? O 0.4930(18) -0.2978(15) 0.2933(15)
O4? O 0.522(5) -0.448(5) 0.191(4)
C21? C 0.4962(11) -0.3610(10) 0.3592(9)
C22? C 0.4807(17) -0.4658(16) 0.3652(15)
C23? C 0.5238(14) -0.4624(13) 0.5201(12)
C24? C 0.5275(12) -0.3548(11) 0.5090(10)
O5? O 0.5423(9) -0.3209(9) 0.4289(8)
O6? O 0.457(2) -0.488(2) 0.440(2)
loop_
_geom_bond_atom_site_label_1
_geom_bond_atom_site_label_2
_geom_bond_site_symmetry_1
_geom_bond_site_symmetry_2
Cu1 N4 1_555 1_555
Cu2 N3 1_555 1_555
C1 H1 1_555 1_555
C2 C1 1_555 1_555
H2 C2 1_555 1_555
C3 C2 1_555 1_555
C4 C3 1_555 1_555
H3 C4 1_555 1_555
C5 C4 1_555 1_555
H4 C5 1_555 1_555
C6 C3 1_555 1_555
C7 H5 1_555 1_555
C8 C7 1_555 1_555
H6 C8 1_555 1_555
C9 C8 1_555 1_555
C10 C9 1_555 1_555
H7 C10 1_555 1_555
C11 C10 1_555 1_555
H8 C11 1_555 1_555
C12 C9 1_555 1_555
N1 C1 1_555 1_555
N2 C6 1_555 1_555
N3 N2 1_555 1_555
N4 N3 1_555 1_555
N5 C6 1_555 1_555
N6 C7 1_555 1_555
N7 C12 1_555 1_555
N8 Cu1 1_555 1_555
N9 N8 1_555 1_555
N10 C12 1_555 1_555
N11 Cu1 1_555 1_555
N12 N11 1_555 1_555
N13 N12 1_555 1_555
C13 C14 1_555 1_555
C14 O2 1_555 1_555
C15 C16 1_555 1_555
C16 O1 1_555 1_555
O1 C13 1_555 1_555
O2 C15 1_555 1_555
Cu2B N9 1_555 1_555
C1B H1B 1_555 1_555
C2B C1B 1_555 1_555
H2B C2B 1_555 1_555
C3B C2B 1_555 1_555
C4B C3B 1_555 1_555
H3B C4B 1_555 1_555
C5B C4B 1_555 1_555
H4B C5B 1_555 1_555
C6B C3B 1_555 1_555
C7B H5B 1_555 1_555
C8B C7B 1_555 1_555
H6B C8B 1_555 1_555
C9B C8B 1_555 1_555
C10B C9B 1_555 1_555
H7B C10B 1_555 1_555
C11B C10B 1_555 1_555
H8B C11B 1_555 1_555
C12B C9B 1_555 1_555
N1B C1B 1_555 1_555
N2B C6B 1_555 1_555
N3B Cu2B 1_555 1_555
N4B Cu1 1_555 1_555
N5B C6B 1_555 1_555
N6B C7B 1_555 1_555
N7B C12B 1_555 1_555
N8B Cu1 1_555 1_555
N9B Cu2 1_555 1_555
N10B C12B 1_555 1_555
N11B Cu1 1_555 1_555
N12B N11B 1_555 1_555
N13B N12B 1_555 1_555
Cu2A N6 1_555 1_555
Cu2A_2 N1 1_555 1_555
Cu2C N1B 1_555 1_555
Cu2C_2 N6B 1_555 1_555
N1A Cu2 1_555 1_555
N1C Cu2B 1_555 1_555
N6A Cu2 1_555 1_555
N6C Cu2B 1_555 1_555
Cu2 N11 1_555 1_555
C5 N1 1_555 1_555
C11 N6 1_555 1_555
N4 N5 1_555 1_555
N7 N8 1_555 1_555
N9 N10 1_555 1_555
Cu2B N11B 1_555 1_555
C5B N1B 1_555 1_555
C11B N6B 1_555 1_555
N2B N3B 1_555 1_555
N3B N4B 1_555 1_555
N4B N5B 1_555 1_555
N7B N8B 1_555 1_555
N8B N9B 1_555 1_555
N9B N10B 1_555 1_555

#END
