
#######################################################################
#
#                 Cambridge Crystallographic Data Centre
#                                CCDC 
#
#######################################################################
#
# If this CIF has been generated from an entry in the Cambridge 
# Structural Database, then it will include bibliographic, chemical, 
# crystal, experimental, refinement or atomic coordinate data resulting 
# from the CCDC's data processing and validation procedures.
#
#######################################################################

data_QOMSES
_symmetry_cell_setting           monoclinic
_symmetry_space_group_name_H-M   'P 21/n'
_symmetry_Int_Tables_number      14
_space_group_name_Hall           '-P 2yn'
loop_
_symmetry_equiv_pos_site_id
_symmetry_equiv_pos_as_xyz
1 x,y,z
2 1/2-x,1/2+y,1/2-z
3 -x,-y,-z
4 1/2+x,1/2-y,1/2+z
_cell_length_a                   13.0900(9)
_cell_length_b                   14.7440(8)
_cell_length_c                   15.5750(10)
_cell_angle_alpha                90
_cell_angle_beta                 91.641(7)
_cell_angle_gamma                90
_cell_volume                     3004.73
loop_
_atom_site_label
_atom_site_type_symbol
_atom_site_fract_x
_atom_site_fract_y
_atom_site_fract_z
Cu1 Cu 0.0000 0.0000 0.0000
Cu2 Cu -0.02147(5) 0.20445(5) 0.10106(4)
C1 C -0.3909(6) 0.3112(5) -0.2446(4)
H1 H -0.4161 0.3701 -0.2456
C2 C -0.3230(6) 0.2890(5) -0.1793(5)
H2 H -0.3048 0.3311 -0.1371
C3 C -0.2824(5) 0.2033(4) -0.1775(4)
C4 C -0.3144(6) 0.1444(4) -0.2434(4)
H3 H -0.2901 0.0852 -0.2444
C5 C -0.3807(6) 0.1736(5) -0.3056(4)
H4 H -0.3980 0.1346 -0.3507
C6 C -0.2081(4) 0.1735(4) -0.1120(4)
C7 C 0.3411(6) 0.2361(4) -0.2682(4)
H5 H 0.3671 0.2883 -0.2421
C8 C 0.2759(6) 0.1840(4) -0.2230(4)
H6 H 0.2588 0.2007 -0.1677
C9 C 0.2352(5) 0.1062(4) -0.2595(4)
C10 C 0.2652(5) 0.0849(4) -0.3422(4)
H7 H 0.2402 0.0331 -0.3696
C11 C 0.3326(5) 0.1417(5) -0.3830(4)
H8 H 0.3526 0.1263 -0.4379
C12 C 0.1666(4) 0.0472(4) -0.2125(4)
C13 C 0.0421(8) 0.3126(7) -0.0696(7)
H9 H 0.0726 0.2562 -0.0771
C14 C -0.0371(13) 0.4375(9) -0.1376(10)
H10 H -0.0516 0.4568 -0.1956
H11 H 0.0056 0.4816 -0.1089
H12 H -0.0999 0.4313 -0.1078
C15 C 0.0112(15) 0.3061(13) -0.2234(8)
H13 H -0.0121 0.3465 -0.2681
H14 H -0.0339 0.2550 -0.2207
H15 H 0.0790 0.2856 -0.2352
N1 N -0.4227(4) 0.2572(3) -0.3046(3)
N2 N -0.1619(4) 0.0933(3) -0.1125(3)
N3 N -0.1013(3) 0.0945(3) -0.0421(3)
N4 N -0.1120(3) 0.1717(3) -0.0019(3)
N5 N -0.1795(4) 0.2232(3) -0.0436(3)
N6 N 0.3701(4) 0.2172(3) -0.3473(3)
N7 N 0.1244(4) 0.0760(3) -0.1391(3)
N8 N 0.0715(4) 0.0053(3) -0.1138(3)
N9 N 0.0821(4) -0.0634(3) -0.1670(3)
N10 N 0.1418(4) -0.0372(3) -0.2311(3)
N11 N 0.0837(4) 0.1240(3) 0.0526(3)
N12 N 0.1696(6) 0.1384(5) 0.0561(5)
N13 N 0.2557(7) 0.1533(12) 0.0593(13)
N14 N 0.0125(7) 0.3555(5) -0.1385(5)
O1 O 0.0339(5) 0.3387(4) 0.0038(4)
Cu2B Cu 0.02147(5) -0.20445(5) -0.10106(4)
C1B C 0.3909(6) -0.3112(5) 0.2446(4)
H1B H 0.4161 -0.3701 0.2456
C2B C 0.3230(6) -0.2890(5) 0.1793(5)
H2B H 0.3048 -0.3311 0.1371
C3B C 0.2824(5) -0.2033(4) 0.1775(4)
C4B C 0.3144(6) -0.1444(4) 0.2434(4)
H3B H 0.2901 -0.0852 0.2444
C5B C 0.3807(6) -0.1736(5) 0.3056(4)
H4B H 0.3980 -0.1346 0.3507
C6B C 0.2081(4) -0.1735(4) 0.1120(4)
C7B C -0.3411(6) -0.2361(4) 0.2682(4)
H5B H -0.3671 -0.2883 0.2421
C8B C -0.2759(6) -0.1840(4) 0.2230(4)
H6B H -0.2588 -0.2007 0.1677
C9B C -0.2352(5) -0.1062(4) 0.2595(4)
C10B C -0.2652(5) -0.0849(4) 0.3422(4)
H7B H -0.2402 -0.0331 0.3696
C11B C -0.3326(5) -0.1417(5) 0.3830(4)
H8B H -0.3526 -0.1263 0.4379
C12B C -0.1666(4) -0.0472(4) 0.2125(4)
C13B C -0.0421(8) -0.3126(7) 0.0696(7)
H9B H -0.0726 -0.2562 0.0771
C14B C 0.0371(13) -0.4375(9) 0.1376(10)
H10B H 0.0516 -0.4568 0.1956
H11B H -0.0056 -0.4816 0.1089
H12B H 0.0999 -0.4313 0.1078
C15B C -0.0112(15) -0.3061(13) 0.2234(8)
H13B H 0.0121 -0.3465 0.2681
H14B H 0.0339 -0.2550 0.2207
H15B H -0.0790 -0.2856 0.2352
N1B N 0.4227(4) -0.2572(3) 0.3046(3)
N2B N 0.1619(4) -0.0933(3) 0.1125(3)
N3B N 0.1013(3) -0.0945(3) 0.0421(3)
N4B N 0.1120(3) -0.1717(3) 0.0019(3)
N5B N 0.1795(4) -0.2232(3) 0.0436(3)
N6B N -0.3701(4) -0.2172(3) 0.3473(3)
N7B N -0.1244(4) -0.0760(3) 0.1391(3)
N8B N -0.0715(4) -0.0053(3) 0.1138(3)
N9B N -0.0821(4) 0.0634(3) 0.1670(3)
N10B N -0.1418(4) 0.0372(3) 0.2311(3)
N11B N -0.0837(4) -0.1240(3) -0.0526(3)
N12B N -0.1696(6) -0.1384(5) -0.0561(5)
N13B N -0.2557(7) -0.1533(12) -0.0593(13)
N14B N -0.0125(7) -0.3555(5) 0.1385(5)
O1B O -0.0339(5) -0.3387(4) -0.0038(4)
Cu2A Cu -0.47853(5) -0.29555(5) 0.39894(4)
Cu2A_2 Cu 0.52147(5) -0.29555(5) 0.39894(4)
Cu2C Cu -0.52147(5) 0.29555(5) -0.39894(4)
Cu2C_2 Cu 0.47853(5) 0.29555(5) -0.39894(4)
N1A N -0.0773(4) -0.2428(3) -0.1954(3)
N1C N 0.0773(4) 0.2428(3) 0.1954(3)
N6A N 0.1299(4) -0.2828(3) -0.1527(3)
N6C N -0.1299(4) 0.2828(3) 0.1527(3)
loop_
_geom_bond_atom_site_label_1
_geom_bond_atom_site_label_2
_geom_bond_site_symmetry_1
_geom_bond_site_symmetry_2
Cu1 N3 1_555 1_555
Cu2 N4 1_555 1_555
C1 H1 1_555 1_555
C2 C1 1_555 1_555
H2 C2 1_555 1_555
C3 C2 1_555 1_555
C4 C3 1_555 1_555
H3 C4 1_555 1_555
C5 C4 1_555 1_555
H4 C5 1_555 1_555
C6 C3 1_555 1_555
C7 H5 1_555 1_555
C8 C7 1_555 1_555
H6 C8 1_555 1_555
C9 C8 1_555 1_555
C10 C9 1_555 1_555
H7 C10 1_555 1_555
C11 C10 1_555 1_555
H8 C11 1_555 1_555
C12 C9 1_555 1_555
C13 H9 1_555 1_555
C14 H10 1_555 1_555
H11 C14 1_555 1_555
H12 C14 1_555 1_555
C15 H13 1_555 1_555
H14 C15 1_555 1_555
H15 C15 1_555 1_555
N1 C1 1_555 1_555
N2 C6 1_555 1_555
N3 N2 1_555 1_555
N4 N3 1_555 1_555
N5 C6 1_555 1_555
N6 C7 1_555 1_555
N7 C12 1_555 1_555
N8 Cu1 1_555 1_555
N9 N8 1_555 1_555
N10 C12 1_555 1_555
N11 Cu1 1_555 1_555
N12 N11 1_555 1_555
N13 N12 1_555 1_555
N14 C13 1_555 1_555
O1 Cu2 1_555 1_555
Cu2B N9 1_555 1_555
C1B H1B 1_555 1_555
C2B C1B 1_555 1_555
H2B C2B 1_555 1_555
C3B C2B 1_555 1_555
C4B C3B 1_555 1_555
H3B C4B 1_555 1_555
C5B C4B 1_555 1_555
H4B C5B 1_555 1_555
C6B C3B 1_555 1_555
C7B H5B 1_555 1_555
C8B C7B 1_555 1_555
H6B C8B 1_555 1_555
C9B C8B 1_555 1_555
C10B C9B 1_555 1_555
H7B C10B 1_555 1_555
C11B C10B 1_555 1_555
H8B C11B 1_555 1_555
C12B C9B 1_555 1_555
C13B H9B 1_555 1_555
C14B H10B 1_555 1_555
H11B C14B 1_555 1_555
H12B C14B 1_555 1_555
C15B H13B 1_555 1_555
H14B C15B 1_555 1_555
H15B C15B 1_555 1_555
N1B C1B 1_555 1_555
N2B C6B 1_555 1_555
N3B Cu1 1_555 1_555
N4B Cu2B 1_555 1_555
N5B C6B 1_555 1_555
N6B C7B 1_555 1_555
N7B C12B 1_555 1_555
N8B Cu1 1_555 1_555
N9B Cu2 1_555 1_555
N10B C12B 1_555 1_555
N11B Cu1 1_555 1_555
N12B N11B 1_555 1_555
N13B N12B 1_555 1_555
N14B C13B 1_555 1_555
O1B Cu2B 1_555 1_555
Cu2A N6B 1_555 1_555
Cu2A_2 N1B 1_555 1_555
Cu2C N1 1_555 1_555
Cu2C_2 N6 1_555 1_555
N1A Cu2B 1_555 1_555
N1C Cu2 1_555 1_555
N6A Cu2B 1_555 1_555
N6C Cu2 1_555 1_555
Cu2 N11 1_555 1_555
C5 N1 1_555 1_555
C11 N6 1_555 1_555
C13 O1 1_555 1_555
C14 N14 1_555 1_555
C15 N14 1_555 1_555
N4 N5 1_555 1_555
N7 N8 1_555 1_555
N9 N10 1_555 1_555
Cu2B N11B 1_555 1_555
C5B N1B 1_555 1_555
C11B N6B 1_555 1_555
C13B O1B 1_555 1_555
C14B N14B 1_555 1_555
C15B N14B 1_555 1_555
N2B N3B 1_555 1_555
N3B N4B 1_555 1_555
N4B N5B 1_555 1_555
N7B N8B 1_555 1_555
N8B N9B 1_555 1_555
N9B N10B 1_555 1_555

#END
