
#######################################################################
#
#                 Cambridge Crystallographic Data Centre
#                                CCDC 
#
#######################################################################
#
# If this CIF has been generated from an entry in the Cambridge 
# Structural Database, then it will include bibliographic, chemical, 
# crystal, experimental, refinement or atomic coordinate data resulting 
# from the CCDC's data processing and validation procedures.
#
#######################################################################

data_QONLAI
_symmetry_cell_setting           monoclinic
_symmetry_space_group_name_H-M   'P 21/n'
_symmetry_Int_Tables_number      14
_space_group_name_Hall           '-P 2yn'
loop_
_symmetry_equiv_pos_site_id
_symmetry_equiv_pos_as_xyz
1 x,y,z
2 1/2-x,1/2+y,1/2-z
3 -x,-y,-z
4 1/2+x,1/2-y,1/2+z
_cell_length_a                   13.1110(5)
_cell_length_b                   14.7910(4)
_cell_length_c                   15.6710(4)
_cell_angle_alpha                90
_cell_angle_beta                 92.625(2)
_cell_angle_gamma                90
_cell_volume                     3035.81
loop_
_atom_site_label
_atom_site_type_symbol
_atom_site_fract_x
_atom_site_fract_y
_atom_site_fract_z
Cu1 Cu 0.5000 0.0000 0.5000
Cu2 Cu 0.52586(3) 0.19820(3) 0.39180(2)
C1 C 0.8874(3) 0.1789(2) 0.7999(2)
H1 H 0.9063 0.1412 0.8455
C2 C 0.8184(3) 0.1472(2) 0.7383(2)
H2 H 0.7923 0.0890 0.7416
C3 C 0.7886(3) 0.2037(2) 0.6711(2)
C4 C 0.8296(4) 0.2887(3) 0.6694(3)
H3 H 0.8106 0.3285 0.6255
C5 C 0.8992(4) 0.3152(3) 0.7329(3)
H4 H 0.9269 0.3730 0.7309
C6 C 0.7133(3) 0.1728(2) 0.60600(19)
C7 C 0.1693(3) 0.2481(2) 0.7652(2)
H5 H 0.1474 0.3027 0.7412
C8 C 0.2353(4) 0.1951(2) 0.7208(2)
H6 H 0.2573 0.2137 0.6680
C9 C 0.2684(3) 0.1135(2) 0.7559(2)
C10 C 0.2332(3) 0.0900(2) 0.8342(2)
H7 H 0.2537 0.0358 0.8598
C11 C 0.1677(3) 0.1464(2) 0.8745(2)
H8 H 0.1450 0.1293 0.9276
C12 C 0.3360(3) 0.0555(2) 0.70861(18)
C13 C 0.4675(4) 0.3116(3) 0.5640(3)
H9 H 0.4401 0.2539 0.5691
C14 C 0.4977(8) 0.3072(6) 0.7172(4)
H10 H 0.5214 0.3481 0.7613
H11 H 0.5424 0.2559 0.7162
H12 H 0.4299 0.2875 0.7283
C15 C 0.5402(9) 0.4428(5) 0.6308(5)
H13 H 0.5575 0.4639 0.6876
H14 H 0.4912 0.4830 0.6037
H15 H 0.6005 0.4411 0.5984
N1 N 0.9280(2) 0.26072(18) 0.79724(16)
N2 N 0.6854(2) 0.22122(18) 0.53608(16)
N3 N 0.6161(2) 0.16957(17) 0.49612(15)
N4 N 0.60300(19) 0.09381(16) 0.53972(14)
N5 N 0.6639(2) 0.09377(17) 0.60968(15)
N6 N 0.1354(2) 0.22434(18) 0.84097(16)
N7 N 0.3785(2) 0.08184(17) 0.63626(16)
N8 N 0.4296(2) 0.00954(15) 0.61246(16)
N9 N 0.4188(2) -0.05732(16) 0.66698(15)
N10 N 0.3600(2) -0.03024(18) 0.72915(16)
N11 N 0.4169(2) 0.12503(17) 0.44235(16)
N12 N 0.3306(3) 0.1356(3) 0.4281(4)
N13 N 0.2451(4) 0.1449(7) 0.4148(10)
N14 N 0.4970(4) 0.3531(3) 0.6349(2)
O1 O 0.4731(3) 0.3423(2) 0.49180(19)
Cu2B Cu 0.47414(3) -0.19820(3) 0.60820(2)
C1B C 0.1126(3) -0.1789(2) 0.2001(2)
H1B H 0.0937 -0.1412 0.1545
C2B C 0.1816(3) -0.1472(2) 0.2617(2)
H2B H 0.2077 -0.0890 0.2584
C3B C 0.2114(3) -0.2037(2) 0.3289(2)
C4B C 0.1704(4) -0.2887(3) 0.3306(3)
H3B H 0.1894 -0.3285 0.3745
C5B C 0.1008(4) -0.3152(3) 0.2671(3)
H4B H 0.0731 -0.3730 0.2691
C6B C 0.2867(3) -0.1728(2) 0.39400(19)
C7B C 0.8307(3) -0.2481(2) 0.2348(2)
H5B H 0.8526 -0.3027 0.2588
C8B C 0.7647(4) -0.1951(2) 0.2792(2)
H6B H 0.7427 -0.2137 0.3320
C9B C 0.7316(3) -0.1135(2) 0.2441(2)
C10B C 0.7668(3) -0.0900(2) 0.1658(2)
H7B H 0.7463 -0.0358 0.1402
C11B C 0.8323(3) -0.1464(2) 0.1255(2)
H8B H 0.8550 -0.1293 0.0724
C12B C 0.6640(3) -0.0555(2) 0.29139(18)
C13B C 0.5325(4) -0.3116(3) 0.4360(3)
H9B H 0.5599 -0.2539 0.4309
C14B C 0.5023(8) -0.3072(6) 0.2828(4)
H10B H 0.4786 -0.3481 0.2387
H11B H 0.4576 -0.2559 0.2838
H12B H 0.5701 -0.2875 0.2717
C15B C 0.4598(9) -0.4428(5) 0.3692(5)
H13B H 0.4425 -0.4639 0.3124
H14B H 0.5088 -0.4830 0.3963
H15B H 0.3995 -0.4411 0.4016
N1B N 0.0720(2) -0.26072(18) 0.20276(16)
N2B N 0.3146(2) -0.22122(18) 0.46392(16)
N3B N 0.3839(2) -0.16957(17) 0.50388(15)
N4B N 0.39700(19) -0.09381(16) 0.46028(14)
N5B N 0.3361(2) -0.09377(17) 0.39032(15)
N6B N 0.8646(2) -0.22434(18) 0.15903(16)
N7B N 0.6215(2) -0.08184(17) 0.36374(16)
N8B N 0.5704(2) -0.00954(15) 0.38754(16)
N9B N 0.5812(2) 0.05732(16) 0.33302(15)
N10B N 0.6400(2) 0.03024(18) 0.27085(16)
N11B N 0.5831(2) -0.12503(17) 0.55765(16)
N12B N 0.6694(3) -0.1356(3) 0.5719(4)
N13B N 0.7549(4) -0.1449(7) 0.5852(10)
N14B N 0.5030(4) -0.3531(3) 0.3651(2)
O1B O 0.5269(3) -0.3423(2) 0.50820(19)
Cu2A Cu -0.02586(3) -0.30180(3) 0.10820(2)
Cu2A_2 Cu 0.97414(3) -0.30180(3) 0.10820(2)
Cu2C Cu 0.02586(3) 0.30180(3) 0.89180(2)
Cu2C_2 Cu 1.02586(3) 0.30180(3) 0.89180(2)
N1A N 0.5720(2) -0.23928(18) 0.70276(16)
N1C N 0.4280(2) 0.23928(18) 0.29724(16)
N6A N 0.3646(2) -0.27566(18) 0.65903(16)
N6C N 0.6354(2) 0.27566(18) 0.34097(16)
C16 C 0.323(2) -0.0625(19) 1.0474(13)
H16 H 0.2568 -0.0785 1.0690
H17 H 0.3210 -0.0001 1.0283
C17 C 0.351(2) -0.1224(15) 0.9812(12)
H18 H 0.2965 -0.1658 0.9708
H19 H 0.3576 -0.0877 0.9292
C18 C 0.442(2) -0.1694(17) 0.9986(16)
H20 H 0.4327 -0.2327 0.9842
H21 H 0.4953 -0.1452 0.9642
C19 C 0.468(2) -0.162(2) 1.0778(19)
H22 H 0.5410 -0.1502 1.0854
H23 H 0.4518 -0.2161 1.1087
C20 C 0.405(2) -0.078(2) 1.1105(15)
H24 H 0.3775 -0.0916 1.1655
H25 H 0.4479 -0.0251 1.1163
loop_
_geom_bond_atom_site_label_1
_geom_bond_atom_site_label_2
_geom_bond_site_symmetry_1
_geom_bond_site_symmetry_2
Cu1 N4 1_555 1_555
Cu2 N3 1_555 1_555
C1 H1 1_555 1_555
C2 C1 1_555 1_555
H2 C2 1_555 1_555
C3 C2 1_555 1_555
C4 C3 1_555 1_555
H3 C4 1_555 1_555
C5 C4 1_555 1_555
H4 C5 1_555 1_555
C6 C3 1_555 1_555
C7 H5 1_555 1_555
C8 C7 1_555 1_555
H6 C8 1_555 1_555
C9 C8 1_555 1_555
C10 C9 1_555 1_555
H7 C10 1_555 1_555
C11 C10 1_555 1_555
H8 C11 1_555 1_555
C12 C9 1_555 1_555
C13 H9 1_555 1_555
C14 H10 1_555 1_555
H11 C14 1_555 1_555
H12 C14 1_555 1_555
C15 H13 1_555 1_555
H14 C15 1_555 1_555
H15 C15 1_555 1_555
N1 C1 1_555 1_555
N2 C6 1_555 1_555
N3 N2 1_555 1_555
N4 N3 1_555 1_555
N5 C6 1_555 1_555
N6 C7 1_555 1_555
N7 C12 1_555 1_555
N8 Cu1 1_555 1_555
N9 N8 1_555 1_555
N10 C12 1_555 1_555
N11 Cu1 1_555 1_555
N12 N11 1_555 1_555
N13 N12 1_555 1_555
N14 C13 1_555 1_555
O1 Cu2 1_555 1_555
C16 H16 1_555 1_555
H17 C16 1_555 1_555
C17 C16 1_555 1_555
H18 C17 1_555 1_555
H19 C17 1_555 1_555
C18 C17 1_555 1_555
H20 C18 1_555 1_555
H21 C18 1_555 1_555
C19 C18 1_555 1_555
H22 C19 1_555 1_555
H23 C19 1_555 1_555
C20 C16 1_555 1_555
H24 C20 1_555 1_555
H25 C20 1_555 1_555
Cu2B N9 1_555 1_555
C1B H1B 1_555 1_555
C2B C1B 1_555 1_555
H2B C2B 1_555 1_555
C3B C2B 1_555 1_555
C4B C3B 1_555 1_555
H3B C4B 1_555 1_555
C5B C4B 1_555 1_555
H4B C5B 1_555 1_555
C6B C3B 1_555 1_555
C7B H5B 1_555 1_555
C8B C7B 1_555 1_555
H6B C8B 1_555 1_555
C9B C8B 1_555 1_555
C10B C9B 1_555 1_555
H7B C10B 1_555 1_555
C11B C10B 1_555 1_555
H8B C11B 1_555 1_555
C12B C9B 1_555 1_555
C13B H9B 1_555 1_555
C14B H10B 1_555 1_555
H11B C14B 1_555 1_555
H12B C14B 1_555 1_555
C15B H13B 1_555 1_555
H14B C15B 1_555 1_555
H15B C15B 1_555 1_555
N1B C1B 1_555 1_555
N2B C6B 1_555 1_555
N3B Cu2B 1_555 1_555
N4B Cu1 1_555 1_555
N5B C6B 1_555 1_555
N6B C7B 1_555 1_555
N7B C12B 1_555 1_555
N8B Cu1 1_555 1_555
N9B Cu2 1_555 1_555
N10B C12B 1_555 1_555
N11B Cu1 1_555 1_555
N12B N11B 1_555 1_555
N13B N12B 1_555 1_555
N14B C13B 1_555 1_555
O1B Cu2B 1_555 1_555
Cu2A N1B 1_555 1_555
Cu2A_2 N6B 1_555 1_555
Cu2C N6 1_555 1_555
Cu2C_2 N1 1_555 1_555
N1A Cu2B 1_555 1_555
N1C Cu2 1_555 1_555
N6A Cu2B 1_555 1_555
N6C Cu2 1_555 1_555
Cu2 N11 1_555 1_555
C5 N1 1_555 1_555
C11 N6 1_555 1_555
C13 O1 1_555 1_555
C14 N14 1_555 1_555
C15 N14 1_555 1_555
N4 N5 1_555 1_555
N7 N8 1_555 1_555
N9 N10 1_555 1_555
C19 C20 1_555 1_555
Cu2B N11B 1_555 1_555
C5B N1B 1_555 1_555
C11B N6B 1_555 1_555
C13B O1B 1_555 1_555
C14B N14B 1_555 1_555
C15B N14B 1_555 1_555
N2B N3B 1_555 1_555
N3B N4B 1_555 1_555
N4B N5B 1_555 1_555
N7B N8B 1_555 1_555
N8B N9B 1_555 1_555
N9B N10B 1_555 1_555

#END
