
#######################################################################
#
#                 Cambridge Crystallographic Data Centre
#                                CCDC 
#
#######################################################################
#
# If this CIF has been generated from an entry in the Cambridge 
# Structural Database, then it will include bibliographic, chemical, 
# crystal, experimental, refinement or atomic coordinate data resulting 
# from the CCDC's data processing and validation procedures.
#
#######################################################################

data_QOQDAD
_symmetry_cell_setting           triclinic
_symmetry_space_group_name_H-M   'P -1'
_symmetry_Int_Tables_number      2
_space_group_name_Hall           '-P 1'
loop_
_symmetry_equiv_pos_site_id
_symmetry_equiv_pos_as_xyz
1 x,y,z
2 -x,-y,-z
_cell_length_a                   10.504(2)
_cell_length_b                   12.106(2)
_cell_length_c                   12.411(3)
_cell_angle_alpha                66.78(3)
_cell_angle_beta                 70.34(3)
_cell_angle_gamma                65.04(3)
_cell_volume                     1287.22
loop_
_atom_site_label
_atom_site_type_symbol
_atom_site_fract_x
_atom_site_fract_y
_atom_site_fract_z
O1 O 0.8108(4) -0.4090(4) 0.8230(4)
Co1 Co 0.84096(8) 0.40953(7) -0.09112(7)
Co2 Co 0.5000 0.5000 0.0000
O2 O 0.8220(5) 0.2045(4) 0.0538(4)
O3 O 0.6971(4) 0.3990(4) 0.0648(3)
O4 O 0.8019(4) 0.3580(4) 0.7965(4)
O5 O 0.5683(4) 0.3948(4) 0.8789(4)
O6 O 0.5714(4) -0.3521(3) 0.8702(4)
O7 O 0.8201(5) -0.0757(4) 0.4296(4)
O8 O 0.8102(5) -0.0205(4) 0.7737(4)
O9 O 0.8051(5) 0.3055(4) 0.4279(4)
N1 N 1.2666(5) 0.2253(4) -0.0557(4)
N2 N 1.0470(5) 0.3492(4) -0.0780(5)
N3 N 0.8180(5) -0.0529(4) 0.6028(4)
N4 N 0.8145(5) 0.1425(4) 0.6019(4)
N5 N 0.8189(5) 0.1148(4) 0.4244(4)
C1 C 0.8125(6) 0.0199(6) 0.6677(6)
C2 C 0.8109(6) 0.1955(6) 0.4814(6)
C3 C 0.8168(6) -0.0087(6) 0.4822(6)
C4 C 1.4963(6) 0.1134(5) 0.0066(5)
H1 H 1.4939 0.1891 0.0111
C5 C 1.3855(6) 0.1109(5) -0.0271(5)
C6 C 0.6808(7) 0.3520(5) 0.8084(6)
C7 C 1.1339(6) 0.4234(6) -0.1214(6)
H2 H 1.1039 0.5115 -0.1552
C8 C 0.8355(6) 0.1616(6) 0.2933(5)
H3 H 0.8943 0.0903 0.2612
H4 H 0.8866 0.2220 0.2617
C9 C 1.2688(7) 0.3484(5) -0.1073(6)
H5 H 1.3476 0.3746 -0.1283
C10 C 0.6727(6) 0.2849(6) 0.7318(6)
H6 H 0.6141 0.3465 0.6738
H7 H 0.6269 0.2216 0.7822
C11 C 0.7386(6) 0.2758(6) 0.1143(6)
C12 C 1.3876(6) -0.0018(5) -0.0340(5)
H8 H 1.3124 -0.0030 -0.0567
C13 C 1.1303(6) 0.2314(6) -0.0392(5)
H9 H 1.0994 0.1612 -0.0046
C14 C 0.8207(6) 0.2200(6) 0.6660(6)
H10 H 0.8620 0.2844 0.6090
H11 H 0.8826 0.1656 0.7232
C15 C 0.6965(6) 0.2253(6) 0.2488(5)
H12 H 0.6483 0.1643 0.2704
H13 H 0.6328 0.2943 0.2829
C16 C 0.6779(6) -0.2003(5) 0.7227(5)
H14 H 0.6176 -0.1351 0.7623
H15 H 0.6340 -0.1875 0.6594
C17 C 0.6858(6) -0.3299(5) 0.8120(5)
C18 C 0.8243(6) -0.1861(5) 0.6685(6)
H16 H 0.8768 -0.2185 0.7318
H17 H 0.8767 -0.2377 0.6141
N1A N 1.7334(5) -0.2253(4) 0.0557(4)
N2A N 1.9530(5) -0.3492(4) 0.0780(5)
C4A C 1.5037(6) -0.1134(5) -0.0066(5)
H1A H 1.5061 -0.1891 -0.0111
C5A C 1.6145(6) -0.1109(5) 0.0271(5)
C7A C 1.8661(6) -0.4234(6) 0.1214(6)
H2A H 1.8961 -0.5115 0.1552
C9A C 1.7312(7) -0.3484(5) 0.1073(6)
H5A H 1.6524 -0.3746 0.1283
C12A C 1.6124(6) 0.0018(5) 0.0340(5)
H8A H 1.6876 0.0030 0.0567
C13A C 1.8697(6) -0.2314(6) 0.0392(5)
H9A H 1.9006 -0.1612 0.0046
O1A O 0.1892(4) 0.4090(4) 0.1770(4)
Co1A Co 0.15904(8) -0.40953(7) 1.09112(7)
O2A O 0.1780(5) -0.2045(4) 0.9462(4)
O3A O 0.3029(4) -0.3990(4) 0.9352(3)
O4A O 0.1981(4) -0.3580(4) 0.2035(4)
O5A O 0.4317(4) -0.3948(4) 0.1211(4)
O6A O 0.4286(4) 0.3521(3) 0.1298(4)
O7A O 0.1799(5) 0.0757(4) 0.5704(4)
O8A O 0.1898(5) 0.0205(4) 0.2263(4)
O9A O 0.1949(5) -0.3055(4) 0.5721(4)
N3A N 0.1820(5) 0.0529(4) 0.3972(4)
N4A N 0.1855(5) -0.1425(4) 0.3981(4)
N5A N 0.1811(5) -0.1148(4) 0.5756(4)
C1A C 0.1875(6) -0.0199(6) 0.3323(6)
C2A C 0.1891(6) -0.1955(6) 0.5186(6)
C3A C 0.1832(6) 0.0087(6) 0.5178(6)
C6A C 0.3192(7) -0.3520(5) 0.1916(6)
C8A C 0.1645(6) -0.1616(6) 0.7067(5)
H3A H 0.1057 -0.0903 0.7388
H4A H 0.1134 -0.2220 0.7383
C10A C 0.3273(6) -0.2849(6) 0.2682(6)
H6A H 0.3859 -0.3465 0.3262
H7A H 0.3731 -0.2216 0.2178
C11A C 0.2614(6) -0.2758(6) 0.8857(6)
C14A C 0.1793(6) -0.2200(6) 0.3340(6)
H10A H 0.1380 -0.2844 0.3910
H11A H 0.1174 -0.1656 0.2768
C15A C 0.3035(6) -0.2253(6) 0.7512(5)
H12A H 0.3517 -0.1643 0.7296
H13A H 0.3672 -0.2943 0.7171
C16A C 0.3221(6) 0.2003(5) 0.2773(5)
H14A H 0.3824 0.1351 0.2377
H15A H 0.3660 0.1875 0.3406
C17A C 0.3142(6) 0.3299(5) 0.1880(5)
C18A C 0.1757(6) 0.1861(5) 0.3315(6)
H16A H 0.1232 0.2185 0.2682
H17A H 0.1233 0.2377 0.3859
O1_2 O 0.8108(4) 0.5910(4) -0.1770(4)
O1A_2 O 0.1892(4) -0.5910(4) 1.1770(4)
Co1_2 Co 0.84096(8) -0.59047(7) 0.90888(7)
Co1_3 Co 0.84096(8) 0.40953(7) 0.90888(7)
Co1A_2 Co 0.15904(8) -0.40953(7) 0.09112(7)
Co1A_3 Co 0.15904(8) 0.59047(7) 0.09112(7)
Co1A_4 Co 2.15904(8) -0.40953(7) 0.09112(7)
Co2_2 Co 0.5000 -0.5000 0.0000
Co2_3 Co 0.5000 -0.5000 1.0000
Co2_4 Co 0.5000 0.5000 1.0000
O3A_2 O 0.3029(4) 0.6010(4) -0.0648(3)
O4_2 O 0.8019(4) 0.3580(4) -0.2035(4)
O4A_2 O 0.1981(4) -0.3580(4) 1.2035(4)
O5_2 O 0.5683(4) 0.3948(4) -0.1211(4)
O5A_2 O 0.4317(4) 0.6052(4) 0.1211(4)
O6_2 O 0.5714(4) 0.6479(3) -0.1298(4)
N2A_2 N -0.0470(5) -0.3492(4) 1.0780(5)
O10 O 0.5114(7) 0.1481(7) 0.6117(8)
N6 N 0.3024(7) 0.3028(7) 0.5837(6)
C19 C 0.3819(10) 0.1857(9) 0.6299(9)
H18 H 0.3354 0.1275 0.6802
C20 C 0.1471(9) 0.3442(10) 0.6079(10)
H19 H 0.1152 0.3726 0.5345
H20 H 0.1079 0.4130 0.6425
H21 H 0.1153 0.2743 0.6628
C21 C 0.3707(11) 0.3948(9) 0.5039(10)
H22 H 0.3347 0.4670 0.5335
H23 H 0.3506 0.4222 0.4257
H24 H 0.4725 0.3569 0.4991
O11 O 0.963(3) 0.947(2) 0.1056(17)
loop_
_geom_bond_atom_site_label_1
_geom_bond_atom_site_label_2
_geom_bond_site_symmetry_1
_geom_bond_site_symmetry_2
O1 C17 1_555 1_555
Co1 O3 1_555 1_555
Co2 O3 1_555 1_555
O2 C11 1_555 1_555
O3 C11 1_555 1_555
O4 C6 1_555 1_555
O5 C6 1_555 1_555
O6 C17 1_555 1_555
O7 C3 1_555 1_555
O8 C1 1_555 1_555
O9 C2 1_555 1_555
N1 C5 1_555 1_555
N2 Co1 1_555 1_555
N3 C1 1_555 1_555
N4 C1 1_555 1_555
N5 C2 1_555 1_555
C2 N4 1_555 1_555
C3 N3 1_555 1_555
C4 H1 1_555 1_555
C5 C4 1_555 1_555
C6 C10 1_555 1_555
C7 N2 1_555 1_555
H2 C7 1_555 1_555
C8 N5 1_555 1_555
H3 C8 1_555 1_555
H4 C8 1_555 1_555
C9 N1 1_555 1_555
H5 C9 1_555 1_555
C10 H6 1_555 1_555
H7 C10 1_555 1_555
C11 C15 1_555 1_555
C12 C5 1_555 1_555
H8 C12 1_555 1_555
C13 N1 1_555 1_555
H9 C13 1_555 1_555
C14 N4 1_555 1_555
H10 C14 1_555 1_555
H11 C14 1_555 1_555
C15 C8 1_555 1_555
H12 C15 1_555 1_555
H13 C15 1_555 1_555
C16 H14 1_555 1_555
H15 C16 1_555 1_555
C17 C16 1_555 1_555
C18 N3 1_555 1_555
H16 C18 1_555 1_555
H17 C18 1_555 1_555
O10 C19 1_555 1_555
N6 C19 1_555 1_555
C19 H18 1_555 1_555
C20 N6 1_555 1_555
H19 C20 1_555 1_555
H20 C20 1_555 1_555
H21 C20 1_555 1_555
C21 N6 1_555 1_555
H22 C21 1_555 1_555
H23 C21 1_555 1_555
H24 C21 1_555 1_555
N1A C5A 1_555 1_555
N2A C7A 1_555 1_555
C4A C12 1_555 1_555
H1A C4A 1_555 1_555
C5A C4A 1_555 1_555
C7A H2A 1_555 1_555
C9A N1A 1_555 1_555
H5A C9A 1_555 1_555
C12A C4 1_555 1_555
H8A C12A 1_555 1_555
C13A N1A 1_555 1_555
H9A C13A 1_555 1_555
O1A C17A 1_555 1_555
Co1A O3A 1_555 1_555
O2A C11A 1_555 1_555
O3A C11A 1_555 1_555
O4A C6A 1_555 1_555
O5A C6A 1_555 1_555
O6A Co2 1_555 1_555
O7A C3A 1_555 1_555
O8A C1A 1_555 1_555
O9A C2A 1_555 1_555
N3A C1A 1_555 1_555
N4A C1A 1_555 1_555
N5A C2A 1_555 1_555
C2A N4A 1_555 1_555
C3A N3A 1_555 1_555
C6A C10A 1_555 1_555
C8A N5A 1_555 1_555
H3A C8A 1_555 1_555
H4A C8A 1_555 1_555
C10A H6A 1_555 1_555
H7A C10A 1_555 1_555
C11A C15A 1_555 1_555
C14A N4A 1_555 1_555
H10A C14A 1_555 1_555
H11A C14A 1_555 1_555
C15A C8A 1_555 1_555
H12A C15A 1_555 1_555
H13A C15A 1_555 1_555
C16A H14A 1_555 1_555
H15A C16A 1_555 1_555
C17A O6A 1_555 1_555
C18A N3A 1_555 1_555
H16A C18A 1_555 1_555
H17A C18A 1_555 1_555
O1_2 Co1 1_555 1_555
O1A_2 Co1A 1_555 1_555
Co1_2 O1 1_555 1_555
Co1_3 O4 1_555 1_555
Co1A_2 O4A 1_555 1_555
Co1A_3 O1A 1_555 1_555
Co1A_4 N2A 1_555 1_555
Co2_2 O5A 1_555 1_555
Co2_3 O6 1_555 1_555
Co2_4 O5 1_555 1_555
O3A_2 Co2 1_555 1_555
O4_2 Co1 1_555 1_555
O4A_2 Co1A 1_555 1_555
O5_2 Co2 1_555 1_555
O5A_2 Co2 1_555 1_555
O6_2 Co2 1_555 1_555
N2A_2 Co1A 1_555 1_555
N2 C13 1_555 1_555
N5 C3 1_555 1_555
C7 C9 1_555 1_555
C10 C14 1_555 1_555
C16 C18 1_555 1_555
N2A C13A 1_555 1_555
C5A C12A 1_555 1_555
C7A C9A 1_555 1_555
O3A Co2_3 1_555 1_555
N5A C3A 1_555 1_555
C10A C14A 1_555 1_555
C16A C17A 1_555 1_555
C16A C18A 1_555 1_555
Co1A_3 O3A_2 1_555 1_555

#END
