
#######################################################################
#
#                 Cambridge Crystallographic Data Centre
#                                CCDC 
#
#######################################################################
#
# If this CIF has been generated from an entry in the Cambridge 
# Structural Database, then it will include bibliographic, chemical, 
# crystal, experimental, refinement or atomic coordinate data resulting 
# from the CCDC's data processing and validation procedures.
#
#######################################################################

data_QOQWOK
_symmetry_cell_setting           monoclinic
_symmetry_space_group_name_H-M   'P 21/c'
_symmetry_Int_Tables_number      14
_space_group_name_Hall           '-P 2ybc'
loop_
_symmetry_equiv_pos_site_id
_symmetry_equiv_pos_as_xyz
1 x,y,z
2 -x,1/2+y,1/2-z
3 -x,-y,-z
4 x,1/2-y,1/2+z
_cell_length_a                   9.7821(2)
_cell_length_b                   19.9160(4)
_cell_length_c                   16.1047(4)
_cell_angle_alpha                90
_cell_angle_beta                 93.581(2)
_cell_angle_gamma                90
_cell_volume                     3131.4
loop_
_atom_site_label
_atom_site_type_symbol
_atom_site_fract_x
_atom_site_fract_y
_atom_site_fract_z
Mn1 Mn 0.5000 0.0000 0.5000
Mn2 Mn 1.0000 0.5000 1.0000
N1 N 0.4459(5) 0.0897(3) 0.4155(3)
N2 N 0.9474(5) 0.4125(3) 0.9143(3)
O1 O 0.1452(5) 0.4306(2) 0.0622(3)
O2 O 0.3544(5) 0.4745(2) 0.0913(3)
O3 O 0.6353(5) 0.0681(2) 0.5678(3)
O4 O 0.8499(5) 0.0301(2) 0.5874(3)
C1 C 0.2628(6) 0.4300(3) 0.0969(4)
C2 C 0.2990(7) 0.3705(3) 0.1514(4)
C3 C 0.2528(8) 0.3063(3) 0.1290(4)
H1 H 0.1974 0.3003 0.0789
C4 C 0.2863(8) 0.2516(3) 0.1782(4)
H2 H 0.2590 0.2080 0.1598
C5 C 0.3598(7) 0.2591(3) 0.2546(4)
C6 C 0.4042(8) 0.3228(3) 0.2770(5)
H3 H 0.4540 0.3293 0.3289
C7 C 0.3778(8) 0.3773(3) 0.2254(5)
H4 H 0.4142 0.4200 0.2410
C8 C 0.4233(8) 0.0822(3) 0.3329(4)
H5 H 0.4264 0.0382 0.3104
C9 C 0.3958(8) 0.1351(3) 0.2792(4)
H6 H 0.3818 0.1269 0.2212
C10 C 0.3883(7) 0.2005(3) 0.3097(4)
C11 C 0.4124(7) 0.2076(3) 0.3962(4)
H7 H 0.4089 0.2508 0.4210
C12 C 0.4411(7) 0.1522(3) 0.4452(4)
H8 H 0.4585 0.1587 0.5033
C13 C 0.7575(7) 0.0720(3) 0.5961(4)
C14 C 0.7927(7) 0.1339(3) 0.6483(4)
C15 C 0.6944(8) 0.1822(4) 0.6607(5)
H9 H 0.6052 0.1777 0.6344
C16 C 0.7253(8) 0.2375(4) 0.7117(5)
H10 H 0.6564 0.2700 0.7200
C17 C 0.8550(7) 0.2459(4) 0.7503(5)
C18 C 0.9553(7) 0.1975(4) 0.7338(5)
H11 H 1.0459 0.2025 0.7579
C19 C 0.9239(7) 0.1436(3) 0.6835(5)
H12 H 0.9935 0.1122 0.6726
C20 C 0.8198(7) 0.3922(3) 0.8955(4)
H13 H 0.7475 0.4158 0.9192
C21 C 0.7861(7) 0.3390(3) 0.8436(4)
H14 H 0.6929 0.3264 0.8333
C22 C 0.8873(8) 0.3039(4) 0.8068(5)
C23 C 1.0211(8) 0.3250(4) 0.8268(5)
H15 H 1.0957 0.3025 0.8041
C24 C 1.0446(8) 0.3783(4) 0.8792(5)
H16 H 1.1368 0.3917 0.8913
N1B N 0.5541(5) -0.0897(3) 0.5845(3)
N2B N 0.0526(5) -0.4125(3) 0.0857(3)
O1B O 0.8548(5) -0.4306(2) 0.9378(3)
O2B O 0.6456(5) -0.4745(2) 0.9087(3)
O3B O 0.3647(5) -0.0681(2) 0.4322(3)
O4B O 0.1501(5) -0.0301(2) 0.4126(3)
C1B C 0.7372(6) -0.4300(3) 0.9031(4)
C2B C 0.7010(7) -0.3705(3) 0.8486(4)
C3B C 0.7472(8) -0.3063(3) 0.8710(4)
H1B H 0.8026 -0.3003 0.9211
C4B C 0.7137(8) -0.2516(3) 0.8218(4)
H2B H 0.7410 -0.2080 0.8402
C5B C 0.6402(7) -0.2591(3) 0.7454(4)
C6B C 0.5958(8) -0.3228(3) 0.7230(5)
H3B H 0.5460 -0.3293 0.6711
C7B C 0.6222(8) -0.3773(3) 0.7746(5)
H4B H 0.5858 -0.4200 0.7590
C8B C 0.5767(8) -0.0822(3) 0.6671(4)
H5B H 0.5736 -0.0382 0.6896
C9B C 0.6042(8) -0.1351(3) 0.7208(4)
H6B H 0.6182 -0.1269 0.7788
C10B C 0.6117(7) -0.2005(3) 0.6903(4)
C11B C 0.5876(7) -0.2076(3) 0.6038(4)
H7B H 0.5911 -0.2508 0.5790
C12B C 0.5589(7) -0.1522(3) 0.5548(4)
H8B H 0.5415 -0.1587 0.4967
C13B C 0.2425(7) -0.0720(3) 0.4039(4)
C14B C 0.2073(7) -0.1339(3) 0.3517(4)
C15B C 0.3056(8) -0.1822(4) 0.3393(5)
H9B H 0.3948 -0.1777 0.3656
C16B C 0.2747(8) -0.2375(4) 0.2883(5)
H10B H 0.3436 -0.2700 0.2800
C17B C 0.1450(7) -0.2459(4) 0.2497(5)
C18B C 0.0447(7) -0.1975(4) 0.2662(5)
H11B H -0.0459 -0.2025 0.2421
C19B C 0.0761(7) -0.1436(3) 0.3165(5)
H12B H 0.0065 -0.1122 0.3274
C20B C 0.1802(7) -0.3922(3) 0.1045(4)
H13B H 0.2525 -0.4158 0.0808
C21B C 0.2139(7) -0.3390(3) 0.1564(4)
H14B H 0.3071 -0.3264 0.1667
C22B C 0.1127(8) -0.3039(4) 0.1932(5)
C23B C -0.0211(8) -0.3250(4) 0.1732(5)
H15B H -0.0957 -0.3025 0.1959
C24B C -0.0446(8) -0.3783(4) 0.1208(5)
H16B H -0.1368 -0.3917 0.1087
Mn1A Mn 0.5000 -0.5000 1.0000
Mn1A_2 Mn 0.5000 0.5000 0.0000
Mn2_2 Mn 0.0000 -0.5000 0.0000
Mn2_3 Mn 0.0000 0.5000 0.0000
Mn2_4 Mn 1.0000 -0.5000 1.0000
Mn2A Mn 0.0000 0.0000 0.5000
Mn2A_2 Mn 1.0000 0.0000 0.5000
N2B_2 N 1.0526(5) 0.5875(3) 1.0857(3)
O1_2 O 1.1452(5) 0.4306(2) 1.0622(3)
O1B_2 O 0.8548(5) 0.5694(2) 0.9378(3)
O2A O 0.6456(5) -0.0255(2) 0.4087(3)
O2C O 0.3544(5) 0.0255(2) 0.5913(3)
O4A O 1.1501(5) 0.5301(2) 0.9126(3)
O4C O 0.8499(5) 0.4699(2) 1.0874(3)
N3 N 0.9181(15) 0.3158(6) 0.4606(7)
O5 O 0.693(2) 0.3244(10) 0.4315(16)
C25 C 0.804(3) 0.3367(12) 0.4241(15)
H17 H 0.8167 0.3693 0.3823
C26 C 0.928(2) 0.2728(9) 0.5188(8)
H18 H 0.8359 0.2621 0.5363
H19 H 0.9834 0.2912 0.5661
H20 H 0.9707 0.2319 0.4991
C27 C 1.026(3) 0.3432(15) 0.4345(13)
H21 H 1.0021 0.3859 0.4072
H22 H 1.0674 0.3132 0.3947
H23 H 1.0924 0.3514 0.4817
N4 N 0.9201(17) 0.4558(8) 0.6743(10)
O6 O 1.1165(19) 0.3979(9) 0.6398(11)
C28 C 1.059(3) 0.4400(11) 0.6881(14)
H24 H 1.1109 0.4601 0.7332
C29 C 0.834(5) 0.423(2) 0.601(3)
H25 H 0.8761 0.3804 0.5859
H26 H 0.8319 0.4534 0.5524
H27 H 0.7408 0.4152 0.6167
C30 C 0.847(3) 0.5018(11) 0.7252(15)
H28 H 0.9032 0.5119 0.7762
H29 H 0.7606 0.4813 0.7397
H30 H 0.8277 0.5435 0.6942
N6 N 0.4500(17) 0.4505(9) 0.5867(10)
O8 O 0.426(2) 0.3583(10) 0.5068(11)
C34 C 0.380(2) 0.4041(10) 0.5303(11)
H38 H 0.2874 0.4137 0.5123
C35 C 0.572(2) 0.4364(13) 0.6117(17)
H39 H 0.5987 0.3938 0.5869
H40 H 0.5780 0.4323 0.6724
H41 H 0.6333 0.4721 0.5950
C36 C 0.410(3) 0.5043(12) 0.6172(19)
H42 H 0.3095 0.5065 0.6108
H43 H 0.4488 0.5423 0.5883
H44 H 0.4392 0.5061 0.6765
N5? N 1.027(2) 0.4911(7) 0.6630(12)
O7? O 0.884(3) 0.4853(11) 0.5467(15)
C31? C 1.164(3) 0.4857(11) 0.6930(16)
H31? H 1.2219 0.4770 0.6466
H32? H 1.1738 0.4487 0.7331
H33? H 1.1932 0.5278 0.7205
C32? C 1.025(7) 0.4815(12) 0.580(4)
H34? H 1.1024 0.4736 0.5486
C33? C 0.917(3) 0.5028(10) 0.7192(14)
H35? H 0.8290 0.5067 0.6866
H36? H 0.9350 0.5444 0.7505
H37? H 0.9124 0.4651 0.7581
loop_
_geom_bond_atom_site_label_1
_geom_bond_atom_site_label_2
_geom_bond_site_symmetry_1
_geom_bond_site_symmetry_2
Mn1 N1 1_555 1_555
Mn2 N2 1_555 1_555
N1 C8 1_555 1_555
N2 C20 1_555 1_555
O1 C1 1_555 1_555
O2 C1 1_555 1_555
O3 Mn1 1_555 1_555
O4 C13 1_555 1_555
C1 C2 1_555 1_555
C2 C3 1_555 1_555
C3 H1 1_555 1_555
C4 C3 1_555 1_555
H2 C4 1_555 1_555
C5 C4 1_555 1_555
C6 C5 1_555 1_555
H3 C6 1_555 1_555
C7 C2 1_555 1_555
H4 C7 1_555 1_555
C8 H5 1_555 1_555
C9 C8 1_555 1_555
H6 C9 1_555 1_555
C10 C5 1_555 1_555
C11 C10 1_555 1_555
H7 C11 1_555 1_555
C12 N1 1_555 1_555
H8 C12 1_555 1_555
C13 O3 1_555 1_555
C14 C13 1_555 1_555
C15 C14 1_555 1_555
H9 C15 1_555 1_555
C16 C15 1_555 1_555
H10 C16 1_555 1_555
C17 C16 1_555 1_555
C18 C17 1_555 1_555
H11 C18 1_555 1_555
C19 C14 1_555 1_555
H12 C19 1_555 1_555
C20 H13 1_555 1_555
C21 C20 1_555 1_555
H14 C21 1_555 1_555
C22 C17 1_555 1_555
C23 C22 1_555 1_555
H15 C23 1_555 1_555
C24 N2 1_555 1_555
H16 C24 1_555 1_555
N3 C25 1_555 1_555
O5 C25 1_555 1_555
C25 H17 1_555 1_555
C26 N3 1_555 1_555
H18 C26 1_555 1_555
H19 C26 1_555 1_555
H20 C26 1_555 1_555
C27 N3 1_555 1_555
H21 C27 1_555 1_555
H22 C27 1_555 1_555
H23 C27 1_555 1_555
N4 C28 1_555 1_555
O6 C28 1_555 1_555
C28 H24 1_555 1_555
C29 N4 1_555 1_555
H25 C29 1_555 1_555
H26 C29 1_555 1_555
H27 C29 1_555 1_555
C30 N4 1_555 1_555
H28 C30 1_555 1_555
H29 C30 1_555 1_555
H30 C30 1_555 1_555
N6 C34 1_555 1_555
O8 C34 1_555 1_555
C34 H38 1_555 1_555
C35 N6 1_555 1_555
H39 C35 1_555 1_555
H40 C35 1_555 1_555
H41 C35 1_555 1_555
C36 N6 1_555 1_555
H42 C36 1_555 1_555
H43 C36 1_555 1_555
H44 C36 1_555 1_555
N1B Mn1 1_555 1_555
N2B C20B 1_555 1_555
O1B C1B 1_555 1_555
O2B C1B 1_555 1_555
O3B Mn1 1_555 1_555
O4B C13B 1_555 1_555
C1B C2B 1_555 1_555
C2B C3B 1_555 1_555
C3B H1B 1_555 1_555
C4B C3B 1_555 1_555
H2B C4B 1_555 1_555
C5B C4B 1_555 1_555
C6B C5B 1_555 1_555
H3B C6B 1_555 1_555
C7B C2B 1_555 1_555
H4B C7B 1_555 1_555
C8B N1B 1_555 1_555
H5B C8B 1_555 1_555
C9B C8B 1_555 1_555
H6B C9B 1_555 1_555
C10B C5B 1_555 1_555
C11B C10B 1_555 1_555
H7B C11B 1_555 1_555
C12B N1B 1_555 1_555
H8B C12B 1_555 1_555
C13B O3B 1_555 1_555
C14B C13B 1_555 1_555
C15B C14B 1_555 1_555
H9B C15B 1_555 1_555
C16B C15B 1_555 1_555
H10B C16B 1_555 1_555
C17B C16B 1_555 1_555
C18B C17B 1_555 1_555
H11B C18B 1_555 1_555
C19B C14B 1_555 1_555
H12B C19B 1_555 1_555
C20B H13B 1_555 1_555
C21B C20B 1_555 1_555
H14B C21B 1_555 1_555
C22B C17B 1_555 1_555
C23B C22B 1_555 1_555
H15B C23B 1_555 1_555
C24B N2B 1_555 1_555
H16B C24B 1_555 1_555
Mn1A O2B 1_555 1_555
Mn1A_2 O2 1_555 1_555
Mn2_2 N2B 1_555 1_555
Mn2_3 O1 1_555 1_555
Mn2_4 O1B 1_555 1_555
Mn2A O4B 1_555 1_555
Mn2A_2 O4 1_555 1_555
N2B_2 Mn2 1_555 1_555
O1_2 Mn2 1_555 1_555
O1B_2 Mn2 1_555 1_555
O2A Mn1 1_555 1_555
O2C Mn1 1_555 1_555
O4A Mn2 1_555 1_555
O4C Mn2 1_555 1_555
C6 C7 1_555 1_555
C9 C10 1_555 1_555
C11 C12 1_555 1_555
C18 C19 1_555 1_555
C21 C22 1_555 1_555
C23 C24 1_555 1_555
C6B C7B 1_555 1_555
C9B C10B 1_555 1_555
C11B C12B 1_555 1_555
C18B C19B 1_555 1_555
C21B C22B 1_555 1_555
C23B C24B 1_555 1_555

#END
