
#######################################################################
#
#                 Cambridge Crystallographic Data Centre
#                                CCDC 
#
#######################################################################
#
# If this CIF has been generated from an entry in the Cambridge 
# Structural Database, then it will include bibliographic, chemical, 
# crystal, experimental, refinement or atomic coordinate data resulting 
# from the CCDC's data processing and validation procedures.
#
#######################################################################

data_QOSJUF
_symmetry_cell_setting           monoclinic
_symmetry_space_group_name_H-M   'P 21/c'
_symmetry_Int_Tables_number      14
_space_group_name_Hall           '-P 2ybc'
loop_
_symmetry_equiv_pos_site_id
_symmetry_equiv_pos_as_xyz
1 x,y,z
2 -x,1/2+y,1/2-z
3 -x,-y,-z
4 x,1/2-y,1/2+z
_cell_length_a                   10.792(2)
_cell_length_b                   13.889(3)
_cell_length_c                   19.739(4)
_cell_angle_alpha                90
_cell_angle_beta                 100.91(3)
_cell_angle_gamma                90
_cell_volume                     2905.2
loop_
_atom_site_label
_atom_site_type_symbol
_atom_site_fract_x
_atom_site_fract_y
_atom_site_fract_z
Cu1 Cu 0.24238(7) 0.06994(5) 0.21499(4)
Ho1 Ho 0.15432(3) 0.56839(2) 0.057145(14)
N1 N 0.3549(5) -0.0438(4) 0.2108(3)
N2 N 0.1322(5) 0.1830(4) 0.2238(3)
O1 O 0.2649(5) -0.2744(4) 0.0684(3)
O2 O 0.2855(5) -0.3663(3) 0.1611(3)
O3 O 0.6131(5) -0.3405(4) 0.2792(3)
O4 O 0.5843(6) -0.3400(5) 0.1637(3)
O5 O 0.2003(5) 0.0843(5) 0.0967(3)
H1 H 0.2434(9) 0.0399(11) 0.0827(14)
H2 H 0.1248(9) 0.0983(19) 0.099(2)
O6 O -0.1923(5) 0.4409(5) 0.1746(3)
O7 O -0.0992(4) 0.4798(3) 0.2808(3)
O8 O 0.0578(5) 0.5091(3) 0.1510(3)
O9 O 0.2121(4) 0.4236(3) 0.1230(3)
O10 O -0.0801(5) 0.5609(4) 0.0179(3)
O11 O 0.0007(5) 0.6912(4) 0.0698(3)
O12 O 0.1354(5) 0.6351(4) -0.0532(3)
H3 H 0.2120 0.6241 -0.0701
H4 H 0.0661 0.6053 -0.0836
O13 O 0.3523(5) 0.5294(4) 0.0324(3)
H5 H 0.4004 0.4946 0.0705
H6 H 0.3960 0.5875 0.0251
C1 C 0.4672(6) -0.0532(5) 0.2529(4)
H7 H 0.5000 -0.0010 0.2800
C2 C 0.5364(6) -0.1377(5) 0.2576(4)
H8 H 0.6142 -0.1411 0.2873
C3 C 0.4904(6) -0.2174(5) 0.2181(4)
C4 C 0.3723(6) -0.2075(5) 0.1741(3)
C5 C 0.3096(6) -0.1197(5) 0.1709(3)
H9 H 0.2335 -0.1129 0.1401
C6 C 0.5675(7) -0.3066(5) 0.2183(4)
C7 C 0.3065(6) -0.2876(5) 0.1309(3)
C8 C 0.0392(6) 0.1841(5) 0.2610(4)
H10 H 0.0265 0.1298 0.2863
C9 C -0.0388(7) 0.2647(5) 0.2626(4)
H11 H -0.1042 0.2626 0.2872
C10 C -0.0172(6) 0.3478(5) 0.2270(3)
C11 C 0.0836(6) 0.3483(5) 0.1923(3)
C12 C 0.1514(6) 0.2632(5) 0.1900(3)
H12 H 0.2138 0.2624 0.1632
C13 C -0.1099(6) 0.4309(5) 0.2259(4)
C14 C 0.1193(7) 0.4325(6) 0.1521(3)
C15 C -0.0968(7) 0.6445(5) 0.0404(4)
C16 C -0.2244(9) 0.6854(7) 0.0354(6)
H13 H -0.2711 0.6772 -0.0107
H14 H -0.2179 0.7528 0.0464
H15 H -0.2671 0.6529 0.0673
Cu1A Cu -0.24238(7) 0.56994(5) 0.28501(4)
Cu1A_2 Cu 0.75762(7) -0.43006(5) 0.28501(4)
Ho1_2 Ho 0.15432(3) -0.43161(2) 0.057145(14)
Ho1B Ho -0.15432(3) 0.43161(2) -0.057145(14)
O1_2 O 0.2649(5) 0.7256(4) 0.0684(3)
O2_2 O 0.2855(5) 0.6337(3) 0.1611(3)
O3A O 0.3869(5) 0.1595(4) 0.2208(3)
O7A O 0.0992(4) -0.0202(3) 0.2192(3)
O10B O 0.0801(5) 0.4391(4) -0.0179(3)
O14 O 0.4402(6) -0.0876(6) 0.4142(3)
H16 H 0.3914 -0.1405 0.3921
H17 H 0.3904 -0.0300 0.4078
O15 O 0.4938(9) -0.2824(7) 0.3934(5)
H18 H 0.5323 -0.3014 0.3555
H19 H 0.5368 -0.3129 0.4349
O16 O 0.2925(12) 0.6023(9) 0.3069(5)
H20 H 0.2918 0.6684 0.3208
H21 H 0.3484 0.5947 0.2748
O17 O 0.5003(15) 0.6835(15) 0.5347(7)
H22 H 0.5678 0.6406 0.5535
H23 H 0.4737 0.7183 0.5715
O18 O 0.319(2) 0.971(2) 0.0129(9)
H24 H 0.4012 0.9794 0.0019
H25 H 0.2681 0.9321 -0.0216
O19 O 0.244(5) 0.448(2) 0.3833(14)
H26 H 0.2015 0.5048 0.3948
H27 H 0.3173 0.4658 0.3657
O20 O 0.951(3) 0.898(2) 0.0899(15)
H28 H 0.9498 0.8830 0.1373
H29 H 1.0255 0.8712 0.0774
O21 O 0.141(3) 0.8270(11) 0.9230(11)
H30 H 0.1408 0.8176 0.8748
H31 H 0.0749 0.7894 0.9362
O22 O 0.016(3) 0.8738(19) 0.0042(15)
H32 H 0.0687 0.8551 0.0469
H33 H -0.0510 0.9145 0.0136
loop_
_geom_bond_atom_site_label_1
_geom_bond_atom_site_label_2
_geom_bond_site_symmetry_1
_geom_bond_site_symmetry_2
Cu1 N1 1_555 1_555
Ho1 O8 1_555 1_555
N1 C1 1_555 1_555
N2 Cu1 1_555 1_555
O1 C7 1_555 1_555
O2 C7 1_555 1_555
O3 C6 1_555 1_555
O4 C6 1_555 1_555
O5 Cu1 1_555 1_555
H1 O5 1_555 1_555
H2 O5 1_555 1_555
O6 C13 1_555 1_555
O7 C13 1_555 1_555
O8 C14 1_555 1_555
O9 Ho1 1_555 1_555
O10 Ho1 1_555 1_555
O11 Ho1 1_555 1_555
O12 Ho1 1_555 1_555
H3 O12 1_555 1_555
H4 O12 1_555 1_555
O13 Ho1 1_555 1_555
H5 O13 1_555 1_555
H6 O13 1_555 1_555
C1 H7 1_555 1_555
C2 C1 1_555 1_555
H8 C2 1_555 1_555
C3 C2 1_555 1_555
C4 C3 1_555 1_555
C5 N1 1_555 1_555
H9 C5 1_555 1_555
C6 C3 1_555 1_555
C7 C4 1_555 1_555
C8 N2 1_555 1_555
H10 C8 1_555 1_555
C9 C8 1_555 1_555
H11 C9 1_555 1_555
C10 C9 1_555 1_555
C11 C10 1_555 1_555
C12 N2 1_555 1_555
H12 C12 1_555 1_555
C13 C10 1_555 1_555
C14 O9 1_555 1_555
C15 O10 1_555 1_555
C16 C15 1_555 1_555
H13 C16 1_555 1_555
H14 C16 1_555 1_555
H15 C16 1_555 1_555
O14 H16 1_555 1_555
H17 O14 1_555 1_555
O15 H18 1_555 1_555
H19 O15 1_555 1_555
O16 H20 1_555 1_555
H21 O16 1_555 1_555
O17 H22 1_555 1_555
H23 O17 1_555 1_555
O18 H24 1_555 1_555
H25 O18 1_555 1_555
O19 H26 1_555 1_555
H27 O19 1_555 1_555
O20 H28 1_555 1_555
H29 O20 1_555 1_555
O21 H30 1_555 1_555
H31 O21 1_555 1_555
O22 H32 1_555 1_555
H33 O22 1_555 1_555
Cu1A O7 1_555 1_555
Cu1A_2 O3 1_555 1_555
Ho1_2 O1 1_555 1_555
Ho1B O10 1_555 1_555
O1_2 Ho1 1_555 1_555
O2_2 Ho1 1_555 1_555
O3A Cu1 1_555 1_555
O7A Cu1 1_555 1_555
O10B Ho1 1_555 1_555
O2 Ho1_2 1_555 1_555
O11 C15 1_555 1_555
C4 C5 1_555 1_555
C11 C12 1_555 1_555
C11 C14 1_555 1_555
Ho1B O10B 1_555 1_555

#END
