
#######################################################################
#
#                 Cambridge Crystallographic Data Centre
#                                CCDC 
#
#######################################################################
#
# If this CIF has been generated from an entry in the Cambridge 
# Structural Database, then it will include bibliographic, chemical, 
# crystal, experimental, refinement or atomic coordinate data resulting 
# from the CCDC's data processing and validation procedures.
#
#######################################################################

data_QOVDEL
_symmetry_cell_setting           rhombohedral
_symmetry_space_group_name_H-M   'R -3'
_symmetry_Int_Tables_number      148
_space_group_name_Hall           '-R 3'
loop_
_symmetry_equiv_pos_site_id
_symmetry_equiv_pos_as_xyz
1 x,y,z
2 -y,x-y,z
3 -x+y,-x,z
4 1/3+x,2/3+y,2/3+z
5 1/3-y,2/3+x-y,2/3+z
6 1/3-x+y,2/3-x,2/3+z
7 2/3+x,1/3+y,1/3+z
8 2/3-y,1/3+x-y,1/3+z
9 2/3-x+y,1/3-x,1/3+z
10 -x,-y,-z
11 y,-x+y,-z
12 x-y,x,-z
13 2/3-x,1/3-y,1/3-z
14 2/3+y,1/3-x+y,1/3-z
15 2/3+x-y,1/3+x,1/3-z
16 1/3-x,2/3-y,2/3-z
17 1/3+y,2/3-x+y,2/3-z
18 1/3+x-y,2/3+x,2/3-z
_cell_length_a                   27.91436(12)
_cell_length_b                   27.91436(12)
_cell_length_c                   6.165502(21)
_cell_angle_alpha                90
_cell_angle_beta                 90
_cell_angle_gamma                120
_cell_volume                     4160.59
loop_
_atom_site_label
_atom_site_type_symbol
_atom_site_fract_x
_atom_site_fract_y
_atom_site_fract_z
Ni1 Ni 0.30485(7) 0.02863(7) -0.28084(26)
P1 P 0.42397(12) 0.03900(15) -0.4300(6)
O1 O 0.47878(25) 0.09348(24) -0.4982(10)
O2 O 0.38754(28) 0.05301(30) -0.2661(10)
O3 O 0.22133(26) 0.00233(23) -0.2131(11)
O4 O 0.39005(29) 0.01154(29) -0.6254(10)
N1 N 0.4549(4) 0.0074(4) -0.0535(15)
C1 C 0.4464(4) -0.0419(4) 0.0973(15)
C2 C 0.5109(5) 0.0562(5) -0.0152(17)
C3 C 0.4375(4) -0.0156(4) -0.2839(16)
Ni1I Ni 0.69515(7) -0.02863(7) 0.28084(26)
Ni1H Ni 0.39045(10) 0.02848(7) 0.05249(26)
Ni1H_2 Ni 0.39045(10) 0.02848(7) -0.94751(26)
Ni1D Ni 0.30470(7) -0.05711(10) -0.61417(26)
Ni1Q Ni 0.60955(10) -0.02848(7) -0.05249(26)
Ni1Q_2 Ni 0.60955(10) -0.02848(7) 0.94751(26)
Ni1M Ni 0.69530(7) 0.05711(10) 0.61417(26)
P1I P 0.57603(12) -0.03900(15) 0.4300(6)
O1I O 0.52122(25) -0.09348(24) 0.4982(10)
O2I O 0.61246(28) -0.05301(30) 0.2661(10)
O2D O 0.28032(30) 0.00120(41) -0.5994(10)
O2M O 0.71968(30) -0.00120(41) 0.5994(10)
O3I O 0.77867(26) -0.00233(23) 0.2131(11)
O4I O 0.60995(29) -0.01154(29) 0.6254(10)
O4D O 0.32179(29) 0.04518(41) 0.0413(10)
O4H O 0.28816(41) -0.05672(29) -0.2921(10)
O4M O 0.67821(29) -0.04518(41) -0.0413(10)
O4Q O 0.71184(41) 0.05672(29) 0.2921(10)
N1I N 0.5451(4) -0.0074(4) 0.0535(15)
N1D N 0.3259(4) 0.1142(6) -0.3868(15)
N1M N 0.6741(4) -0.1142(6) 0.3868(15)
C1I C 0.5536(4) 0.0419(4) -0.0973(15)
C2I C 0.4891(5) -0.0562(5) 0.0152(17)
C3I C 0.5625(4) 0.0156(4) 0.2839(16)
loop_
_geom_bond_atom_site_label_1
_geom_bond_atom_site_label_2
_geom_bond_site_symmetry_1
_geom_bond_site_symmetry_2
Ni1 O2 1_555 1_555
P1 O1 1_555 1_555
O2 P1 1_555 1_555
O3 Ni1 1_555 1_555
O4 P1 1_555 1_555
N1 C1 1_555 1_555
C1 C2I 1_555 1_555
C2 N1 1_555 1_555
C3 P1 1_555 1_555
Ni1I O2I 1_555 1_555
Ni1H O2 1_555 1_555
Ni1H_2 O4 1_555 1_555
Ni1D O4 1_555 1_555
Ni1Q O2I 1_555 1_555
Ni1Q_2 O4I 1_555 1_555
Ni1M O2M 1_555 1_555
P1I O1I 1_555 1_555
O2I P1I 1_555 1_555
O2D Ni1 1_555 1_555
O2M Ni1I 1_555 1_555
O3I Ni1I 1_555 1_555
O4I Ni1M 1_555 1_555
O4D Ni1 1_555 1_555
O4H Ni1 1_555 1_555
O4M Ni1I 1_555 1_555
O4Q Ni1I 1_555 1_555
N1I Ni1Q 1_555 1_555
N1D Ni1 1_555 1_555
N1M Ni1I 1_555 1_555
C1I C2 1_555 1_555
C2I N1I 1_555 1_555
C3I P1I 1_555 1_555
N1 C3 1_555 1_555
N1 Ni1H 1_555 1_555
Ni1H O4D 1_555 1_555
Ni1D O2D 1_555 1_555
Ni1D O4H 1_555 1_555
Ni1Q O4M 1_555 1_555
Ni1M O4Q 1_555 1_555
P1I O4I 1_555 1_555
N1I C1I 1_555 1_555
N1I C3I 1_555 1_555

#END
