
#######################################################################
#
#                 Cambridge Crystallographic Data Centre
#                                CCDC 
#
#######################################################################
#
# If this CIF has been generated from an entry in the Cambridge 
# Structural Database, then it will include bibliographic, chemical, 
# crystal, experimental, refinement or atomic coordinate data resulting 
# from the CCDC's data processing and validation procedures.
#
#######################################################################

data_QOWRAV11
_symmetry_cell_setting           cubic
_symmetry_space_group_name_H-M   'I m -3'
_symmetry_Int_Tables_number      204
_space_group_name_Hall           '-I 2 2 3'
loop_
_symmetry_equiv_pos_site_id
_symmetry_equiv_pos_as_xyz
1 x,y,z
2 z,x,y
3 y,z,x
4 -y,-z,x
5 z,-x,-y
6 -y,z,-x
7 -z,-x,y
8 -z,x,-y
9 y,-z,-x
10 -x,-y,z
11 x,-y,-z
12 -x,y,-z
13 1/2+x,1/2+y,1/2+z
14 1/2+z,1/2+x,1/2+y
15 1/2+y,1/2+z,1/2+x
16 1/2-y,1/2-z,1/2+x
17 1/2+z,1/2-x,1/2-y
18 1/2-y,1/2+z,1/2-x
19 1/2-z,1/2-x,1/2+y
20 1/2-z,1/2+x,1/2-y
21 1/2+y,1/2-z,1/2-x
22 1/2-x,1/2-y,1/2+z
23 1/2+x,1/2-y,1/2-z
24 1/2-x,1/2+y,1/2-z
25 -x,-y,-z
26 -z,-x,-y
27 -y,-z,-x
28 y,z,-x
29 -z,x,y
30 y,-z,x
31 z,x,-y
32 z,-x,y
33 -y,z,x
34 x,y,-z
35 -x,y,z
36 x,-y,z
37 1/2-x,1/2-y,1/2-z
38 1/2-z,1/2-x,1/2-y
39 1/2-y,1/2-z,1/2-x
40 1/2+y,1/2+z,1/2-x
41 1/2-z,1/2+x,1/2+y
42 1/2+y,1/2-z,1/2+x
43 1/2+z,1/2+x,1/2-y
44 1/2+z,1/2-x,1/2+y
45 1/2-y,1/2+z,1/2+x
46 1/2+x,1/2+y,1/2-z
47 1/2-x,1/2+y,1/2+z
48 1/2+x,1/2-y,1/2+z
_cell_length_a                   26.943(3)
_cell_length_b                   26.943(3)
_cell_length_c                   26.943(3)
_cell_angle_alpha                90
_cell_angle_beta                 90
_cell_angle_gamma                90
_cell_volume                     19558.6
loop_
_atom_site_label
_atom_site_type_symbol
_atom_site_fract_x
_atom_site_fract_y
_atom_site_fract_z
Cu1 Cu 0.5000 0.0000 0.14409(5)
Cu2 Cu 0.5000 0.0000 0.24049(6)
O1 O 0.44750(15) 0.05041(17) 0.14884(18)
O2 O 0.44850(18) 0.0489(2) 0.23110(18)
C1 C 0.2941(3) 0.1451(2) 0.1972(3)
C2 C 0.4306(2) 0.0620(2) 0.1902(3)
C3 C 0.3598(3) 0.1065(3) 0.1491(3)
H1 H 0.3732 0.0981 0.1184
C4 C 0.3195(3) 0.1294(3) 0.2413(3)
H2 H 0.3061 0.1364 0.2723
C5 C 0.3149(2) 0.1337(3) 0.1512(3)
H3 H 0.2994 0.1440 0.1221
C6 C 0.3638(3) 0.1040(2) 0.2377(3)
H4 H 0.3803 0.0945 0.2665
C7 C 0.2164(2) 0.1695(3) 0.2414(2)
H5 H 0.2207 0.1425 0.2625
C8 C 0.3841(2) 0.0922(2) 0.1923(2)
C9 C 0.2494(2) 0.1768(2) 0.2023(2)
O3 O 0.5000 0.0000 0.3221(5)
O4 O 0.5000 0.0000 0.0601(15)
O1A O 0.14884(18) 0.44750(15) 0.05041(17)
O2A O 0.23110(18) 0.44850(18) 0.0489(2)
C1A C 0.1972(3) 0.2941(3) 0.1451(2)
C2A C 0.1902(3) 0.4306(2) 0.0620(2)
C3A C 0.1491(3) 0.3598(3) 0.1065(3)
H1A H 0.1184 0.3732 0.0981
C4A C 0.2413(3) 0.3195(3) 0.1294(3)
H2A H 0.2723 0.3061 0.1364
C5A C 0.1512(3) 0.3149(2) 0.1337(3)
H3A H 0.1221 0.2994 0.1440
C6A C 0.2377(3) 0.3638(3) 0.1040(2)
H4A H 0.2665 0.3803 0.0945
C7A C 0.2414(2) 0.2164(2) 0.1695(3)
H5A H 0.2625 0.2207 0.1425
C8A C 0.1923(2) 0.3841(2) 0.0922(2)
C9A C 0.2023(2) 0.2494(2) 0.1768(2)
O1B O 0.05041(17) 0.14884(18) 0.44750(15)
O2B O 0.0489(2) 0.23110(18) 0.44850(18)
C1B C 0.1451(2) 0.1972(3) 0.2941(3)
C2B C 0.0620(2) 0.1902(3) 0.4306(2)
C3B C 0.1065(3) 0.1491(3) 0.3598(3)
H1B H 0.0981 0.1184 0.3732
C4B C 0.1294(3) 0.2413(3) 0.3195(3)
H2B H 0.1364 0.2723 0.3061
C5B C 0.1337(3) 0.1512(3) 0.3149(2)
H3B H 0.1440 0.1221 0.2994
C6B C 0.1040(2) 0.2377(3) 0.3638(3)
H4B H 0.0945 0.2665 0.3803
C7B C 0.1695(3) 0.2414(2) 0.2164(2)
H5B H 0.1425 0.2625 0.2207
C8B C 0.0922(2) 0.1923(2) 0.3841(2)
C9B C 0.1768(2) 0.2023(2) 0.2494(2)
Cu1A Cu 0.14409(5) 0.5000 0.0000
Cu2A Cu 0.24049(6) 0.5000 0.0000
O3A O 0.3221(5) 0.5000 0.0000
O4A O 0.0601(15) 0.5000 0.0000
O1AA O 0.05041(17) 0.14884(18) -0.44750(15)
O2AA O 0.0489(2) 0.23110(18) -0.44850(18)
C1AA C 0.1451(2) 0.1972(3) -0.2941(3)
C2AA C 0.0620(2) 0.1902(3) -0.4306(2)
C3AA C 0.1065(3) 0.1491(3) -0.3598(3)
H1AA H 0.0981 0.1184 -0.3732
C4AA C 0.1294(3) 0.2413(3) -0.3195(3)
H2AA H 0.1364 0.2723 -0.3061
C5AA C 0.1337(3) 0.1512(3) -0.3149(2)
H3AA H 0.1440 0.1221 -0.2994
C6AA C 0.1040(2) 0.2377(3) -0.3638(3)
H4AA H 0.0945 0.2665 -0.3803
C7AA C 0.1695(3) 0.2414(2) -0.2164(2)
H5AA H 0.1425 0.2625 -0.2207
C8AA C 0.0922(2) 0.1923(2) -0.3841(2)
C9AA C 0.1768(2) 0.2023(2) -0.2494(2)
O1GA O 0.44750(15) 0.05041(17) -0.14884(18)
O2GA O 0.44850(18) 0.0489(2) -0.23110(18)
C1GA C 0.2941(3) 0.1451(2) -0.1972(3)
C2GA C 0.4306(2) 0.0620(2) -0.1902(3)
C3GA C 0.3598(3) 0.1065(3) -0.1491(3)
H1GA H 0.3732 0.0981 -0.1184
C4GA C 0.3195(3) 0.1294(3) -0.2413(3)
H2GA H 0.3061 0.1364 -0.2723
C5GA C 0.3149(2) 0.1337(3) -0.1512(3)
H3GA H 0.2994 0.1440 -0.1221
C6GA C 0.3638(3) 0.1040(2) -0.2377(3)
H4GA H 0.3803 0.0945 -0.2665
C7GA C 0.2164(2) 0.1695(3) -0.2414(2)
H5GA H 0.2207 0.1425 -0.2625
C8GA C 0.3841(2) 0.0922(2) -0.1923(2)
C9GA C 0.2494(2) 0.1768(2) -0.2023(2)
O1DA O 0.14884(18) 0.44750(15) -0.05041(17)
O2DA O 0.23110(18) 0.44850(18) -0.0489(2)
C1DA C 0.1972(3) 0.2941(3) -0.1451(2)
C2DA C 0.1902(3) 0.4306(2) -0.0620(2)
C3DA C 0.1491(3) 0.3598(3) -0.1065(3)
H1DA H 0.1184 0.3732 -0.0981
C4DA C 0.2413(3) 0.3195(3) -0.1294(3)
H2DA H 0.2723 0.3061 -0.1364
C5DA C 0.1512(3) 0.3149(2) -0.1337(3)
H3DA H 0.1221 0.2994 -0.1440
C6DA C 0.2377(3) 0.3638(3) -0.1040(2)
H4DA H 0.2665 0.3803 -0.0945
C7DA C 0.2414(2) 0.2164(2) -0.1695(3)
H5DA H 0.2625 0.2207 -0.1425
C8DA C 0.1923(2) 0.3841(2) -0.0922(2)
C9DA C 0.2023(2) 0.2494(2) -0.1768(2)
O1CA O 0.05041(17) -0.14884(18) 0.44750(15)
O2CA O 0.0489(2) -0.23110(18) 0.44850(18)
C1CA C 0.1451(2) -0.1972(3) 0.2941(3)
C2CA C 0.0620(2) -0.1902(3) 0.4306(2)
C3CA C 0.1065(3) -0.1491(3) 0.3598(3)
H1CA H 0.0981 -0.1184 0.3732
C4CA C 0.1294(3) -0.2413(3) 0.3195(3)
H2CA H 0.1364 -0.2723 0.3061
C5CA C 0.1337(3) -0.1512(3) 0.3149(2)
H3CA H 0.1440 -0.1221 0.2994
C6CA C 0.1040(2) -0.2377(3) 0.3638(3)
H4CA H 0.0945 -0.2665 0.3803
C7CA C 0.1695(3) -0.2414(2) 0.2164(2)
H5CA H 0.1425 -0.2625 0.2207
C8CA C 0.0922(2) -0.1923(2) 0.3841(2)
C9CA C 0.1768(2) -0.2023(2) 0.2494(2)
O1IA O 0.44750(15) -0.05041(17) 0.14884(18)
O2IA O 0.44850(18) -0.0489(2) 0.23110(18)
C1IA C 0.2941(3) -0.1451(2) 0.1972(3)
C2IA C 0.4306(2) -0.0620(2) 0.1902(3)
C3IA C 0.3598(3) -0.1065(3) 0.1491(3)
H1IA H 0.3732 -0.0981 0.1184
C4IA C 0.3195(3) -0.1294(3) 0.2413(3)
H2IA H 0.3061 -0.1364 0.2723
C5IA C 0.3149(2) -0.1337(3) 0.1512(3)
H3IA H 0.2994 -0.1440 0.1221
C6IA C 0.3638(3) -0.1040(2) 0.2377(3)
H4IA H 0.3803 -0.0945 0.2665
C7IA C 0.2164(2) -0.1695(3) 0.2414(2)
H5IA H 0.2207 -0.1425 0.2625
C8IA C 0.3841(2) -0.0922(2) 0.1923(2)
C9IA C 0.2494(2) -0.1768(2) 0.2023(2)
O1EA O 0.14884(18) -0.44750(15) 0.05041(17)
O2EA O 0.23110(18) -0.44850(18) 0.0489(2)
C1EA C 0.1972(3) -0.2941(3) 0.1451(2)
C2EA C 0.1902(3) -0.4306(2) 0.0620(2)
C3EA C 0.1491(3) -0.3598(3) 0.1065(3)
H1EA H 0.1184 -0.3732 0.0981
C4EA C 0.2413(3) -0.3195(3) 0.1294(3)
H2EA H 0.2723 -0.3061 0.1364
C5EA C 0.1512(3) -0.3149(2) 0.1337(3)
H3EA H 0.1221 -0.2994 0.1440
C6EA C 0.2377(3) -0.3638(3) 0.1040(2)
H4EA H 0.2665 -0.3803 0.0945
C7EA C 0.2414(2) -0.2164(2) 0.1695(3)
H5EA H 0.2625 -0.2207 0.1425
C8EA C 0.1923(2) -0.3841(2) 0.0922(2)
C9EA C 0.2023(2) -0.2494(2) 0.1768(2)
Cu1J Cu 0.5000 0.0000 -0.14409(5)
Cu2J Cu 0.5000 0.0000 -0.24049(6)
O3J O 0.5000 0.0000 -0.3221(5)
O4J O 0.5000 0.0000 -0.0601(15)
O1HA O 0.55250(15) 0.05041(17) 0.14884(18)
O2HA O 0.55150(18) 0.0489(2) 0.23110(18)
C1HA C 0.7059(3) 0.1451(2) 0.1972(3)
C2HA C 0.5694(2) 0.0620(2) 0.1902(3)
C3HA C 0.6402(3) 0.1065(3) 0.1491(3)
H1HA H 0.6268 0.0981 0.1184
C4HA C 0.6805(3) 0.1294(3) 0.2413(3)
H2HA H 0.6939 0.1364 0.2723
C5HA C 0.6851(2) 0.1337(3) 0.1512(3)
H3HA H 0.7006 0.1440 0.1221
C6HA C 0.6362(3) 0.1040(2) 0.2377(3)
H4HA H 0.6197 0.0945 0.2665
C7HA C 0.7836(2) 0.1695(3) 0.2414(2)
H5HA H 0.7793 0.1425 0.2625
C8HA C 0.6159(2) 0.0922(2) 0.1923(2)
C9HA C 0.7506(2) 0.1768(2) 0.2023(2)
O1BA O 0.85116(18) 0.44750(15) 0.05041(17)
O2BA O 0.76890(18) 0.44850(18) 0.0489(2)
C1BA C 0.8028(3) 0.2941(3) 0.1451(2)
C2BA C 0.8098(3) 0.4306(2) 0.0620(2)
C3BA C 0.8509(3) 0.3598(3) 0.1065(3)
H1BA H 0.8816 0.3732 0.0981
C4BA C 0.7587(3) 0.3195(3) 0.1294(3)
H2BA H 0.7277 0.3061 0.1364
C5BA C 0.8488(3) 0.3149(2) 0.1337(3)
H3BA H 0.8779 0.2994 0.1440
C6BA C 0.7623(3) 0.3638(3) 0.1040(2)
H4BA H 0.7335 0.3803 0.0945
C7BA C 0.7586(2) 0.2164(2) 0.1695(3)
H5BA H 0.7375 0.2207 0.1425
C8BA C 0.8077(2) 0.3841(2) 0.0922(2)
C9BA C 0.7977(2) 0.2494(2) 0.1768(2)
O1FA O 0.94959(17) 0.14884(18) 0.44750(15)
O2FA O 0.9511(2) 0.23110(18) 0.44850(18)
C1FA C 0.8549(2) 0.1972(3) 0.2941(3)
C2FA C 0.9380(2) 0.1902(3) 0.4306(2)
C3FA C 0.8935(3) 0.1491(3) 0.3598(3)
H1FA H 0.9019 0.1184 0.3732
C4FA C 0.8706(3) 0.2413(3) 0.3195(3)
H2FA H 0.8636 0.2723 0.3061
C5FA C 0.8663(3) 0.1512(3) 0.3149(2)
H3FA H 0.8560 0.1221 0.2994
C6FA C 0.8960(2) 0.2377(3) 0.3638(3)
H4FA H 0.9055 0.2665 0.3803
C7FA C 0.8305(3) 0.2414(2) 0.2164(2)
H5FA H 0.8575 0.2625 0.2207
C8FA C 0.9078(2) 0.1923(2) 0.3841(2)
C9FA C 0.8232(2) 0.2023(2) 0.2494(2)
Cu1A_2 Cu 0.14409(5) -0.5000 0.0000
Cu1B Cu 0.0000 0.14409(5) -0.5000
Cu1B_2 Cu 0.0000 0.14409(5) 0.5000
Cu1B_3 Cu 1.0000 0.14409(5) 0.5000
Cu1C Cu 0.0000 -0.14409(5) 0.5000
Cu1F Cu 0.85591(5) 0.5000 0.0000
Cu2A_2 Cu 0.24049(6) -0.5000 0.0000
Cu2B Cu 0.0000 0.24049(6) -0.5000
Cu2B_2 Cu 0.0000 0.24049(6) 0.5000
Cu2B_3 Cu 1.0000 0.24049(6) 0.5000
Cu2C Cu 0.0000 -0.24049(6) 0.5000
Cu2F Cu 0.75951(6) 0.5000 0.0000
O1D O 0.14884(18) 0.55250(15) -0.05041(17)
O1I O 0.55250(15) -0.05041(17) 0.14884(18)
O1J O 0.44750(15) -0.05041(17) -0.14884(18)
O1K O 0.55250(15) 0.05041(17) -0.14884(18)
O1X O 0.55250(15) -0.05041(17) -0.14884(18)
O1EA_2 O 0.14884(18) 0.55250(15) 0.05041(17)
O2D O 0.23110(18) 0.55150(18) -0.0489(2)
O2I O 0.55150(18) -0.0489(2) 0.23110(18)
O2J O 0.44850(18) -0.0489(2) -0.23110(18)
O2K O 0.55150(18) 0.0489(2) -0.23110(18)
O2X O 0.55150(18) -0.0489(2) -0.23110(18)
O2EA_2 O 0.23110(18) 0.55150(18) 0.0489(2)
loop_
_geom_bond_atom_site_label_1
_geom_bond_atom_site_label_2
_geom_bond_site_symmetry_1
_geom_bond_site_symmetry_2
Cu1 Cu2 1_555 1_555
Cu2 O2 1_555 1_555
O1 Cu1 1_555 1_555
O2 C2 1_555 1_555
C1 C4 1_555 1_555
C2 O1 1_555 1_555
C3 H1 1_555 1_555
C4 H2 1_555 1_555
C5 C1 1_555 1_555
H3 C5 1_555 1_555
C6 C4 1_555 1_555
H4 C6 1_555 1_555
C7 H5 1_555 1_555
C8 C2 1_555 1_555
C9 C1 1_555 1_555
O3 Cu2 1_555 1_555
O4 Cu1 1_555 1_555
O1A C2A 1_555 1_555
O2A C2A 1_555 1_555
C1A C4A 1_555 1_555
C2A C8A 1_555 1_555
C3A H1A 1_555 1_555
C4A H2A 1_555 1_555
C5A C1A 1_555 1_555
H3A C5A 1_555 1_555
C6A C4A 1_555 1_555
H4A C6A 1_555 1_555
C7A C9 1_555 1_555
H5A C7A 1_555 1_555
C8A C3A 1_555 1_555
C9A C1A 1_555 1_555
O1B C2B 1_555 1_555
O2B C2B 1_555 1_555
C1B C4B 1_555 1_555
C2B C8B 1_555 1_555
C3B H1B 1_555 1_555
C4B H2B 1_555 1_555
C5B C1B 1_555 1_555
H3B C5B 1_555 1_555
C6B C4B 1_555 1_555
H4B C6B 1_555 1_555
C7B C9A 1_555 1_555
H5B C7B 1_555 1_555
C8B C3B 1_555 1_555
C9B C7 1_555 1_555
Cu1A O1A 1_555 1_555
Cu2A O2A 1_555 1_555
O3A Cu2A 1_555 1_555
O4A Cu1A 1_555 1_555
O1AA C2AA 1_555 1_555
O2AA C2AA 1_555 1_555
C1AA C4AA 1_555 1_555
C2AA C8AA 1_555 1_555
C3AA H1AA 1_555 1_555
C4AA H2AA 1_555 1_555
C5AA C1AA 1_555 1_555
H3AA C5AA 1_555 1_555
C6AA C4AA 1_555 1_555
H4AA C6AA 1_555 1_555
C7AA H5AA 1_555 1_555
C8AA C3AA 1_555 1_555
C9AA C1AA 1_555 1_555
O1GA C2GA 1_555 1_555
O2GA C2GA 1_555 1_555
C1GA C4GA 1_555 1_555
C2GA C8GA 1_555 1_555
C3GA H1GA 1_555 1_555
C4GA H2GA 1_555 1_555
C5GA C1GA 1_555 1_555
H3GA C5GA 1_555 1_555
C6GA C4GA 1_555 1_555
H4GA C6GA 1_555 1_555
C7GA C9AA 1_555 1_555
H5GA C7GA 1_555 1_555
C8GA C3GA 1_555 1_555
C9GA C1GA 1_555 1_555
O1DA Cu1A 1_555 1_555
O2DA Cu2A 1_555 1_555
C1DA C4DA 1_555 1_555
C2DA O1DA 1_555 1_555
C3DA H1DA 1_555 1_555
C4DA H2DA 1_555 1_555
C5DA C1DA 1_555 1_555
H3DA C5DA 1_555 1_555
C6DA C4DA 1_555 1_555
H4DA C6DA 1_555 1_555
C7DA C9GA 1_555 1_555
H5DA C7DA 1_555 1_555
C8DA C2DA 1_555 1_555
C9DA C7AA 1_555 1_555
O1CA C2CA 1_555 1_555
O2CA C2CA 1_555 1_555
C1CA C4CA 1_555 1_555
C2CA C8CA 1_555 1_555
C3CA H1CA 1_555 1_555
C4CA H2CA 1_555 1_555
C5CA C1CA 1_555 1_555
H3CA C5CA 1_555 1_555
C6CA C4CA 1_555 1_555
H4CA C6CA 1_555 1_555
C7CA H5CA 1_555 1_555
C8CA C3CA 1_555 1_555
C9CA C1CA 1_555 1_555
O1IA Cu1 1_555 1_555
O2IA Cu2 1_555 1_555
C1IA C4IA 1_555 1_555
C2IA O1IA 1_555 1_555
C3IA H1IA 1_555 1_555
C4IA H2IA 1_555 1_555
C5IA C1IA 1_555 1_555
H3IA C5IA 1_555 1_555
C6IA C4IA 1_555 1_555
H4IA C6IA 1_555 1_555
C7IA C9CA 1_555 1_555
H5IA C7IA 1_555 1_555
C8IA C2IA 1_555 1_555
C9IA C1IA 1_555 1_555
O1EA C2EA 1_555 1_555
O2EA C2EA 1_555 1_555
C1EA C4EA 1_555 1_555
C2EA C8EA 1_555 1_555
C3EA H1EA 1_555 1_555
C4EA H2EA 1_555 1_555
C5EA C1EA 1_555 1_555
H3EA C5EA 1_555 1_555
C6EA C4EA 1_555 1_555
H4EA C6EA 1_555 1_555
C7EA C9IA 1_555 1_555
H5EA C7EA 1_555 1_555
C8EA C3EA 1_555 1_555
C9EA C7CA 1_555 1_555
Cu1J O1GA 1_555 1_555
Cu2J O2GA 1_555 1_555
O3J Cu2J 1_555 1_555
O4J Cu1J 1_555 1_555
O1HA Cu1 1_555 1_555
O2HA Cu2 1_555 1_555
C1HA C4HA 1_555 1_555
C2HA O1HA 1_555 1_555
C3HA H1HA 1_555 1_555
C4HA H2HA 1_555 1_555
C5HA C1HA 1_555 1_555
H3HA C5HA 1_555 1_555
C6HA C4HA 1_555 1_555
H4HA C6HA 1_555 1_555
C7HA H5HA 1_555 1_555
C8HA C2HA 1_555 1_555
C9HA C1HA 1_555 1_555
O1BA C2BA 1_555 1_555
O2BA C2BA 1_555 1_555
C1BA C4BA 1_555 1_555
C2BA C8BA 1_555 1_555
C3BA H1BA 1_555 1_555
C4BA H2BA 1_555 1_555
C5BA C1BA 1_555 1_555
H3BA C5BA 1_555 1_555
C6BA C4BA 1_555 1_555
H4BA C6BA 1_555 1_555
C7BA C9HA 1_555 1_555
H5BA C7BA 1_555 1_555
C8BA C3BA 1_555 1_555
C9BA C1BA 1_555 1_555
O1FA C2FA 1_555 1_555
O2FA C2FA 1_555 1_555
C1FA C4FA 1_555 1_555
C2FA C8FA 1_555 1_555
C3FA H1FA 1_555 1_555
C4FA H2FA 1_555 1_555
C5FA C1FA 1_555 1_555
H3FA C5FA 1_555 1_555
C6FA C4FA 1_555 1_555
H4FA C6FA 1_555 1_555
C7FA C9BA 1_555 1_555
H5FA C7FA 1_555 1_555
C8FA C3FA 1_555 1_555
C9FA C7HA 1_555 1_555
Cu1A_2 O1EA 1_555 1_555
Cu1B O1AA 1_555 1_555
Cu1B_2 O1B 1_555 1_555
Cu1B_3 O1FA 1_555 1_555
Cu1C O1CA 1_555 1_555
Cu1F O1BA 1_555 1_555
Cu2A_2 O2EA 1_555 1_555
Cu2B O2AA 1_555 1_555
Cu2B_2 O2B 1_555 1_555
Cu2B_3 O2FA 1_555 1_555
Cu2C O2CA 1_555 1_555
Cu2F O2BA 1_555 1_555
O1D Cu1A 1_555 1_555
O1I Cu1 1_555 1_555
O1J Cu1J 1_555 1_555
O1K Cu1J 1_555 1_555
O1X Cu1J 1_555 1_555
O1EA_2 Cu1A 1_555 1_555
O2D Cu2A 1_555 1_555
O2I Cu2 1_555 1_555
O2J Cu2J 1_555 1_555
O2K Cu2J 1_555 1_555
O2X Cu2J 1_555 1_555
O2EA_2 Cu2A 1_555 1_555
C3 C5 1_555 1_555
C3 C8 1_555 1_555
C6 C8 1_555 1_555
C7 C9 1_555 1_555
C3A C5A 1_555 1_555
C6A C8A 1_555 1_555
C7A C9A 1_555 1_555
C1B C9B 1_555 1_555
C3B C5B 1_555 1_555
C6B C8B 1_555 1_555
C7B C9B 1_555 1_555
Cu1A Cu2A 1_555 1_555
C3AA C5AA 1_555 1_555
C6AA C8AA 1_555 1_555
C7AA C9AA 1_555 1_555
C3GA C5GA 1_555 1_555
C6GA C8GA 1_555 1_555
C7GA C9GA 1_555 1_555
O2DA C2DA 1_555 1_555
C1DA C9DA 1_555 1_555
C3DA C5DA 1_555 1_555
C3DA C8DA 1_555 1_555
C6DA C8DA 1_555 1_555
C7DA C9DA 1_555 1_555
C3CA C5CA 1_555 1_555
C6CA C8CA 1_555 1_555
C7CA C9CA 1_555 1_555
O2IA C2IA 1_555 1_555
C3IA C5IA 1_555 1_555
C3IA C8IA 1_555 1_555
C6IA C8IA 1_555 1_555
C7IA C9IA 1_555 1_555
C1EA C9EA 1_555 1_555
C3EA C5EA 1_555 1_555
C6EA C8EA 1_555 1_555
C7EA C9EA 1_555 1_555
Cu1J Cu2J 1_555 1_555
O2HA C2HA 1_555 1_555
C3HA C5HA 1_555 1_555
C3HA C8HA 1_555 1_555
C6HA C8HA 1_555 1_555
C7HA C9HA 1_555 1_555
C3BA C5BA 1_555 1_555
C6BA C8BA 1_555 1_555
C7BA C9BA 1_555 1_555
C1FA C9FA 1_555 1_555
C3FA C5FA 1_555 1_555
C6FA C8FA 1_555 1_555
C7FA C9FA 1_555 1_555
Cu1A_2 Cu2A_2 1_555 1_555
Cu1B Cu2B 1_555 1_555
Cu1B_2 Cu2B_2 1_555 1_555
Cu1B_3 Cu2B_3 1_555 1_555
Cu1C Cu2C 1_555 1_555
Cu1F Cu2F 1_555 1_555

#END
