
#######################################################################
#
#                 Cambridge Crystallographic Data Centre
#                                CCDC 
#
#######################################################################
#
# If this CIF has been generated from an entry in the Cambridge 
# Structural Database, then it will include bibliographic, chemical, 
# crystal, experimental, refinement or atomic coordinate data resulting 
# from the CCDC's data processing and validation procedures.
#
#######################################################################

data_QOZPOM
_symmetry_cell_setting           monoclinic
_symmetry_space_group_name_H-M   'P 21/c'
_symmetry_Int_Tables_number      14
_space_group_name_Hall           '-P 2ybc'
loop_
_symmetry_equiv_pos_site_id
_symmetry_equiv_pos_as_xyz
1 x,y,z
2 -x,1/2+y,1/2-z
3 -x,-y,-z
4 x,1/2-y,1/2+z
_cell_length_a                   18.2477(3)
_cell_length_b                   14.1976(2)
_cell_length_c                   10.3265(2)
_cell_angle_alpha                90
_cell_angle_beta                 93.7590(10)
_cell_angle_gamma                90
_cell_volume                     2669.57
loop_
_atom_site_label
_atom_site_type_symbol
_atom_site_fract_x
_atom_site_fract_y
_atom_site_fract_z
Zn1 Zn 0.239270(18) 0.98943(2) 0.21948(3)
N1 N -0.20073(11) 0.58433(15) 0.4167(2)
O1 O 0.17313(10) 1.07394(14) 0.36763(18)
N2 N -0.08845(12) 0.76827(15) 0.5335(2)
H1 H -0.0512 0.7659 0.5920
O2 O -0.14514(11) 0.84439(14) 0.36111(19)
O3 O 0.14459(10) 0.93372(15) 0.2873(2)
N3 N -0.13832(12) 0.69514(15) 0.5155(2)
O4 O 0.31025(12) 0.94316(19) 0.3862(3)
O5 O 0.35131(13) 0.88113(19) 0.6677(2)
N4 N -0.23607(12) 0.60737(17) 0.5280(2)
C1 C 0.01537(14) 0.92636(18) 0.4169(2)
H2 H 0.0258 0.8760 0.3605
C2 C 0.06437(14) 1.00142(18) 0.4335(2)
N5 N 0.26870(14) 0.61978(18) 0.6067(2)
C3 C -0.14259(14) 0.63754(18) 0.4118(2)
H3 H -0.1088 0.6358 0.3457
C4 C -0.10109(13) 0.84447(18) 0.4541(2)
C5 C 0.44531(15) 0.93988(19) 0.5344(3)
N6 N 0.33193(14) 0.72826(18) 0.5218(3)
C6 C 0.13221(14) 1.00324(19) 0.3589(3)
C7 C -0.04866(13) 0.92495(17) 0.4828(2)
C8 C 0.33471(17) 0.6565(2) 0.6055(3)
H4 H 0.3771 0.6355 0.6555
O6 O 0.34601(13) 1.0556(2) 0.2658(3)
C9 C -0.19825(14) 0.6758(2) 0.5835(2)
H5 H -0.2105 0.7075 0.6601
N7 N 0.38880(14) 0.79005(18) 0.5046(3)
H6 H 0.4230 0.7782 0.4506
C10 C 0.51267(15) 0.9381(2) 0.6030(3)
H7 H 0.5210 0.8958 0.6736
N8 N 0.22056(16) 0.6709(2) 0.5244(3)
C11 C 0.43151(16) 1.0016(2) 0.4310(3)
C12 C 0.2603(2) 0.7367(3) 0.4745(3)
H8 H 0.2423 0.7832 0.4144
C13 C 0.38866(16) 0.8705(2) 0.5762(3)
C14 C 0.35763(19) 1.0005(2) 0.3563(4)
N1B N 0.20073(11) 1.41567(15) 0.5833(2)
O1B O -0.17313(10) 0.92606(14) 0.63237(18)
N2B N 0.08845(12) 1.23173(15) 0.4665(2)
H1B H 0.0512 1.2341 0.4080
O2B O 0.14514(11) 1.15561(14) 0.63889(19)
O3B O -0.14459(10) 1.06628(15) 0.7127(2)
N3B N 0.13832(12) 1.30486(15) 0.4845(2)
N4B N 0.23607(12) 1.39263(17) 0.4720(2)
C1B C -0.01537(14) 1.07364(18) 0.5831(2)
H2B H -0.0258 1.1240 0.6395
C2B C -0.06437(14) 0.99858(18) 0.5665(2)
C3B C 0.14259(14) 1.36246(18) 0.5882(2)
H3B H 0.1088 1.3642 0.6543
C4B C 0.10109(13) 1.15553(18) 0.5459(2)
C6B C -0.13221(14) 0.99676(19) 0.6411(3)
C7B C 0.04866(13) 1.07505(17) 0.5172(2)
C9B C 0.19825(14) 1.3242(2) 0.4165(2)
H5B H 0.2105 1.2925 0.3399
O4B O 0.68975(12) 1.05684(19) 0.6138(3)
O5B O 0.64869(13) 1.11887(19) 0.3323(2)
N5B N 0.73130(14) 1.38022(18) 0.3933(2)
C5B C 0.55469(15) 1.06012(19) 0.4656(3)
N6B N 0.66807(14) 1.27174(18) 0.4782(3)
C8B C 0.66529(17) 1.3435(2) 0.3945(3)
H4B H 0.6229 1.3645 0.3445
O6B O 0.65399(13) 0.9444(2) 0.7342(3)
N7B N 0.61120(14) 1.20995(18) 0.4954(3)
H6B H 0.5770 1.2218 0.5494
C10B C 0.48733(15) 1.0619(2) 0.3970(3)
H7B H 0.4790 1.1042 0.3264
N8B N 0.77944(16) 1.3291(2) 0.4756(3)
C11B C 0.56849(16) 0.9984(2) 0.5690(3)
C12B C 0.7397(2) 1.2633(3) 0.5255(3)
H8B H 0.7577 1.2168 0.5856
C13B C 0.61134(16) 1.1295(2) 0.4238(3)
C14B C 0.64237(19) 0.9995(2) 0.6437(4)
Zn1B Zn -0.239270(18) 1.01057(2) 0.78052(3)
Zn1A Zn -0.239270(18) 0.48943(2) 0.28052(3)
Zn1A_2 Zn 0.760730(18) 1.48943(2) 0.28052(3)
Zn1B_2 Zn 0.760730(18) 1.01057(2) 0.78052(3)
Zn1C Zn 0.239270(18) 0.51057(2) 0.71948(3)
Zn1C_2 Zn 0.239270(18) 1.51057(2) 0.71948(3)
N1A N 0.20073(11) 1.08433(15) 0.0833(2)
N1C N -0.20073(11) 0.91567(15) 0.9167(2)
O4B_2 O -0.31025(12) 1.05684(19) 0.6138(3)
N5A N -0.26870(14) 1.11978(18) 0.8933(2)
N5C N 0.26870(14) 0.88022(18) 0.1067(2)
O6B_2 O -0.34601(13) 0.9444(2) 0.7342(3)
O7 O 0.00093(11) 0.80126(15) 0.75168(19)
N9 N 0.10381(13) 0.89308(18) 0.7629(2)
C15 C 0.06361(16) 0.8214(2) 0.7189(3)
H9 H 0.0842 0.7817 0.6568
C16 C 0.07734(19) 0.9561(3) 0.8600(3)
H10 H 0.0256 0.9423 0.8723
H11 H 0.0821 1.0214 0.8311
H12 H 0.1064 0.9471 0.9423
C17 C 0.17608(17) 0.9138(3) 0.7162(4)
H13 H 0.1894 0.8644 0.6558
H14 H 0.2127 0.9160 0.7900
H15 H 0.1745 0.9747 0.6716
O8 O 0.36869(15) 1.0005(2) 0.8850(3)
H16 H 0.362(3) 0.952(4) 0.813(6)
H17 H 0.324(4) 1.022(4) 0.919(6)
O9 O 0.47387(12) 0.79654(18) 0.2927(2)
N10 N 0.59297(15) 0.7879(2) 0.3714(3)
C18 C 0.53824(17) 0.8227(2) 0.2951(3)
H18 H 0.5497 0.8719 0.2374
C19 C 0.6679(2) 0.8223(3) 0.3666(4)
H19 H 0.6686 0.8757 0.3066
H20 H 0.6992 0.7718 0.3366
H21 H 0.6863 0.8426 0.4535
C20 C 0.5822(2) 0.7118(3) 0.4604(4)
H22 H 0.5302 0.6941 0.4557
H23 H 0.5973 0.7321 0.5489
H24 H 0.6118 0.6575 0.4372
O10 O 0.4800(3) 0.9614(6) 1.0616(7)
loop_
_geom_bond_atom_site_label_1
_geom_bond_atom_site_label_2
_geom_bond_site_symmetry_1
_geom_bond_site_symmetry_2
Zn1 O1 1_555 1_555
N1 N4 1_555 1_555
O1 C6 1_555 1_555
N2 H1 1_555 1_555
O2 C4 1_555 1_555
O3 Zn1 1_555 1_555
N3 N2 1_555 1_555
O4 Zn1 1_555 1_555
O5 C13 1_555 1_555
N4 C9 1_555 1_555
C1 H2 1_555 1_555
C2 C1 1_555 1_555
N5 C8 1_555 1_555
C3 N1 1_555 1_555
H3 C3 1_555 1_555
C4 N2 1_555 1_555
C5 C10 1_555 1_555
N6 C8 1_555 1_555
C6 O3 1_555 1_555
C7 C1 1_555 1_555
C8 H4 1_555 1_555
O6 Zn1 1_555 1_555
C9 N3 1_555 1_555
H5 C9 1_555 1_555
N7 N6 1_555 1_555
H6 N7 1_555 1_555
C10 H7 1_555 1_555
N8 N5 1_555 1_555
C11 C5 1_555 1_555
C12 N6 1_555 1_555
H8 C12 1_555 1_555
C13 C5 1_555 1_555
C14 O4 1_555 1_555
O7 C15 1_555 1_555
N9 C15 1_555 1_555
C15 H9 1_555 1_555
C16 N9 1_555 1_555
H10 C16 1_555 1_555
H11 C16 1_555 1_555
H12 C16 1_555 1_555
C17 N9 1_555 1_555
H13 C17 1_555 1_555
H14 C17 1_555 1_555
H15 C17 1_555 1_555
O8 H16 1_555 1_555
H17 O8 1_555 1_555
O9 C18 1_555 1_555
N10 C18 1_555 1_555
C18 H18 1_555 1_555
C19 N10 1_555 1_555
H19 C19 1_555 1_555
H20 C19 1_555 1_555
H21 C19 1_555 1_555
C20 N10 1_555 1_555
H22 C20 1_555 1_555
H23 C20 1_555 1_555
H24 C20 1_555 1_555
N1B N4B 1_555 1_555
O1B C6B 1_555 1_555
N2B H1B 1_555 1_555
O2B C4B 1_555 1_555
O3B C6B 1_555 1_555
N3B N2B 1_555 1_555
N4B C9B 1_555 1_555
C1B H2B 1_555 1_555
C2B C7 1_555 1_555
C3B N1B 1_555 1_555
H3B C3B 1_555 1_555
C4B N2B 1_555 1_555
C6B C2B 1_555 1_555
C7B C2 1_555 1_555
C9B N3B 1_555 1_555
H5B C9B 1_555 1_555
O4B C14B 1_555 1_555
O5B C13B 1_555 1_555
N5B C8B 1_555 1_555
C5B C10B 1_555 1_555
N6B C8B 1_555 1_555
C8B H4B 1_555 1_555
O6B C14B 1_555 1_555
N7B N6B 1_555 1_555
H6B N7B 1_555 1_555
C10B C11 1_555 1_555
H7B C10B 1_555 1_555
N8B N5B 1_555 1_555
C11B C10 1_555 1_555
C12B N6B 1_555 1_555
H8B C12B 1_555 1_555
C13B C5B 1_555 1_555
C14B C11B 1_555 1_555
Zn1B O1B 1_555 1_555
Zn1A N1 1_555 1_555
Zn1A_2 N5B 1_555 1_555
Zn1B_2 O4B 1_555 1_555
Zn1C N5 1_555 1_555
Zn1C_2 N1B 1_555 1_555
N1A Zn1 1_555 1_555
N1C Zn1B 1_555 1_555
O4B_2 Zn1B 1_555 1_555
N5A Zn1B 1_555 1_555
N5C Zn1 1_555 1_555
O6B_2 Zn1B 1_555 1_555
N3 C3 1_555 1_555
C2 C6 1_555 1_555
C4 C7 1_555 1_555
O6 C14 1_555 1_555
N7 C13 1_555 1_555
N8 C12 1_555 1_555
C11 C14 1_555 1_555
O3B Zn1B 1_555 1_555
N3B C3B 1_555 1_555
C1B C2B 1_555 1_555
C1B C7B 1_555 1_555
C4B C7B 1_555 1_555
C5B C11B 1_555 1_555
O6B Zn1B_2 1_555 1_555
N7B C13B 1_555 1_555
N8B C12B 1_555 1_555

#END
