
#######################################################################
#
#                 Cambridge Crystallographic Data Centre
#                                CCDC 
#
#######################################################################
#
# If this CIF has been generated from an entry in the Cambridge 
# Structural Database, then it will include bibliographic, chemical, 
# crystal, experimental, refinement or atomic coordinate data resulting 
# from the CCDC's data processing and validation procedures.
#
#######################################################################

data_QUFTAM
_symmetry_cell_setting           monoclinic
_symmetry_space_group_name_H-M   'C 2/c'
_symmetry_Int_Tables_number      15
_space_group_name_Hall           '-C 2yn'
loop_
_symmetry_equiv_pos_site_id
_symmetry_equiv_pos_as_xyz
1 x,y,z
2 -x,y,1/2-z
3 1/2+x,1/2+y,z
4 1/2-x,1/2+y,1/2-z
5 -x,-y,-z
6 x,-y,1/2+z
7 1/2-x,1/2-y,-z
8 1/2+x,1/2-y,1/2+z
_cell_length_a                   13.429(3)
_cell_length_b                   18.861
_cell_length_c                   11.234(3)
_cell_angle_alpha                90
_cell_angle_beta                 107.60(4)
_cell_angle_gamma                90
_cell_volume                     2712.21
loop_
_atom_site_label
_atom_site_type_symbol
_atom_site_fract_x
_atom_site_fract_y
_atom_site_fract_z
Cu1 Cu 0.0295(1) 0.1948(1) -0.0193(1)
Na1 Na 0.0000 0.1418(2) 0.2500
Na2 Na 0.0000 -0.0493(2) 0.2500
S1 S -0.1363(1) 0.0512(1) -0.0163(1)
O1 O -0.0856(3) 0.0458(2) 0.1176(4)
O2 O -0.0662(3) 0.0793(2) -0.0817(4)
O3 O -0.1848(3) -0.0149(2) -0.0715(5)
O4 O -0.3146(4) 0.1881(3) 0.2696(4)
O5 O -0.4352(3) 0.2601(2) 0.1610(4)
O6 O -0.4598(3) 0.2712(2) -0.0918(4)
O7 O 0.1220(3) 0.1415(2) 0.1227(4)
O8 O 0.1121(3) 0.1626(3) -0.1306(4)
C1 C -0.2365(4) 0.1140(3) -0.0361(5)
C2 C -0.2685(4) 0.1352(3) 0.0612(5)
C3 C -0.3445(4) 0.1885(3) 0.0504(5)
C4 C -0.3914(4) 0.2198(3) -0.0693(6)
C5 C -0.3599(4) 0.1930(3) -0.1716(5)
C6 C -0.2842(5) 0.1417(3) -0.1559(6)
C7 C -0.3659(4) 0.2139(3) 0.1659(5)
H1 H 0.1809 0.1585 0.1419
H2 H 0.1287 0.0928 0.0997
H3 H 0.1725 0.1548 -0.0885
H4 H 0.1101 0.1920 -0.1801
H5 H -0.2393 0.1137 0.1385
H6 H -0.3917 0.2108 -0.2513
H7 H -0.2648 0.1256 -0.2239
Cu1A Cu -0.0295(1) 0.1948(1) 0.5193(1)
O2A O 0.0662(3) 0.0793(2) 0.5817(4)
Na2D Na 0.0000 0.0493(2) 0.7500
O2E O -0.0662(3) -0.0793(2) 0.4183(4)
O1A O 0.0856(3) 0.0458(2) 0.3824(4)
Na2D_2 Na 0.0000 0.0493(2) -0.2500
Cu1D Cu -0.0295(1) -0.1948(1) 0.0193(1)
O2D O 0.0662(3) -0.0793(2) 0.0817(4)
O8D O -0.1121(3) -0.1626(3) 0.1306(4)
Na1F Na -0.5000 0.3582(2) -0.2500
Cu1F Cu -0.5295(1) 0.3052(1) 0.0193(1)
O6G O 0.0402(3) 0.2288(2) 0.4082(4)
O5G O 0.0648(3) 0.2399(2) 0.6610(4)
Na1F_2 Na 0.5000 0.3582(2) 0.7500
Cu1G Cu 0.5295(1) 0.3052(1) 0.4807(1)
O7A O -0.1220(3) 0.1415(2) 0.3773(4)
H1A H -0.1809 0.1585 0.3581
H2A H -0.1287 0.0928 0.4003
O8A O -0.1121(3) 0.1626(3) 0.6306(4)
H3A H -0.1725 0.1548 0.5885
H4A H -0.1101 0.1920 0.6801
H3D H -0.1725 -0.1548 0.0885
H4D H -0.1101 -0.1920 0.1801
O8E O 0.1121(3) -0.1626(3) 0.3694(4)
S1A S 0.1363(1) 0.0512(1) 0.5163(1)
O5F O -0.0648(3) 0.2399(2) -0.1610(4)
O6F O -0.0402(3) 0.2288(2) 0.0918(4)
O5A O 0.4352(3) 0.2601(2) 0.3390(4)
O6A O 0.4598(3) 0.2712(2) 0.5918(4)
H3E H 0.1725 -0.1548 0.4115
H4E H 0.1101 -0.1920 0.3199
O3A O 0.1848(3) -0.0149(2) 0.5715(5)
C1A C 0.2365(4) 0.1140(3) 0.5361(5)
C7A C 0.3659(4) 0.2139(3) 0.3341(5)
C4A C 0.3914(4) 0.2198(3) 0.5693(6)
C2A C 0.2685(4) 0.1352(3) 0.4388(5)
C6A C 0.2842(5) 0.1417(3) 0.6559(6)
O4A O 0.3146(4) 0.1881(3) 0.2304(4)
C3A C 0.3445(4) 0.1885(3) 0.4496(5)
C5A C 0.3599(4) 0.1930(3) 0.6716(5)
H5A H 0.2393 0.1137 0.3615
H7A H 0.2648 0.1256 0.7239
H6A H 0.3917 0.2108 0.7513
O9 O -0.6731(4) 0.1860(4) -0.0137(5)
O10 O -0.9045(13) 0.4745(8) 0.7360(20)
O11 O -0.1081(17) 0.4440(9) 0.4739(18)
loop_
_geom_bond_atom_site_label_1
_geom_bond_atom_site_label_2
_geom_bond_site_symmetry_1
_geom_bond_site_symmetry_2
Cu1 O2 1_555 1_555
Na1 O1 1_555 1_555
Na2 O1 1_555 1_555
S1 O1 1_555 1_555
O2 S1 1_555 1_555
O3 S1 1_555 1_555
O4 C7 1_555 1_555
O5 C7 1_555 1_555
O6 C4 1_555 1_555
O7 Cu1 1_555 1_555
O8 Cu1 1_555 1_555
C1 S1 1_555 1_555
C2 C1 1_555 1_555
C3 C2 1_555 1_555
C4 C3 1_555 1_555
C5 C4 1_555 1_555
C6 C1 1_555 1_555
C7 C3 1_555 1_555
H1 O7 1_555 1_555
H2 O7 1_555 1_555
H3 O8 1_555 1_555
H4 O8 1_555 1_555
H5 C2 1_555 1_555
H6 C5 1_555 1_555
H7 C6 1_555 1_555
Cu1A O2A 1_555 1_555
O2A Na2D 1_555 1_555
Na2D O8A 1_555 1_555
O2E Na2 1_555 1_555
O1A Na1 1_555 1_555
Na2D_2 O2 1_555 1_555
Cu1D O2D 1_555 1_555
O2D Na2 1_555 1_555
O8D Na2 1_555 1_555
Na1F O6 1_555 1_555
Cu1F O5 1_555 1_555
O6G Na1 1_555 1_555
O5G Cu1A 1_555 1_555
Na1F_2 O6A 1_555 1_555
Cu1G O5A 1_555 1_555
O7A Na1 1_555 1_555
H1A O7A 1_555 1_555
H2A O7A 1_555 1_555
O8A Cu1A 1_555 1_555
H3A O8A 1_555 1_555
H4A O8A 1_555 1_555
H3D O8D 1_555 1_555
H4D O8D 1_555 1_555
O8E Na2 1_555 1_555
S1A O2A 1_555 1_555
O5F Cu1 1_555 1_555
O6F Cu1 1_555 1_555
O5A C7A 1_555 1_555
O6A Cu1G 1_555 1_555
H3E O8E 1_555 1_555
H4E O8E 1_555 1_555
O3A S1A 1_555 1_555
C1A S1A 1_555 1_555
C7A O4A 1_555 1_555
C4A O6A 1_555 1_555
C2A C1A 1_555 1_555
C6A C1A 1_555 1_555
C3A C7A 1_555 1_555
C5A C4A 1_555 1_555
H5A C2A 1_555 1_555
H7A C6A 1_555 1_555
H6A C5A 1_555 1_555
Na1 O6F 1_555 1_555
Na1 O7 1_555 1_555
Na2 O1A 1_555 1_555
O6 Cu1F 1_555 1_555
O8 Na2D_2 1_555 1_555
C5 C6 1_555 1_555
Cu1A O7A 1_555 1_555
Cu1A O6G 1_555 1_555
O1A S1A 1_555 1_555
Cu1D O8D 1_555 1_555
C4A C3A 1_555 1_555
C2A C3A 1_555 1_555
C6A C5A 1_555 1_555

#END
