
#######################################################################
#
#                 Cambridge Crystallographic Data Centre
#                                CCDC 
#
#######################################################################
#
# If this CIF has been generated from an entry in the Cambridge 
# Structural Database, then it will include bibliographic, chemical, 
# crystal, experimental, refinement or atomic coordinate data resulting 
# from the CCDC's data processing and validation procedures.
#
#######################################################################

data_QUGBUQ
_symmetry_cell_setting           monoclinic
_symmetry_space_group_name_H-M   'C 2/c'
_symmetry_Int_Tables_number      15
_space_group_name_Hall           '-C 2yn'
loop_
_symmetry_equiv_pos_site_id
_symmetry_equiv_pos_as_xyz
1 x,y,z
2 -x,y,1/2-z
3 1/2+x,1/2+y,z
4 1/2-x,1/2+y,1/2-z
5 -x,-y,-z
6 x,-y,1/2+z
7 1/2-x,1/2-y,-z
8 1/2+x,1/2-y,1/2+z
_cell_length_a                   42.914(9)
_cell_length_b                   8.7726(18)
_cell_length_c                   12.182(2)
_cell_angle_alpha                90
_cell_angle_beta                 92.22(3)
_cell_angle_gamma                90
_cell_volume                     4582.68
loop_
_atom_site_label
_atom_site_type_symbol
_atom_site_fract_x
_atom_site_fract_y
_atom_site_fract_z
Ag1 Ag 0.163921(15) 0.20269(7) 0.03689(5)
Ag2 Ag 0.087030(16) -0.34922(8) -0.43103(5)
C1 C 0.21177(16) 0.0688(8) 0.2222(6)
H1 H 0.2079 0.1492 0.2696
C2 C 0.20965(19) -0.0874(9) 0.0923(6)
H2 H 0.2031 -0.1363 0.0278
C3 C 0.25925(18) -0.0329(9) 0.3224(7)
H3 H 0.2614 0.0686 0.3533
H4 H 0.2788 -0.0588 0.2893
C4 C 0.25358(15) -0.1452(7) 0.4149(6)
C5 C 0.23186(15) -0.2618(8) 0.4048(6)
H5 H 0.2196 -0.2707 0.3406
C6 C 0.27173(17) -0.1340(8) 0.5101(6)
H6 H 0.2865 -0.0566 0.5178
C7 C 0.15030(17) 0.4801(9) -0.3795(6)
C8 C 0.14467(17) 0.3368(8) -0.3154(6)
C9 C 0.15405(16) 0.3278(8) -0.2052(6)
H7 H 0.1641 0.4113 -0.1729
C10 C 0.13428(18) 0.0857(9) -0.1912(6)
H8 H 0.1306 0.0000 -0.1487
C11 C 0.12395(16) 0.0838(8) -0.2998(6)
C12 C 0.12980(17) 0.2123(9) -0.3613(6)
H9 H 0.1236 0.2144 -0.4353
C13 C 0.1073(2) -0.0540(11) -0.3480(8)
C14 C 0.08605(16) -0.4855(9) -0.1732(6)
H10 H 0.0987 -0.4063 -0.1470
C15 C 0.05842(19) -0.6812(9) -0.1775(7)
H11 H 0.0475 -0.7683 -0.1583
C16 C 0.0455(2) -0.6879(9) -0.3816(7)
H12 H 0.0624 -0.7080 -0.4302
H13 H 0.0356 -0.7846 -0.3662
C17 C 0.02214(17) -0.5870(8) -0.4403(6)
C18 C 0.01118(18) -0.4568(9) -0.3973(6)
H14 H 0.0183 -0.4247 -0.3281
C19 C 0.01123(18) -0.6311(9) -0.5420(7)
H15 H 0.0187 -0.7207 -0.5723
N1 N 0.19520(14) 0.0384(7) 0.1314(5)
N2 N 0.23385(17) -0.1342(7) 0.1537(5)
N3 N 0.23453(14) -0.0305(6) 0.2366(5)
N4 N 0.14933(15) 0.2040(7) -0.1431(5)
N5 N 0.07681(14) -0.4994(7) -0.2770(5)
N6 N 0.07534(14) -0.5984(8) -0.1081(5)
N7 N 0.05879(14) -0.6254(7) -0.2779(5)
O1 O 0.14246(19) 0.4814(8) -0.4787(5)
O2 O 0.16175(16) 0.5930(7) -0.3297(5)
O3 O 0.1050(2) -0.0684(10) -0.4473(6)
O4 O 0.0977(2) -0.1488(8) -0.2865(8)
Ag1F Ag 0.336079(15) -0.70269(7) 0.96311(5)
Ag1E Ag 0.163921(15) 0.79731(7) -0.46311(5)
Ag1E_2 Ag 0.163921(15) 0.79731(7) 0.53689(5)
Ag2E Ag 0.087030(16) 1.34922(8) 0.06897(5)
Ag2E_2 Ag 0.087030(16) -0.65078(8) 0.06897(5)
Ag2A Ag -0.087030(16) -0.34922(8) -1.06897(5)
Ag2D Ag -0.087030(16) -0.65078(8) -0.56897(5)
C1F C 0.28823(16) -0.5688(8) 0.7778(6)
H1F H 0.2921 -0.6492 0.7304
C2F C 0.29035(19) -0.4126(9) 0.9077(6)
H2F H 0.2969 -0.3637 0.9722
C3F C 0.24075(18) -0.4671(9) 0.6776(7)
H3F H 0.2386 -0.5686 0.6467
H4F H 0.2212 -0.4412 0.7107
C4F C 0.24642(15) -0.3548(7) 0.5851(6)
C5F C 0.26814(15) -0.2382(8) 0.5952(6)
H5F H 0.2804 -0.2293 0.6594
C6F C 0.22827(17) -0.3660(8) 0.4899(6)
H6F H 0.2135 -0.4434 0.4822
C7E C 0.15030(17) 0.5199(9) 0.1205(6)
C8E C 0.14467(17) 0.6632(8) 0.1846(6)
C9E C 0.15405(16) 0.6722(8) 0.2948(6)
H7E H 0.1641 0.5887 0.3271
C10E C 0.13428(18) 0.9143(9) 0.3088(6)
H8E H 0.1306 1.0000 0.3513
C11E C 0.12395(16) 0.9162(8) 0.2002(6)
C12E C 0.12980(17) 0.7877(9) 0.1387(6)
H9E H 0.1236 0.7856 0.0647
C13E C 0.1073(2) 1.0540(11) 0.1520(8)
C14D C -0.08605(16) -0.5145(9) -0.8268(6)
H10D H -0.0987 -0.5937 -0.8530
C15D C -0.05842(19) -0.3188(9) -0.8225(7)
H11D H -0.0475 -0.2317 -0.8417
C16D C -0.0455(2) -0.3121(9) -0.6184(7)
H12D H -0.0624 -0.2920 -0.5698
H13D H -0.0356 -0.2154 -0.6338
C17D C -0.02214(17) -0.4130(8) -0.5597(6)
C18D C -0.01118(18) -0.5432(9) -0.6027(6)
H14D H -0.0183 -0.5753 -0.6719
C19D C -0.01123(18) -0.3689(9) -0.4580(7)
H15D H -0.0187 -0.2793 -0.4277
N1F N 0.30480(14) -0.5384(7) 0.8686(5)
N2F N 0.26615(17) -0.3658(7) 0.8463(5)
N3F N 0.26547(14) -0.4695(6) 0.7634(5)
N4E N 0.14933(15) 0.7960(7) 0.3569(5)
N4F N 0.35067(15) -0.7040(7) 1.1431(5)
N5D N -0.07681(14) -0.5006(7) -0.7230(5)
N5E N 0.07681(14) 1.4994(7) 0.2230(5)
N6D N -0.07534(14) -0.4016(8) -0.8919(5)
N6E N 0.07534(14) -0.4016(8) -0.6081(5)
N6_2 N 0.07534(14) 1.4016(8) -0.1081(5)
N7D N -0.05879(14) -0.3746(7) -0.7221(5)
O1E O 0.14246(19) 0.5186(8) 0.0213(5)
O2E O 0.16175(16) 0.4070(7) 0.1703(5)
O2C O 0.33825(16) -0.9070(7) 0.8297(5)
O3E O 0.1050(2) 1.0684(10) 0.0527(6)
O4E O 0.0977(2) 1.1488(8) 0.2135(8)
O5 O 0.0696(3) 0.0898(16) 0.4055(10)
O6 O 0.1692(2) 0.7294(10) -0.1164(7)
H16 H 0.1648(13) 0.707(7) -0.169(5)
O7 O 0.0115(4) 0.979(2) 0.3731(15)
loop_
_geom_bond_atom_site_label_1
_geom_bond_atom_site_label_2
_geom_bond_site_symmetry_1
_geom_bond_site_symmetry_2
Ag1 N1 1_555 1_555
Ag2 N5 1_555 1_555
C1 H1 1_555 1_555
C2 H2 1_555 1_555
C3 H3 1_555 1_555
H4 C3 1_555 1_555
C4 C3 1_555 1_555
C5 C4 1_555 1_555
H5 C5 1_555 1_555
C6 C4 1_555 1_555
H6 C6 1_555 1_555
C7 C8 1_555 1_555
C8 C9 1_555 1_555
C9 H7 1_555 1_555
C10 H8 1_555 1_555
C11 C10 1_555 1_555
C12 C8 1_555 1_555
H9 C12 1_555 1_555
C13 C11 1_555 1_555
C14 H10 1_555 1_555
C15 H11 1_555 1_555
C16 H12 1_555 1_555
H13 C16 1_555 1_555
C17 C16 1_555 1_555
C18 C17 1_555 1_555
H14 C18 1_555 1_555
C19 C17 1_555 1_555
H15 C19 1_555 1_555
N1 C1 1_555 1_555
N2 C2 1_555 1_555
N3 C1 1_555 1_555
N4 Ag1 1_555 1_555
N5 C14 1_555 1_555
N6 C14 1_555 1_555
N7 C15 1_555 1_555
O1 C7 1_555 1_555
O2 C7 1_555 1_555
O3 Ag2 1_555 1_555
O4 Ag2 1_555 1_555
O6 H16 1_555 1_555
Ag1F N1F 1_555 1_555
Ag1E O2 1_555 1_555
Ag1E_2 N4E 1_555 1_555
Ag2E N5E 1_555 1_555
Ag2E_2 N6 1_555 1_555
Ag2A N6D 1_555 1_555
Ag2D N5D 1_555 1_555
C1F H1F 1_555 1_555
C2F H2F 1_555 1_555
C3F H3F 1_555 1_555
H4F C3F 1_555 1_555
C4F C3F 1_555 1_555
C5F C6 1_555 1_555
H5F C5F 1_555 1_555
C6F C5 1_555 1_555
H6F C6F 1_555 1_555
C7E C8E 1_555 1_555
C8E C9E 1_555 1_555
C9E H7E 1_555 1_555
C10E H8E 1_555 1_555
C11E C10E 1_555 1_555
C12E C8E 1_555 1_555
H9E C12E 1_555 1_555
C13E C11E 1_555 1_555
C14D H10D 1_555 1_555
C15D H11D 1_555 1_555
C16D H12D 1_555 1_555
H13D C16D 1_555 1_555
C17D C16D 1_555 1_555
C18D C19 1_555 1_555
H14D C18D 1_555 1_555
C19D C18 1_555 1_555
H15D C19D 1_555 1_555
N1F C1F 1_555 1_555
N2F C2F 1_555 1_555
N3F C1F 1_555 1_555
N4E C9E 1_555 1_555
N4F Ag1F 1_555 1_555
N5D C14D 1_555 1_555
N6D C14D 1_555 1_555
N6E Ag2 1_555 1_555
N6_2 Ag2E 1_555 1_555
N7D C15D 1_555 1_555
O1E C7E 1_555 1_555
O2E Ag1 1_555 1_555
O2C Ag1F 1_555 1_555
O3E Ag2E 1_555 1_555
O4E Ag2E 1_555 1_555
C2 N1 1_555 1_555
C3 N3 1_555 1_555
C9 N4 1_555 1_555
C10 N4 1_555 1_555
C11 C12 1_555 1_555
C13 O3 1_555 1_555
C13 O4 1_555 1_555
C15 N6 1_555 1_555
C16 N7 1_555 1_555
N2 N3 1_555 1_555
N5 N7 1_555 1_555
C2F N1F 1_555 1_555
C3F N3F 1_555 1_555
C4F C5F 1_555 1_555
C4F C6F 1_555 1_555
C7E O2E 1_555 1_555
C10E N4E 1_555 1_555
C11E C12E 1_555 1_555
C13E O3E 1_555 1_555
C13E O4E 1_555 1_555
C15D N6D 1_555 1_555
C16D N7D 1_555 1_555
C17D C18D 1_555 1_555
C17D C19D 1_555 1_555
N2F N3F 1_555 1_555
N5D N7D 1_555 1_555

#END
