
#######################################################################
#
#                 Cambridge Crystallographic Data Centre
#                                CCDC 
#
#######################################################################
#
# If this CIF has been generated from an entry in the Cambridge 
# Structural Database, then it will include bibliographic, chemical, 
# crystal, experimental, refinement or atomic coordinate data resulting 
# from the CCDC's data processing and validation procedures.
#
#######################################################################

data_QUHYIB01
_symmetry_cell_setting           monoclinic
_symmetry_space_group_name_H-M   'C 2/m'
_symmetry_Int_Tables_number      12
_space_group_name_Hall           '-C 2y'
loop_
_symmetry_equiv_pos_site_id
_symmetry_equiv_pos_as_xyz
1 x,y,z
2 -x,y,-z
3 1/2+x,1/2+y,z
4 1/2-x,1/2+y,-z
5 -x,-y,-z
6 x,-y,z
7 1/2-x,1/2-y,-z
8 1/2+x,1/2-y,z
_cell_length_a                   22.130(4)
_cell_length_b                   7.774(1)
_cell_length_c                   6.655(2)
_cell_angle_alpha                90
_cell_angle_beta                 105.28(2)
_cell_angle_gamma                90
_cell_volume                     1104.44
loop_
_atom_site_label
_atom_site_type_symbol
_atom_site_fract_x
_atom_site_fract_y
_atom_site_fract_z
N1 N 0.455(2) 0.0000 0.650(6)
O6 O -0.070(1) 0.5000 -0.699(4)
La1 La 0.3469(2) 0.5000 -0.1535(6)
O1 O 0.3511(9) 0.373(2) -0.524(2)
O2 O 0.3470(9) 0.315(2) -0.835(2)
O3 O 0.269(2) 0.0000 -0.495(2)
O4 O 0.304(2) 0.182(4) -0.250(6)
O5 O 0.4470(5) 0.334(2) -0.052(3)
C1 C 0.3720(8) 0.4015(9) -0.681(1)
C2 C 0.295(3) 0.1894(9) -0.427(2)
C3 C 0.5000 0.4015(8) 0.0000
O7 O 0.245(2) 0.5000 -0.014(4)
O8 O 0.330(2) 0.211(5) -0.143(4)
C1E C 0.3720(8) 0.5985(9) -0.681(1)
O1E O 0.3511(9) 0.627(2) -0.524(2)
O2E O 0.3470(9) 0.685(2) -0.835(2)
C2E C 0.295(3) -0.1894(9) -0.427(2)
O4E O 0.304(2) -0.182(4) -0.250(6)
O8E O 0.330(2) -0.211(5) -0.143(4)
O5A O 0.5530(5) 0.334(2) 0.052(3)
C3D C 0.5000 0.5985(8) 0.0000
O5D O 0.5530(5) 0.666(2) 0.052(3)
O5E O 0.4470(5) 0.666(2) -0.052(3)
O1_2 O 0.3511(9) 0.373(2) 0.476(2)
O2_2 O 0.3470(9) 0.315(2) 0.165(2)
C1_2 C 0.3720(8) 0.4015(9) 0.319(1)
C1E_2 C 0.3720(8) 0.5985(9) 0.319(1)
O1E_2 O 0.3511(9) 0.627(2) 0.476(2)
O2E_2 O 0.3470(9) 0.685(2) 0.165(2)
O3E O 0.269(2) 1.0000 -0.495(2)
O4E_2 O 0.304(2) 0.818(4) -0.250(6)
C2E_2 C 0.295(3) 0.8106(9) -0.427(2)
O8E_2 O 0.330(2) 0.789(5) -0.143(4)
C2_2 C 0.295(3) 1.1894(9) -0.427(2)
O4_2 O 0.304(2) 1.182(4) -0.250(6)
O8_2 O 0.330(2) 1.211(5) -0.143(4)
La1_2 La 0.3469(2) 0.5000 0.8465(6)
La1_3 La 0.3469(2) 0.5000 -1.1535(6)
La1_4 La 0.3469(2) -0.5000 -0.1535(6)
La1A La 0.6531(2) 0.5000 0.1535(6)
La1_5 La 0.3469(2) 1.5000 -0.1535(6)
O2_3 O 0.3470(9) 0.315(2) 1.165(2)
O2E_3 O 0.3470(9) 0.685(2) 1.165(2)
O4_3 O 0.304(2) 0.182(4) 0.750(6)
O4E_3 O 0.304(2) 0.818(4) 0.750(6)
O5_2 O 0.4470(5) 0.334(2) 0.948(3)
O5E_2 O 0.4470(5) 0.666(2) 0.948(3)
O7_2 O 0.245(2) 0.5000 0.986(4)
O8_3 O 0.330(2) 0.211(5) 0.857(4)
O8E_3 O 0.330(2) 0.789(5) 0.857(4)
loop_
_geom_bond_atom_site_label_1
_geom_bond_atom_site_label_2
_geom_bond_site_symmetry_1
_geom_bond_site_symmetry_2
La1 O1 1_555 1_555
O1 C1 1_555 1_555
O2 C1 1_555 1_555
O3 C2 1_555 1_555
O4 La1 1_555 1_555
O5 La1 1_555 1_555
C1 C1E 1_555 1_555
C2 O4 1_555 1_555
C3 O5 1_555 1_555
O7 La1 1_555 1_555
O8 La1 1_555 1_555
C1E O1E 1_555 1_555
O1E La1 1_555 1_555
O2E C1E 1_555 1_555
C2E O3 1_555 1_555
O4E C2E 1_555 1_555
O8E O4E 1_555 1_555
O5A C3 1_555 1_555
C3D C3 1_555 1_555
O5D C3D 1_555 1_555
O5E La1 1_555 1_555
O1_2 C1_2 1_555 1_555
O2_2 La1 1_555 1_555
C1_2 O2_2 1_555 1_555
C1E_2 C1_2 1_555 1_555
O1E_2 C1E_2 1_555 1_555
O2E_2 La1 1_555 1_555
O3E C2E_2 1_555 1_555
O4E_2 La1 1_555 1_555
C2E_2 O4E_2 1_555 1_555
O8E_2 La1 1_555 1_555
C2_2 O3E 1_555 1_555
O4_2 C2_2 1_555 1_555
O8_2 O4_2 1_555 1_555
La1_2 O1_2 1_555 1_555
La1_3 O2 1_555 1_555
La1_4 O4E 1_555 1_555
La1A O5A 1_555 1_555
La1_5 O4_2 1_555 1_555
O2_3 La1_2 1_555 1_555
O2E_3 La1_2 1_555 1_555
O4_3 La1_2 1_555 1_555
O4E_3 La1_2 1_555 1_555
O5_2 La1_2 1_555 1_555
O5E_2 La1_2 1_555 1_555
O7_2 La1_2 1_555 1_555
O8_3 La1_2 1_555 1_555
O8E_3 La1_2 1_555 1_555
O4 O8 1_555 1_555
O2E La1_3 1_555 1_555
O8E La1_4 1_555 1_555
C3D O5E 1_555 1_555
O5D La1A 1_555 1_555
C1E_2 O2E_2 1_555 1_555
O1E_2 La1_2 1_555 1_555
O4E_2 O8E_2 1_555 1_555
O8_2 La1_5 1_555 1_555
O4_3 O8_3 1_555 1_555
O4E_3 O8E_3 1_555 1_555

#END
