
#######################################################################
#
#                 Cambridge Crystallographic Data Centre
#                                CCDC 
#
#######################################################################
#
# If this CIF has been generated from an entry in the Cambridge 
# Structural Database, then it will include bibliographic, chemical, 
# crystal, experimental, refinement or atomic coordinate data resulting 
# from the CCDC's data processing and validation procedures.
#
#######################################################################

data_QULMIU
_symmetry_cell_setting           rhombohedral
_symmetry_space_group_name_H-M   'R -3'
_symmetry_Int_Tables_number      148
_space_group_name_Hall           '-R 3'
loop_
_symmetry_equiv_pos_site_id
_symmetry_equiv_pos_as_xyz
1 x,y,z
2 -y,x-y,z
3 -x+y,-x,z
4 2/3+x,1/3+y,1/3+z
5 2/3-y,1/3+x-y,1/3+z
6 2/3-x+y,1/3-x,1/3+z
7 1/3+x,2/3+y,2/3+z
8 1/3-y,2/3+x-y,2/3+z
9 1/3-x+y,2/3-x,2/3+z
10 -x,-y,-z
11 y,-x+y,-z
12 x-y,x,-z
13 1/3-x,2/3-y,2/3-z
14 1/3+y,2/3-x+y,2/3-z
15 1/3+x-y,2/3+x,2/3-z
16 2/3-x,1/3-y,1/3-z
17 2/3+y,1/3-x+y,1/3-z
18 2/3+x-y,1/3+x,1/3-z
_cell_length_a                   29.411(10)
_cell_length_b                   29.411(10)
_cell_length_c                   8.116(3)
_cell_angle_alpha                90
_cell_angle_beta                 90
_cell_angle_gamma                120
_cell_volume                     6079.84
loop_
_atom_site_label
_atom_site_type_symbol
_atom_site_fract_x
_atom_site_fract_y
_atom_site_fract_z
In1 In 0.054210(13) 0.377113(13) 0.60115(4)
O1 O 0.07682(14) 0.31772(14) 0.6286(4)
O2 O 0.06319(14) 0.28222(14) 0.8821(4)
O3 O 0.24308(13) 0.27994(14) 0.3076(4)
O4 O 0.16026(16) 0.2461(2) 0.2295(5)
O5 O 0.01642(13) 0.35387(13) 0.8301(4)
H1 H 0.1819 0.2267 1.0114
H2 H 0.2009 0.1998 0.9020
H3 H 0.0016 0.3699 0.8802
N1 N 0.20400(16) 0.22966(17) 0.9328(5)
C1 C 0.08590(19) 0.29388(19) 0.7418(6)
C2 C 0.12560(18) 0.27746(18) 0.7062(6)
C3 C 0.14205(19) 0.2785(2) 0.5467(6)
H10 H 0.1279 0.2887 0.4617
C4 C 0.17943(19) 0.2646(2) 0.5120(6)
C5 C 0.1946(2) 0.2630(2) 0.3359(6)
C6 C 0.20133(19) 0.2497(2) 0.6407(6)
H11 H 0.2277 0.2419 0.6193
C7 C 0.18309(18) 0.24689(19) 0.7994(6)
C8 C 0.14536(19) 0.2604(2) 0.8338(6)
H12 H 0.1332 0.2581 0.9409
In1E In -0.010430(18) 0.279123(13) 0.93448(4)
In1L In 0.279123(13) 0.289554(13) 0.06552(4)
In1L_2 In 0.279123(13) 0.289554(13) 1.06552(4)
O2G O 0.05111(14) 0.44764(20) 0.5488(4)
O3L O 0.09025(13) 0.38673(14) 0.3591(4)
O5G O -0.02054(13) 0.32922(18) 0.4968(4)
H1L H 0.1514 0.4400 0.6553
H2L H 0.1324 0.4669 0.7647
H3G H -0.0366 0.2984 0.5469
N1L N 0.12933(16) 0.43701(17) 0.7339(5)
O6 O 0.1870(3) 0.1331(3) 0.7690(9)
H6 H 0.2112 0.1221 0.7686
H9 H 0.1786 0.1325 0.6597
O7 O 0.1335(11) 0.1085(11) 0.449(3)
H4 H 0.1553 0.1290 0.3732
H5 H 0.1233 0.1282 0.4974
H7 H 0.0921 0.0734 0.0001
H8 H 0.1195 0.0675 0.1247
O8 O 0.1219(12) 0.0906(13) 0.057(4)
loop_
_geom_bond_atom_site_label_1
_geom_bond_atom_site_label_2
_geom_bond_site_symmetry_1
_geom_bond_site_symmetry_2
In1 O1 1_555 1_555
O1 C1 1_555 1_555
O2 C1 1_555 1_555
O3 C5 1_555 1_555
O4 C5 1_555 1_555
O5 In1 1_555 1_555
O6 H6 1_555 1_555
O7 H4 1_555 1_555
H1 N1 1_555 1_555
H2 N1 1_555 1_555
H3 O5 1_555 1_555
H5 O7 1_555 1_555
H7 O8 1_555 1_555
H8 O8 1_555 1_555
H9 O6 1_555 1_555
N1 C7 1_555 1_555
C1 C2 1_555 1_555
C2 C3 1_555 1_555
C3 H10 1_555 1_555
C4 C3 1_555 1_555
C5 C4 1_555 1_555
C6 C4 1_555 1_555
H11 C6 1_555 1_555
C7 C6 1_555 1_555
C8 C2 1_555 1_555
H12 C8 1_555 1_555
In1E O2 1_555 1_555
In1L O3 1_555 1_555
In1L_2 N1 1_555 1_555
O2G In1 1_555 1_555
O3L In1 1_555 1_555
O5G In1 1_555 1_555
H1L N1L 1_555 1_555
H2L N1L 1_555 1_555
H3G O5G 1_555 1_555
N1L In1 1_555 1_555
O5 In1E 1_555 1_555
C7 C8 1_555 1_555

#END
