
#######################################################################
#
#                 Cambridge Crystallographic Data Centre
#                                CCDC 
#
#######################################################################
#
# If this CIF has been generated from an entry in the Cambridge 
# Structural Database, then it will include bibliographic, chemical, 
# crystal, experimental, refinement or atomic coordinate data resulting 
# from the CCDC's data processing and validation procedures.
#
#######################################################################

data_QUMKAM
_symmetry_cell_setting           orthorhombic
_symmetry_space_group_name_H-M   'P c a 21'
_symmetry_Int_Tables_number      29
_space_group_name_Hall           'P 2c -2ac'
loop_
_symmetry_equiv_pos_site_id
_symmetry_equiv_pos_as_xyz
1 x,y,z
2 -x,-y,1/2+z
3 1/2-x,y,1/2+z
4 1/2+x,-y,z
_cell_length_a                   18.692(4)
_cell_length_b                   19.765(4)
_cell_length_c                   10.903(2)
_cell_angle_alpha                90
_cell_angle_beta                 90
_cell_angle_gamma                90
_cell_volume                     4028.08
loop_
_atom_site_label
_atom_site_type_symbol
_atom_site_fract_x
_atom_site_fract_y
_atom_site_fract_z
Cd1 Cd 0.522448(14) 0.250556(19) 0.17976(10)
C1 C 0.4474(3) 0.3469(3) -0.0191(5)
N1 N 0.5136(3) 0.3281(3) 0.0156(6)
N2 N 0.4418(3) 0.1481(3) 0.3745(6)
C2 C 0.1470(2) 0.4742(2) -0.3130(6)
H1 H 0.1281 0.4396 -0.2650
C3 C 0.1044(3) 0.5065(3) -0.3964(5)
H2 H 0.0571 0.4928 -0.4053
N3 N 0.3999(2) 0.2752(2) 0.1407(4)
C4 C 0.3648(2) 0.4120(2) -0.1485(4)
C5 C 0.3912(3) -0.0318(2) 0.6686(6)
H3 H 0.4086 -0.0680 0.7142
N4 N 0.5047(3) 0.1710(3) 0.3323(5)
C6 C 0.3067(3) 0.3861(3) -0.0780(5)
C7 C 0.4346(3) 0.3908(3) -0.1196(5)
C8 C 0.1296(3) 0.5586(3) -0.4670(5)
C9 C 0.2673(3) 0.4544(3) -0.2192(5)
C10 C 0.4376(3) 0.0065(3) 0.5987(5)
H4 H 0.4859 -0.0047 0.5963
C11 C 0.5667(3) 0.3522(4) -0.0438(8)
H5 H 0.6125 0.3392 -0.0201
C12 C 0.3184(3) -0.0162(3) 0.6710(7)
N5 N 0.2457(2) 0.4163(2) -0.1250(4)
C13 C 0.2199(3) 0.4930(3) -0.2993(5)
C14 C 0.3143(3) 0.3388(3) 0.0221(5)
C15 C 0.4629(3) 0.1026(3) 0.4581(6)
N6 N 0.3382(2) 0.4509(2) -0.2381(4)
C16 C 0.4953(3) 0.4156(3) -0.1830(6)
H6 H 0.4906 0.4440 -0.2505
C17 C 0.3858(3) 0.3190(2) 0.0502(4)
C18 C 0.4127(3) 0.0615(3) 0.5316(6)
C19 C 0.2591(3) 0.3136(3) 0.0923(5)
H7 H 0.2121 0.3260 0.0758
C20 C 0.2024(3) 0.5789(3) -0.4531(6)
H8 H 0.2212 0.6139 -0.5002
C21 C 0.3372(4) 0.0775(6) 0.5366(10)
H9 H 0.3193 0.1151 0.4955
N7 N 0.5594(3) 0.1423(3) 0.3897(5)
C22 C 0.2438(3) 0.5459(3) -0.3692(6)
H10 H 0.2909 0.5600 -0.3589
C23 C 0.5602(4) 0.3967(4) -0.1418(8)
H11 H 0.6011 0.4135 -0.1794
C24 C 0.2927(4) 0.0364(5) 0.6025(9)
H12 H 0.2437 0.0445 0.6008
N8 N 0.5324(3) 0.0968(3) 0.4688(6)
C25 C 0.2695(3) -0.0548(3) 0.7539(6)
N9 N 0.1990(2) -0.0509(2) 0.7490(5)
N10 N 0.2931(2) -0.0994(2) 0.8399(4)
C26 C 0.2344(3) -0.1253(3) 0.8949(5)
C27 C 0.1769(3) -0.0943(3) 0.8395(6)
C28 C 0.1062(3) -0.1109(3) 0.8770(5)
C29 C 0.2279(3) -0.1708(3) 0.9956(5)
C30 C 0.0952(3) -0.1548(3) 0.9736(5)
C31 C 0.0437(4) -0.0825(4) 0.8219(7)
H13 H 0.0485 -0.0545 0.7539
C32 C 0.1567(3) -0.1854(3) 1.0371(5)
C33 C 0.2845(3) -0.2013(3) 1.0578(6)
H14 H 0.3315 -0.1931 1.0338
C34 C 0.0843(3) 0.5953(3) -0.5548(5)
N11 N 0.1048(3) 0.6461(3) -0.6259(5)
N12 N 0.0158(3) 0.5779(3) -0.5752(6)
N13 N -0.0055(3) 0.6225(4) -0.6622(6)
N14 N 0.1453(2) -0.2285(2) 1.1316(4)
N15 N 0.0289(2) -0.1706(3) 1.0189(5)
C35 C 0.2000(3) -0.2555(3) 1.1847(13)
H15 H 0.1910 -0.2855 1.2486
C36 C -0.0280(3) -0.1420(3) 0.9681(6)
H16 H -0.0730 -0.1522 0.9992
C37 C 0.2705(3) -0.2438(3) 1.1552(8)
H17 H 0.3074 -0.2639 1.1994
C38 C -0.0224(3) -0.0957(4) 0.8665(8)
H18 H -0.0629 -0.0755 0.8328
C39 C 0.2748(3) 0.2688(3) 0.1898(10)
H19 H 0.2389 0.2516 0.2399
C40 C 0.3455(4) 0.2516(3) 0.2074(7)
H20 H 0.3560 0.2214 0.2702
N16 N 0.0472(3) 0.6620(3) -0.6910(5)
H21 H 0.1970 0.4208 -0.0848
H22 H 0.3385 -0.1083 0.8473
Cd1C Cd 0.022448(14) -0.250556(19) 1.17976(10)
Cd1C_2 Cd 0.022448(14) 0.749444(19) -0.82024(10)
N14C N 0.6453(2) 0.2285(2) 0.1316(4)
N15C N 0.5289(2) 0.1706(3) 0.0189(5)
N16C N 0.5472(3) 0.3380(3) 0.3090(5)
loop_
_geom_bond_atom_site_label_1
_geom_bond_atom_site_label_2
_geom_bond_site_symmetry_1
_geom_bond_site_symmetry_2
Cd1 N1 1_555 1_555
C1 N1 1_555 1_555
N1 C11 1_555 1_555
N2 N4 1_555 1_555
C2 H1 1_555 1_555
C3 C2 1_555 1_555
H2 C3 1_555 1_555
N3 Cd1 1_555 1_555
C4 C6 1_555 1_555
C5 H3 1_555 1_555
N4 Cd1 1_555 1_555
C6 N5 1_555 1_555
C7 C1 1_555 1_555
C8 C3 1_555 1_555
C9 N5 1_555 1_555
C10 C5 1_555 1_555
H4 C10 1_555 1_555
C11 H5 1_555 1_555
C12 C5 1_555 1_555
N5 H21 1_555 1_555
C13 C2 1_555 1_555
C14 C6 1_555 1_555
C15 N2 1_555 1_555
N6 C4 1_555 1_555
C16 C7 1_555 1_555
H6 C16 1_555 1_555
C17 C1 1_555 1_555
C18 C10 1_555 1_555
C19 C14 1_555 1_555
H7 C19 1_555 1_555
C20 C8 1_555 1_555
H8 C20 1_555 1_555
C21 C18 1_555 1_555
H9 C21 1_555 1_555
N7 N4 1_555 1_555
C22 C13 1_555 1_555
H10 C22 1_555 1_555
C23 C11 1_555 1_555
H11 C23 1_555 1_555
C24 C12 1_555 1_555
H12 C24 1_555 1_555
N8 C15 1_555 1_555
C25 C12 1_555 1_555
N9 C25 1_555 1_555
N10 C25 1_555 1_555
C26 N10 1_555 1_555
C27 N9 1_555 1_555
C28 C27 1_555 1_555
C29 C26 1_555 1_555
C30 C28 1_555 1_555
C31 C28 1_555 1_555
H13 C31 1_555 1_555
C32 C29 1_555 1_555
C33 C29 1_555 1_555
H14 C33 1_555 1_555
C34 C8 1_555 1_555
N11 C34 1_555 1_555
N12 C34 1_555 1_555
N13 N12 1_555 1_555
N14 C32 1_555 1_555
N15 C30 1_555 1_555
C35 N14 1_555 1_555
H15 C35 1_555 1_555
C36 N15 1_555 1_555
H16 C36 1_555 1_555
C37 C33 1_555 1_555
H17 C37 1_555 1_555
C38 C31 1_555 1_555
H18 C38 1_555 1_555
C39 C19 1_555 1_555
H19 C39 1_555 1_555
C40 N3 1_555 1_555
H20 C40 1_555 1_555
N16 N11 1_555 1_555
H22 N10 1_555 1_555
Cd1C N14 1_555 1_555
Cd1C_2 N16 1_555 1_555
N14C Cd1 1_555 1_555
N15C Cd1 1_555 1_555
N16C Cd1 1_555 1_555
N3 C17 1_555 1_555
C4 C7 1_555 1_555
C9 C13 1_555 1_555
C9 N6 1_555 1_555
C14 C17 1_555 1_555
C15 C18 1_555 1_555
C16 C23 1_555 1_555
C20 C22 1_555 1_555
C21 C24 1_555 1_555
N7 N8 1_555 1_555
C26 C27 1_555 1_555
C30 C32 1_555 1_555
N13 N16 1_555 1_555
N15 Cd1C 1_555 1_555
C35 C37 1_555 1_555
C36 C38 1_555 1_555
C39 C40 1_555 1_555

#END
