
#######################################################################
#
#                 Cambridge Crystallographic Data Centre
#                                CCDC 
#
#######################################################################
#
# If this CIF has been generated from an entry in the Cambridge 
# Structural Database, then it will include bibliographic, chemical, 
# crystal, experimental, refinement or atomic coordinate data resulting 
# from the CCDC's data processing and validation procedures.
#
#######################################################################

data_QUNXEE
_symmetry_cell_setting           orthorhombic
_symmetry_space_group_name_H-M   'P n m a'
_symmetry_Int_Tables_number      62
_space_group_name_Hall           '-P 2ac 2n'
loop_
_symmetry_equiv_pos_site_id
_symmetry_equiv_pos_as_xyz
1 x,y,z
2 1/2-x,-y,1/2+z
3 -x,1/2+y,-z
4 1/2+x,1/2-y,1/2-z
5 -x,-y,-z
6 1/2+x,y,1/2-z
7 x,1/2-y,z
8 1/2-x,1/2+y,1/2+z
_cell_length_a                   25.786(5)
_cell_length_b                   21.045(4)
_cell_length_c                   7.4123(15)
_cell_angle_alpha                90
_cell_angle_beta                 90
_cell_angle_gamma                90
_cell_volume                     4022.41
loop_
_atom_site_label
_atom_site_type_symbol
_atom_site_fract_x
_atom_site_fract_y
_atom_site_fract_z
Cd1 Cd 0.43286(2) 0.2500 0.67260(7)
Cd2 Cd 0.48602(2) 0.2500 1.23166(7)
Cl1 Cl 0.41117(8) 0.2500 1.0087(3)
N1 N 0.44009(18) -0.0806(2) 0.0151(6)
N2 N 0.4125(2) -0.0822(3) -0.1417(7)
N3 N 0.46738(17) -0.1641(2) -0.1272(6)
N4 N 0.7620(3) 0.2500 0.8678(10)
N5 N 0.7729(3) 0.2500 1.0473(12)
N6 N 0.8457(3) 0.2500 0.8858(10)
O1 O 0.43751(15) 0.18334(19) 0.4239(5)
O2 O 0.43660(19) 0.1218(2) 0.6649(5)
O3 O 0.5186(2) 0.2500 0.7389(7)
O4 O 0.5473(2) 0.2500 0.4514(7)
C1 C 0.4297(3) -0.1336(3) -0.2209(9)
H1 H 0.4172 -0.1479 -0.3314
C2 C 0.4724(2) -0.1292(3) 0.0193(7)
H2 H 0.4955 -0.1376 0.1126
C3 C 0.4354(2) -0.0288(3) 0.1381(8)
C4 C 0.4413(3) -0.0391(3) 0.3220(8)
H3 H 0.4459 -0.0801 0.3663
C5 C 0.4401(3) 0.0119(3) 0.4378(8)
H4 H 0.4446 0.0053 0.5609
C6 C 0.4323(2) 0.0729(3) 0.3732(7)
C7 C 0.4236(2) 0.0813(3) 0.1889(8)
H5 H 0.4166 0.1218 0.1446
C8 C 0.4251(2) 0.0308(3) 0.0722(8)
H6 H 0.4193 0.0369 -0.0504
C9 C 0.4357(2) 0.1290(3) 0.4975(8)
C10 C 0.8237(4) 0.2500 1.0479(14)
H7 H 0.8430 0.2500 1.1540
C11 C 0.8061(3) 0.2500 0.7789(12)
H8 H 0.8085 0.2500 0.6537
C12 C 0.6704(3) 0.2500 0.9323(12)
H9 H 0.6776 0.2500 1.0552
C13 C 0.6192(3) 0.2500 0.8685(10)
H10 H 0.5918 0.2500 0.9501
C14 C 0.6093(3) 0.2500 0.6869(11)
C15 C 0.6483(3) 0.2500 0.5635(13)
H11 H 0.6410 0.2500 0.4406
C16 C 0.6988(4) 0.2500 0.6236(13)
H12 H 0.7261 0.2500 0.5416
C17 C 0.7088(3) 0.2500 0.8095(12)
C18 C 0.5537(3) 0.2500 0.6198(11)
N1D N 0.55991(18) 0.0806(2) 0.9849(6)
N2D N 0.5875(2) 0.0822(3) 1.1417(7)
N3D N 0.53262(17) 0.1641(2) 1.1272(6)
O1D O 0.56249(15) -0.18334(19) 0.5761(5)
O2D O 0.56340(19) -0.1218(2) 0.3351(5)
C1D C 0.5703(3) 0.1336(3) 1.2209(9)
H1D H 0.5828 0.1479 1.3314
C2D C 0.5276(2) 0.1292(3) 0.9807(7)
H2D H 0.5045 0.1376 0.8874
C3D C 0.5646(2) 0.0288(3) 0.8619(8)
C4D C 0.5587(3) 0.0391(3) 0.6780(8)
H3D H 0.5541 0.0801 0.6337
C5D C 0.5599(3) -0.0119(3) 0.5622(8)
H4D H 0.5554 -0.0053 0.4391
C6D C 0.5677(2) -0.0729(3) 0.6268(7)
C7D C 0.5764(2) -0.0813(3) 0.8111(8)
H5D H 0.5834 -0.1218 0.8554
C8D C 0.5749(2) -0.0308(3) 0.9278(8)
H6D H 0.5807 -0.0369 1.0504
C9D C 0.5643(2) -0.1290(3) 0.5025(8)
Cd1B Cd 0.56714(2) -0.2500 0.32740(7)
Cd1C Cd 0.93286(2) 0.2500 0.82740(7)
Cd2_2 Cd 0.48602(2) 0.2500 0.23166(7)
Cd2B Cd 0.51398(2) -0.2500 -0.23166(7)
Cd2B_2 Cd 0.51398(2) -0.2500 0.76834(7)
N3B N 0.53262(17) 0.3359(2) 1.1272(6)
N6C N 0.3457(3) 0.2500 0.6142(10)
O1_2 O 0.43751(15) 0.18334(19) 1.4239(5)
O1F O 0.43751(15) 0.31666(19) 0.4239(5)
O1F_2 O 0.43751(15) 0.31666(19) 1.4239(5)
O2F O 0.43660(19) 0.3782(2) 0.6649(5)
O4_2 O 0.5473(2) 0.2500 1.4514(7)
loop_
_geom_bond_atom_site_label_1
_geom_bond_atom_site_label_2
_geom_bond_site_symmetry_1
_geom_bond_site_symmetry_2
Cd1 Cl1 1_555 1_555
Cd2 Cl1 1_555 1_555
N1 N2 1_555 1_555
N2 C1 1_555 1_555
N3 C1 1_555 1_555
N4 N5 1_555 1_555
N5 C10 1_555 1_555
N6 C10 1_555 1_555
O1 Cd1 1_555 1_555
O2 Cd1 1_555 1_555
O3 Cd1 1_555 1_555
O4 C18 1_555 1_555
C1 H1 1_555 1_555
C2 N1 1_555 1_555
H2 C2 1_555 1_555
C3 N1 1_555 1_555
C4 C3 1_555 1_555
H3 C4 1_555 1_555
C5 C4 1_555 1_555
H4 C5 1_555 1_555
C6 C5 1_555 1_555
C7 C6 1_555 1_555
H5 C7 1_555 1_555
C8 C3 1_555 1_555
H6 C8 1_555 1_555
C9 O1 1_555 1_555
C10 H7 1_555 1_555
C11 N4 1_555 1_555
H8 C11 1_555 1_555
C12 H9 1_555 1_555
C13 C12 1_555 1_555
H10 C13 1_555 1_555
C14 C13 1_555 1_555
C15 C14 1_555 1_555
H11 C15 1_555 1_555
C16 C15 1_555 1_555
H12 C16 1_555 1_555
C17 N4 1_555 1_555
C18 O3 1_555 1_555
N1D N2D 1_555 1_555
N2D C1D 1_555 1_555
N3D Cd2 1_555 1_555
O1D C9D 1_555 1_555
O2D C9D 1_555 1_555
C1D N3D 1_555 1_555
H1D C1D 1_555 1_555
C2D N1D 1_555 1_555
H2D C2D 1_555 1_555
C3D N1D 1_555 1_555
C4D C3D 1_555 1_555
H3D C4D 1_555 1_555
C5D C4D 1_555 1_555
H4D C5D 1_555 1_555
C6D C5D 1_555 1_555
C7D C6D 1_555 1_555
H5D C7D 1_555 1_555
C8D C3D 1_555 1_555
H6D C8D 1_555 1_555
C9D C6D 1_555 1_555
Cd1B O1D 1_555 1_555
Cd1C N6 1_555 1_555
Cd2_2 O1 1_555 1_555
Cd2B N3 1_555 1_555
Cd2B_2 O1D 1_555 1_555
N3B Cd2 1_555 1_555
N6C Cd1 1_555 1_555
O1_2 Cd2 1_555 1_555
O1F Cd1 1_555 1_555
O1F_2 Cd2 1_555 1_555
O2F Cd1 1_555 1_555
O4_2 Cd2 1_555 1_555
N3 C2 1_555 1_555
N6 C11 1_555 1_555
O2 C9 1_555 1_555
O4 Cd2_2 1_555 1_555
C6 C9 1_555 1_555
C7 C8 1_555 1_555
C12 C17 1_555 1_555
C14 C18 1_555 1_555
C16 C17 1_555 1_555
N3D C2D 1_555 1_555
O2D Cd1B 1_555 1_555
C7D C8D 1_555 1_555
Cd2_2 O1F 1_555 1_555

#END
