
#######################################################################
#
#                 Cambridge Crystallographic Data Centre
#                                CCDC 
#
#######################################################################
#
# If this CIF has been generated from an entry in the Cambridge 
# Structural Database, then it will include bibliographic, chemical, 
# crystal, experimental, refinement or atomic coordinate data resulting 
# from the CCDC's data processing and validation procedures.
#
#######################################################################

data_QUPJAN
_symmetry_cell_setting           orthorhombic
_symmetry_space_group_name_H-M   'I b c a'
_symmetry_Int_Tables_number      73
_space_group_name_Hall           '-I 2b 2c'
loop_
_symmetry_equiv_pos_site_id
_symmetry_equiv_pos_as_xyz
1 x,y,z
2 1/2-x,-y,1/2+z
3 -x,1/2+y,1/2-z
4 1/2+x,1/2-y,-z
5 1/2+x,1/2+y,1/2+z
6 -x,1/2-y,z
7 1/2-x,y,-z
8 x,-y,1/2-z
9 -x,-y,-z
10 1/2+x,y,1/2-z
11 x,1/2-y,1/2+z
12 1/2-x,1/2+y,z
13 1/2-x,1/2-y,1/2-z
14 x,1/2+y,-z
15 1/2+x,-y,z
16 -x,y,1/2+z
_cell_length_a                   14.5739(11)
_cell_length_b                   20.8969(15)
_cell_length_c                   32.497(3)
_cell_angle_alpha                90
_cell_angle_beta                 90
_cell_angle_gamma                90
_cell_volume                     9896.94
loop_
_atom_site_label
_atom_site_type_symbol
_atom_site_fract_x
_atom_site_fract_y
_atom_site_fract_z
C22 C 0.2500 0.9219(4) 0.5000
C23 C 0.3378(5) 1.0135(3) 0.50108(18)
H17 H 0.3794 0.9860 0.5157
H18 H 0.3342 1.0541 0.5148
H19 H 0.3596 1.0196 0.4735
N3 N 0.2500 0.9851(2) 0.5000
O7 O 0.2953(5) 0.8806(3) 0.4995(2)
C23F C 0.1622(5) 1.0135(3) 0.49892(18)
H17F H 0.1206 0.9860 0.4843
H18F H 0.1658 1.0541 0.4852
H19F H 0.1404 1.0196 0.5265
O7F O 0.2047(5) 0.8806(3) 0.5005(2)
C1 C -0.18805(18) 0.07178(11) 1.10768(7)
C2 C -0.23361(18) 0.00660(11) 1.10762(7)
C3 C -0.32771(19) 0.00048(11) 1.10865(8)
H1 H -0.3642 0.0369 1.1103
C4 C -0.36886(18) -0.05957(11) 1.10718(8)
H2 H -0.4324 -0.0633 1.1081
C5 C -0.31448(17) -0.11365(10) 1.10435(6)
C6 C -0.21982(18) -0.10719(11) 1.10320(8)
H3 H -0.1832 -0.1435 1.1011
C7 C -0.17938(19) -0.04805(12) 1.10505(8)
H4 H -0.1158 -0.0444 1.1046
C8 C -0.35539(17) -0.17970(10) 1.10205(7)
C9 C -0.0610(3) 0.15555(16) 1.19779(9)
H5 H -0.0303 0.1216 1.1855
C10 C -0.0585(3) 0.15954(18) 1.24037(9)
H6 H -0.0285 0.1288 1.2561
C11 C -0.1018(2) 0.21045(19) 1.25840(9)
C12 C -0.1471(2) 0.25303(19) 1.23426(9)
H7 H -0.1778 0.2877 1.2458
C13 C -0.1464(2) 0.24380(16) 1.19266(9)
H8 H -0.1783 0.2729 1.1764
C14 C -0.0376(3) 0.1967(2) 1.32617(9)
H9 H -0.0640 0.1634 1.3432
H10 H 0.0117 0.1780 1.3101
C15 C 0.0000 0.2500 1.35314(10)
C16 C -0.0770(2) 0.2765(2) 1.37962(9)
H11 H -0.1053 0.2423 1.3952
H12 H -0.1236 0.2959 1.3623
C17 C -0.0597(2) 0.32105(14) 1.44789(8)
C18 C -0.0082(2) 0.35854(15) 1.47310(8)
H13 H 0.0356 0.3861 1.4621
C19 C -0.0215(2) 0.35533(14) 1.51517(8)
H14 H 0.0145 0.3812 1.5320
C20 C -0.13286(19) 0.28167(14) 1.50731(8)
H15 H -0.1757 0.2541 1.5189
C21 C -0.1256(2) 0.28285(17) 1.46506(8)
H16 H -0.1644 0.2584 1.4487
Cd1 Cd -0.101821(11) 0.187179(7) 1.102962(5)
N1 N -0.10319(15) 0.19589(10) 1.17373(7)
N2 N -0.08247(15) 0.31753(9) 1.53269(6)
O1 O -0.10283(13) 0.07438(9) 1.10842(7)
O2 O -0.23748(15) 0.12029(8) 1.10654(7)
O3 O -0.30275(13) -0.22584(7) 1.09684(5)
O4 O -0.44036(15) -0.18662(7) 1.10603(5)
O5 O -0.10583(16) 0.22217(17) 1.29951(7)
O6 O -0.03939(19) 0.32386(13) 1.40733(6)
C1K C -0.31195(18) 0.57178(11) 1.10768(7)
C2K C -0.26639(18) 0.50660(11) 1.10762(7)
C3K C -0.17229(19) 0.50048(11) 1.10865(8)
H1K H -0.1358 0.5369 1.1103
C4K C -0.13114(18) 0.44043(11) 1.10718(8)
H2K H -0.0676 0.4367 1.1081
C5K C -0.18552(17) 0.38635(10) 1.10435(6)
C6K C -0.28018(18) 0.39281(11) 1.10320(8)
H3K H -0.3168 0.3565 1.1011
C7K C -0.32062(19) 0.45195(12) 1.10505(8)
H4K H -0.3842 0.4556 1.1046
C8K C -0.14461(17) 0.32030(10) 1.10205(7)
C9E C 0.0610(3) 0.34445(16) 1.19779(9)
H5E H 0.0303 0.3784 1.1855
C10E C 0.0585(3) 0.34046(18) 1.24037(9)
H6E H 0.0285 0.3712 1.2561
C11E C 0.1018(2) 0.28955(19) 1.25840(9)
C12E C 0.1471(2) 0.24697(19) 1.23426(9)
H7E H 0.1778 0.2123 1.2458
C13E C 0.1464(2) 0.25620(16) 1.19266(9)
H8E H 0.1783 0.2271 1.1764
C14E C 0.0376(3) 0.3033(2) 1.32617(9)
H9E H 0.0640 0.3366 1.3432
H10E H -0.0117 0.3220 1.3101
C16E C 0.0770(2) 0.2235(2) 1.37962(9)
H11E H 0.1053 0.2577 1.3952
H12E H 0.1236 0.2041 1.3623
C17E C 0.0597(2) 0.17895(14) 1.44789(8)
C18E C 0.0082(2) 0.14146(15) 1.47310(8)
H13E H -0.0356 0.1139 1.4621
C19E C 0.0215(2) 0.14467(14) 1.51517(8)
H14E H -0.0145 0.1188 1.5320
C20E C 0.13286(19) 0.21833(14) 1.50731(8)
H15E H 0.1757 0.2459 1.5189
C21E C 0.1256(2) 0.21715(17) 1.46506(8)
H16E H 0.1644 0.2416 1.4487
Cd1E Cd 0.101821(11) 0.312821(7) 1.102962(5)
Cd1J Cd -0.101821(11) 0.312821(7) 1.602962(5)
Cd1K Cd -0.398179(11) -0.312821(7) 1.102962(5)
Cd1N Cd -0.601821(11) -0.187179(7) 1.102962(5)
Cd1O Cd 0.101821(11) 0.187179(7) 1.602962(5)
Cd1K_2 Cd -0.398179(11) 0.687179(7) 1.102962(5)
N1E N 0.10319(15) 0.30411(10) 1.17373(7)
N2E N 0.08247(15) 0.18247(9) 1.53269(6)
N2J N -0.08247(15) 0.18247(9) 1.03269(6)
N2O N 0.08247(15) 0.31753(9) 1.03269(6)
O1K O -0.39717(13) 0.57438(9) 1.10842(7)
O1E O 0.10283(13) 0.42562(9) 1.10842(7)
O2K O -0.26252(15) 0.62029(8) 1.10654(7)
O2E O 0.23748(15) 0.37971(8) 1.10654(7)
O3K O -0.19725(13) 0.27416(7) 1.09684(5)
O3N O 0.19725(13) 0.22584(7) 1.09684(5)
O4K O -0.05964(15) 0.31338(7) 1.10603(5)
O4N O 0.05964(15) 0.18662(7) 1.10603(5)
O5E O 0.10583(16) 0.27783(17) 1.29951(7)
O6E O 0.03939(19) 0.17614(13) 1.40733(6)
loop_
_geom_bond_atom_site_label_1
_geom_bond_atom_site_label_2
_geom_bond_site_symmetry_1
_geom_bond_site_symmetry_2
C1 C2 1_555 1_555
C2 C3 1_555 1_555
C3 H1 1_555 1_555
C4 C3 1_555 1_555
H2 C4 1_555 1_555
C5 C4 1_555 1_555
C6 C5 1_555 1_555
H3 C6 1_555 1_555
C7 C2 1_555 1_555
H4 C7 1_555 1_555
C8 C5 1_555 1_555
C9 H5 1_555 1_555
C10 C9 1_555 1_555
H6 C10 1_555 1_555
C11 C10 1_555 1_555
C12 C11 1_555 1_555
H7 C12 1_555 1_555
C13 C12 1_555 1_555
H8 C13 1_555 1_555
C14 H9 1_555 1_555
H10 C14 1_555 1_555
C15 C14 1_555 1_555
C16 C15 1_555 1_555
H11 C16 1_555 1_555
H12 C16 1_555 1_555
C17 C18 1_555 1_555
C18 H13 1_555 1_555
C19 C18 1_555 1_555
H14 C19 1_555 1_555
C20 H15 1_555 1_555
C21 C17 1_555 1_555
H16 C21 1_555 1_555
C22 N3 1_555 1_555
C23 H17 1_555 1_555
H18 C23 1_555 1_555
H19 C23 1_555 1_555
Cd1 N1 1_555 1_555
N1 C9 1_555 1_555
N2 C19 1_555 1_555
N3 C23 1_555 1_555
O1 C1 1_555 1_555
O2 C1 1_555 1_555
O3 C8 1_555 1_555
O4 C8 1_555 1_555
O5 C11 1_555 1_555
O6 C16 1_555 1_555
O7 C22 1_555 1_555
C1K C2K 1_555 1_555
C2K C3K 1_555 1_555
C3K H1K 1_555 1_555
C4K C3K 1_555 1_555
H2K C4K 1_555 1_555
C5K C4K 1_555 1_555
C6K C5K 1_555 1_555
H3K C6K 1_555 1_555
C7K C2K 1_555 1_555
H4K C7K 1_555 1_555
C8K C5K 1_555 1_555
C9E H5E 1_555 1_555
C10E C9E 1_555 1_555
H6E C10E 1_555 1_555
C11E C10E 1_555 1_555
C12E C11E 1_555 1_555
H7E C12E 1_555 1_555
C13E C12E 1_555 1_555
H8E C13E 1_555 1_555
C14E C15 1_555 1_555
H9E C14E 1_555 1_555
H10E C14E 1_555 1_555
C16E C15 1_555 1_555
H11E C16E 1_555 1_555
H12E C16E 1_555 1_555
C17E C18E 1_555 1_555
C18E H13E 1_555 1_555
C19E C18E 1_555 1_555
H14E C19E 1_555 1_555
C20E H15E 1_555 1_555
C21E C17E 1_555 1_555
H16E C21E 1_555 1_555
C23F N3 1_555 1_555
H17F C23F 1_555 1_555
H18F C23F 1_555 1_555
H19F C23F 1_555 1_555
Cd1E N1E 1_555 1_555
Cd1J N2 1_555 1_555
Cd1K O3 1_555 1_555
Cd1N O4 1_555 1_555
Cd1O N2E 1_555 1_555
Cd1K_2 O1K 1_555 1_555
N1E C9E 1_555 1_555
N2E C19E 1_555 1_555
N2J Cd1 1_555 1_555
N2O Cd1E 1_555 1_555
O1K C1K 1_555 1_555
O1E Cd1E 1_555 1_555
O2K C1K 1_555 1_555
O2E Cd1E 1_555 1_555
O3K Cd1 1_555 1_555
O3N Cd1E 1_555 1_555
O4K C8K 1_555 1_555
O4N Cd1 1_555 1_555
O5E C11E 1_555 1_555
O6E C16E 1_555 1_555
O7F C22 1_555 1_555
C6 C7 1_555 1_555
C13 N1 1_555 1_555
C14 O5 1_555 1_555
C17 O6 1_555 1_555
C20 C21 1_555 1_555
C20 N2 1_555 1_555
Cd1 O1 1_555 1_555
Cd1 O2 1_555 1_555
O7 O7F 1_555 1_555
C6K C7K 1_555 1_555
C8K O3K 1_555 1_555
C13E N1E 1_555 1_555
C14E O5E 1_555 1_555
C17E O6E 1_555 1_555
C20E C21E 1_555 1_555
C20E N2E 1_555 1_555
Cd1E O4K 1_555 1_555
Cd1K_2 O2K 1_555 1_555

#END
