
#######################################################################
#
#                 Cambridge Crystallographic Data Centre
#                                CCDC 
#
#######################################################################
#
# If this CIF has been generated from an entry in the Cambridge 
# Structural Database, then it will include bibliographic, chemical, 
# crystal, experimental, refinement or atomic coordinate data resulting 
# from the CCDC's data processing and validation procedures.
#
#######################################################################

data_RACHUA
_symmetry_cell_setting           hexagonal
_symmetry_space_group_name_H-M   'P 65 2 2'
_symmetry_Int_Tables_number      179
_space_group_name_Hall           "P 65 2' (0,0,1)"
loop_
_symmetry_equiv_pos_site_id
_symmetry_equiv_pos_as_xyz
1 x,y,z
2 -y,x-y,2/3+z
3 -x+y,-x,1/3+z
4 -x,-y,1/2+z
5 y,-x+y,1/6+z
6 x-y,x,5/6+z
7 y,x,2/3-z
8 x-y,-y,-z
9 -x,-x+y,1/3-z
10 -y,-x,1/6-z
11 -x+y,y,1/2-z
12 x,x-y,5/6-z
_cell_length_a                   21.560(3)
_cell_length_b                   21.560(3)
_cell_length_c                   77.814(16)
_cell_angle_alpha                90
_cell_angle_beta                 90
_cell_angle_gamma                120
_cell_volume                     31324.6
loop_
_atom_site_label
_atom_site_type_symbol
_atom_site_fract_x
_atom_site_fract_y
_atom_site_fract_z
Zn1 Zn 0.23016(2) 0.64154(2) 0.145530(5)
Zn2 Zn 0.32749(2) 0.65477(2) 0.114642(5)
Zn3 Zn 0.32795(3) 0.56960(3) 0.146892(6)
Zn4 Zn 0.40206(2) 0.74265(3) 0.148513(6)
O1 O 0.32169(13) 0.65075(13) 0.13924(4)
O2 O 0.16678(13) 0.62292(14) 0.12517(3)
O3 O 0.25017(12) 0.66308(12) 0.10432(3)
O4 O -0.1823(2) 0.4073(2) -0.00510(4)
O5 O -0.22783(18) 0.4728(2) -0.01607(4)
O6 O 0.17585(15) 0.55553(18) 0.16022(3)
O7 O 0.2367(2) 0.49534(17) 0.15691(4)
O8 O -0.26974(14) 0.31553(15) 0.27137(3)
O9 O -0.19351(14) 0.35786(14) 0.29372(3)
O10 O 0.22338(18) 0.71538(19) 0.15863(4)
O11 O 0.3328(2) 0.78533(17) 0.15022(4)
O12 O 0.56578(14) 1.24755(15) 0.27242(3)
O13 O 0.51582(16) 1.17403(16) 0.29474(3)
C1 C 0.13700(18) 0.6415(2) 0.09718(4)
C2 C 0.15946(18) 0.66504(18) 0.08082(4)
H1 H 0.2062 0.6793 0.0776
C3 C 0.1127(2) 0.6675(2) 0.06914(5)
C4 C 0.0413(2) 0.6430(3) 0.07321(5)
C5 C 0.0174(2) 0.6177(3) 0.08990(6)
H2 H -0.0302 0.6011 0.0928
C6 C 0.0640(2) 0.6170(3) 0.10228(5)
H3 H 0.0485 0.6014 0.1134
C7 C 0.1289(3) 0.6972(3) 0.05083(5)
H4 H 0.1596 0.6832 0.0449
H5 H 0.1515 0.7490 0.0508
C8 C 0.0524(3) 0.6616(3) 0.04241(6)
C9 C 0.0009(3) 0.6537(3) 0.05904(6)
H6 H -0.0020 0.6968 0.0607
H7 H -0.0469 0.6129 0.0578
C10 C 0.0270(2) 0.5913(2) 0.03464(6)
H8 H 0.0055 0.5535 0.0431
H9 H 0.0657 0.5888 0.0289
C11 C -0.0294(2) 0.5863(3) 0.02156(5)
C12 C -0.0195(3) 0.6503(3) 0.01814(6)
C13 C 0.0426(3) 0.7067(3) 0.02778(7)
H10 H 0.0320 0.7419 0.0325
H11 H 0.0849 0.7306 0.0205
C14 C -0.0824(3) 0.5230(3) 0.01332(5)
H12 H -0.0862 0.4789 0.0156
C15 C -0.1273(2) 0.5285(3) 0.00211(5)
C16 C -0.1156(3) 0.5973(4) -0.00150(7)
H13 H -0.1444 0.6021 -0.0097
C17 C -0.0625(3) 0.6592(3) 0.00672(6)
H14 H -0.0569 0.7041 0.0045
C18 C -0.1827(3) 0.4648(3) -0.00718(6)
C19 C 0.18851(18) 0.64215(18) 0.11002(4)
C20 C 0.1336(3) 0.4437(2) 0.17343(5)
C21 C 0.0795(2) 0.4524(2) 0.18312(5)
H15 H 0.0785 0.4950 0.1828
C22 C 0.0315(3) 0.3955(3) 0.19243(6)
C23 C 0.0276(3) 0.3297(3) 0.19153(8)
C24 C 0.0769(4) 0.3198(3) 0.18263(9)
H16 H 0.0761 0.2763 0.1828
C25 C 0.1273(3) 0.3770(3) 0.17342(7)
H17 H 0.1592 0.3703 0.1667
C26 C -0.0289(3) 0.3906(2) 0.20419(6)
H18 H -0.0117 0.4324 0.2115
H19 H -0.0694 0.3850 0.1975
C27 C -0.0485(3) 0.3229(3) 0.21472(7)
C28 C -0.0416(3) 0.2726(3) 0.20192(8)
H20 H -0.0833 0.2485 0.1946
H21 H -0.0335 0.2374 0.2077
C29 C -0.1272(3) 0.2895(3) 0.22104(6)
H22 H -0.1544 0.3040 0.2138
H23 H -0.1509 0.2376 0.2213
C30 C -0.1180(2) 0.3202(2) 0.23913(5)
C31 C -0.0487(2) 0.3489(3) 0.24464(6)
C32 C -0.0050(3) 0.3393(3) 0.23057(7)
H24 H 0.0408 0.3828 0.2291
H25 H 0.0035 0.3004 0.2334
C33 C -0.1692(2) 0.3193(2) 0.25021(5)
H26 H -0.2161 0.3010 0.2465
C34 C -0.15050(18) 0.3457(2) 0.26696(4)
C35 C -0.0808(2) 0.3748(2) 0.27250(5)
H27 H -0.0692 0.3926 0.2837
C36 C -0.0287(3) 0.3783(3) 0.26220(6)
H28 H 0.0183 0.3985 0.2661
C37 C -0.20790(18) 0.3404(2) 0.27807(4)
C38 C 0.1837(3) 0.4991(3) 0.16304(6)
C39 C 0.2912(3) 0.8288(3) 0.17214(6)
C40 C 0.3577(3) 0.8818(2) 0.17619(6)
H29 H 0.3970 0.8844 0.1706
C41 C 0.3685(2) 0.9319(3) 0.18839(6)
C42 C 0.3072(3) 0.9358(3) 0.19504(7)
C43 C 0.2369(3) 0.8808(3) 0.19040(7)
H30 H 0.1963 0.8804 0.1947
C44 C 0.2315(3) 0.8289(3) 0.17944(7)
H31 H 0.1860 0.7917 0.1766
C45 C 0.4352(3) 0.9895(3) 0.19681(7)
H32 H 0.4671 0.9716 0.1997
H33 H 0.4602 1.0302 0.1892
C46 C 0.4117(3) 1.0105(3) 0.21242(7)
C47 C 0.3344(3) 0.9979(3) 0.20748(7)
H34 H 0.3037 0.9855 0.2175
H35 H 0.3377 1.0399 0.2021
C48 C 0.4599(3) 1.0868(2) 0.21861(6)
H36 H 0.5088 1.1044 0.2149
H37 H 0.4436 1.1182 0.2141
C49 C 0.4556(3) 1.0846(3) 0.23780(6)
C50 C 0.4199(4) 1.0168(3) 0.24243(7)
C51 C 0.40350(18) 0.96717(16) 0.22800(4)
H38 H 0.3550 0.9271 0.2289
H39 H 0.4365 0.9490 0.2277
C52 C 0.48983(18) 1.14264(16) 0.24891(4)
H40 H 0.5156 1.1894 0.2448
C53 C 0.4839(2) 1.1277(2) 0.26662(5)
C54 C 0.4468(3) 1.0560(3) 0.27213(6)
H41 H 0.4432 1.0452 0.2838
C55 C 0.4175(4) 1.0047(3) 0.26077(8)
H42 H 0.3937 0.9576 0.2647
C56 C 0.52400(19) 1.1879(2) 0.27890(5)
C57 C 0.2822(3) 0.7705(3) 0.15959(6)
O14 O 0.3565(2) 0.6965(2) 0.17411(5)
C58 C 0.3886(6) 0.7379(6) 0.18597(11)
N1 N 0.3289(6) 0.7176(6) 0.19953(15)
C59 C 0.3383(7) 0.7663(7) 0.21541(16)
H43 H 0.2967 0.7428 0.2226
H44 H 0.3442 0.8112 0.2115
H45 H 0.3798 0.7747 0.2218
C60 C 0.2538(6) 0.6516(7) 0.20010(16)
H46 H 0.2305 0.6518 0.2106
H47 H 0.2575 0.6090 0.1996
H48 H 0.2264 0.6525 0.1905
O15 O 0.4818(2) 0.8345(3) 0.16224(5)
C61 C 0.5434(6) 0.8530(8) 0.15526(18)
N2 N 0.5881(6) 0.9310(6) 0.15751(14)
C62 C 0.5701(7) 0.9826(8) 0.16661(14)
H49 H 0.6126 1.0287 0.1676
H50 H 0.5516 0.9646 0.1779
H51 H 0.5348 0.9872 0.1601
C63 C 0.6666(6) 0.9717(8) 0.15054(16)
H52 H 0.6903 1.0203 0.1546
H53 H 0.6659 0.9716 0.1382
H54 H 0.6920 0.9484 0.1545
Zn2D Zn -0.34523(2) 0.32728(3) 0.281309(5)
Zn2D_2 Zn 0.65477(2) 1.32728(3) 0.281309(5)
Zn3E Zn -0.24165(4) 0.32795(3) -0.019775(6)
Zn3D Zn 0.56960(3) 1.24165(4) 0.313559(6)
Zn4E Zn -0.34059(4) 0.40206(2) -0.018154(6)
Zn4D Zn -0.25735(3) 0.34059(4) 0.315180(6)
O4D O 0.4073(2) 0.5896(3) 0.16157(4)
O5D O 0.4728(2) 0.70063(27) 0.15060(4)
O8E O 0.41473(21) 0.73026(14) 0.10470(3)
O9E O 0.44863(20) 0.80649(14) 0.12705(3)
O12E O 0.31823(21) 0.56578(14) 0.10575(3)
O13E O 0.34179(23) 0.51582(16) 0.12807(3)
loop_
_geom_bond_atom_site_label_1
_geom_bond_atom_site_label_2
_geom_bond_site_symmetry_1
_geom_bond_site_symmetry_2
Zn1 O1 1_555 1_555
Zn2 O1 1_555 1_555
Zn3 O1 1_555 1_555
Zn4 O1 1_555 1_555
O2 Zn1 1_555 1_555
O3 Zn2 1_555 1_555
O4 C18 1_555 1_555
O5 C18 1_555 1_555
O6 Zn1 1_555 1_555
O7 Zn3 1_555 1_555
O8 C37 1_555 1_555
O9 C37 1_555 1_555
O10 Zn1 1_555 1_555
O11 Zn4 1_555 1_555
O12 C56 1_555 1_555
O13 C56 1_555 1_555
C1 C2 1_555 1_555
C2 H1 1_555 1_555
C3 C2 1_555 1_555
C4 C3 1_555 1_555
C5 C4 1_555 1_555
H2 C5 1_555 1_555
C6 C1 1_555 1_555
H3 C6 1_555 1_555
C7 C3 1_555 1_555
H4 C7 1_555 1_555
H5 C7 1_555 1_555
C8 C7 1_555 1_555
C9 C4 1_555 1_555
H6 C9 1_555 1_555
H7 C9 1_555 1_555
C10 C8 1_555 1_555
H8 C10 1_555 1_555
H9 C10 1_555 1_555
C11 C10 1_555 1_555
C12 C11 1_555 1_555
C13 C8 1_555 1_555
H10 C13 1_555 1_555
H11 C13 1_555 1_555
C14 C11 1_555 1_555
H12 C14 1_555 1_555
C15 C14 1_555 1_555
C16 C15 1_555 1_555
H13 C16 1_555 1_555
C17 C12 1_555 1_555
H14 C17 1_555 1_555
C18 C15 1_555 1_555
C19 O2 1_555 1_555
C20 C21 1_555 1_555
C21 H15 1_555 1_555
C22 C21 1_555 1_555
C23 C22 1_555 1_555
C24 C23 1_555 1_555
H16 C24 1_555 1_555
C25 C20 1_555 1_555
H17 C25 1_555 1_555
C26 C22 1_555 1_555
H18 C26 1_555 1_555
H19 C26 1_555 1_555
C27 C26 1_555 1_555
C28 C23 1_555 1_555
H20 C28 1_555 1_555
H21 C28 1_555 1_555
C29 C27 1_555 1_555
H22 C29 1_555 1_555
H23 C29 1_555 1_555
C30 C29 1_555 1_555
C31 C30 1_555 1_555
C32 C27 1_555 1_555
H24 C32 1_555 1_555
H25 C32 1_555 1_555
C33 C30 1_555 1_555
H26 C33 1_555 1_555
C34 C33 1_555 1_555
C35 C34 1_555 1_555
H27 C35 1_555 1_555
C36 C31 1_555 1_555
H28 C36 1_555 1_555
C37 C34 1_555 1_555
C38 O6 1_555 1_555
C39 C40 1_555 1_555
C40 H29 1_555 1_555
C41 C40 1_555 1_555
C42 C41 1_555 1_555
C43 C42 1_555 1_555
H30 C43 1_555 1_555
C44 C39 1_555 1_555
H31 C44 1_555 1_555
C45 C41 1_555 1_555
H32 C45 1_555 1_555
H33 C45 1_555 1_555
C46 C45 1_555 1_555
C47 C42 1_555 1_555
H34 C47 1_555 1_555
H35 C47 1_555 1_555
C48 C46 1_555 1_555
H36 C48 1_555 1_555
H37 C48 1_555 1_555
C49 C48 1_555 1_555
C50 C49 1_555 1_555
C51 C46 1_555 1_555
H38 C51 1_555 1_555
H39 C51 1_555 1_555
C52 C49 1_555 1_555
H40 C52 1_555 1_555
C53 C52 1_555 1_555
C54 C53 1_555 1_555
H41 C54 1_555 1_555
C55 C50 1_555 1_555
H42 C55 1_555 1_555
C56 C53 1_555 1_555
C57 O10 1_555 1_555
O14 Zn4 1_555 1_555
C58 O14 1_555 1_555
N1 C58 1_555 1_555
C59 N1 1_555 1_555
H43 C59 1_555 1_555
H44 C59 1_555 1_555
H45 C59 1_555 1_555
C60 N1 1_555 1_555
H46 C60 1_555 1_555
H47 C60 1_555 1_555
H48 C60 1_555 1_555
O15 Zn4 1_555 1_555
C61 O15 1_555 1_555
N2 C61 1_555 1_555
C62 N2 1_555 1_555
H49 C62 1_555 1_555
H50 C62 1_555 1_555
H51 C62 1_555 1_555
C63 N2 1_555 1_555
H52 C63 1_555 1_555
H53 C63 1_555 1_555
H54 C63 1_555 1_555
Zn2D O8 1_555 1_555
Zn2D_2 O12 1_555 1_555
Zn3E O4 1_555 1_555
Zn3D O13 1_555 1_555
Zn4E O5 1_555 1_555
Zn4D O9 1_555 1_555
O4D Zn3 1_555 1_555
O5D Zn4 1_555 1_555
O8E Zn2 1_555 1_555
O9E Zn4 1_555 1_555
O12E Zn2 1_555 1_555
O13E Zn3 1_555 1_555
O3 C19 1_555 1_555
O7 C38 1_555 1_555
O11 C57 1_555 1_555
C1 C19 1_555 1_555
C5 C6 1_555 1_555
C8 C9 1_555 1_555
C12 C13 1_555 1_555
C16 C17 1_555 1_555
C20 C38 1_555 1_555
C24 C25 1_555 1_555
C27 C28 1_555 1_555
C31 C32 1_555 1_555
C35 C36 1_555 1_555
C39 C57 1_555 1_555
C43 C44 1_555 1_555
C46 C47 1_555 1_555
C50 C51 1_555 1_555
C54 C55 1_555 1_555

#END
