
#######################################################################
#
#                 Cambridge Crystallographic Data Centre
#                                CCDC 
#
#######################################################################
#
# If this CIF has been generated from an entry in the Cambridge 
# Structural Database, then it will include bibliographic, chemical, 
# crystal, experimental, refinement or atomic coordinate data resulting 
# from the CCDC's data processing and validation procedures.
#
#######################################################################

data_RACHUA01
_symmetry_cell_setting           hexagonal
_symmetry_space_group_name_H-M   'P 63 2 2'
_symmetry_Int_Tables_number      182
_space_group_name_Hall           "P 6c 2'c"
loop_
_symmetry_equiv_pos_site_id
_symmetry_equiv_pos_as_xyz
1 x,y,z
2 -x,-y,1/2+z
3 -y,-x,1/2-z
4 y,x,-z
5 x-y,-y,-z
6 -x+y,y,1/2-z
7 x,x-y,1/2-z
8 -x,-x+y,-z
9 -y,x-y,z
10 y,-x+y,1/2+z
11 x-y,x,1/2+z
12 -x+y,-x,z
_cell_length_a                   22.249(3)
_cell_length_b                   22.249(3)
_cell_length_c                   25.906(5)
_cell_angle_alpha                90
_cell_angle_beta                 90
_cell_angle_gamma                120
_cell_volume                     11105.9
loop_
_atom_site_label
_atom_site_type_symbol
_atom_site_fract_x
_atom_site_fract_y
_atom_site_fract_z
Zn1 Zn 0.6667 0.3333 0.33361(2)
Zn2 Zn 0.66153(2) 0.41373(2) 0.431639(14)
O1 O 0.6667 0.3333 0.40796(13)
O2 O 0.67388(11) 0.41788(13) 0.30829(9)
O3 O 0.64093(15) 0.45859(14) 0.37523(9)
O4 O 0.41721(16) 0.61767(17) -0.02102(10)
O5 O 0.48003(16) 0.73137(14) -0.03606(10)
C1 C 0.64270(17) 0.50249(19) 0.29173(12)
C2 C 0.66291(16) 0.50657(18) 0.24002(12)
H1 H 0.6824 0.4806 0.2283
C3 C 0.6538(2) 0.5489(3) 0.20711(13)
C4 C 0.6245(2) 0.5887(3) 0.22318(15)
C5 C 0.6024(2) 0.5826(3) 0.27413(17)
H2 H 0.5803 0.6065 0.2851
C6 C 0.6130(2) 0.5412(3) 0.30879(16)
H3 H 0.6003 0.5393 0.3432
C7 C 0.6712(3) 0.5613(4) 0.15255(16)
H4 H 0.6509 0.5176 0.1340
H5 H 0.7212 0.5850 0.1480
C8 C 0.6415(3) 0.6075(4) 0.13143(17)
C9 C 0.6229(3) 0.6337(5) 0.1819(2)
H6 H 0.6566 0.6819 0.1885
H7 H 0.5772 0.6288 0.1793
C10 C 0.5762(2) 0.5641(3) 0.09863(18)
H8 H 0.5817 0.5320 0.0765
H9 H 0.5355 0.5383 0.1202
C11 C 0.5708(2) 0.6190(3) 0.06691(15)
C12 C 0.6368(3) 0.6812(4) 0.0676(2)
C13 C 0.6879(4) 0.6650(4) 0.0963(3)
H10 H 0.7117 0.6503 0.0725
H11 H 0.7219 0.7049 0.1156
C14 C 0.5274(2) 0.6777(3) 0.01305(14)
C15 C 0.5185(2) 0.6175(2) 0.03977(14)
H12 H 0.4759 0.5766 0.0383
C16 C 0.5920(4) 0.7386(3) 0.0159(3)
H13 H 0.5973 0.7785 0.0002
C17 C 0.6492(4) 0.7416(4) 0.0416(3)
H14 H 0.6927 0.7814 0.0413
C18 C 0.4714(2) 0.6765(2) -0.01620(13)
C19 C 0.65348(17) 0.45702(18) 0.32816(13)
Zn1A Zn 0.3333 0.6667 0.83361(2)
Zn1J Zn 1.3334 0.6667 0.83361(2)
Zn2H Zn 0.58627(2) 0.24780(3) 0.431639(14)
Zn2K Zn 0.75220(3) 0.33847(2) 0.431639(14)
Zn2A Zn 0.33847(2) 0.58627(2) -0.068361(14)
Zn2I Zn 0.41373(2) 0.75220(3) -0.068361(14)
Zn2A_2 Zn 0.33847(2) 0.58627(2) 0.931639(14)
Zn2J Zn 1.24780(3) 0.66153(2) 0.931639(14)
O2H O 0.58212(13) 0.25600(17) 0.30829(9)
O2K O 0.74400(17) 0.32612(11) 0.30829(9)
O2A O 0.32612(11) 0.58212(13) 0.80829(9)
O2J O 1.25600(17) 0.67388(11) 0.80829(9)
O3H O 0.54141(14) 0.18234(21) 0.37523(9)
O3K O 0.81766(21) 0.35907(15) 0.37523(9)
O3A O 0.35907(15) 0.54141(14) 0.87523(9)
O3J O 1.18234(21) 0.64093(15) 0.87523(9)
O4A O 0.58279(16) 0.38233(17) 0.47898(10)
O4J O 0.79954(23) 0.41721(16) 0.47898(10)
O4I O 0.61767(17) 0.20046(23) 0.47898(10)
O5A O 0.51997(16) 0.26863(14) 0.46394(10)
O5J O 0.74866(21) 0.48003(16) 0.46394(10)
O5I O 0.73137(14) 0.25134(21) 0.46394(10)
C1A C 0.35730(17) 0.49751(19) 0.79173(12)
C1J C 1.14021(25) 0.64270(17) 0.79173(12)
C2A C 0.33709(16) 0.49343(18) 0.74002(12)
C2J C 1.15634(24) 0.66291(16) 0.74002(12)
H1A H 0.3176 0.5194 0.7283
H1J H 1.2018 0.6824 0.7283
C3A C 0.3462(2) 0.4511(3) 0.70711(13)
C3J C 1.1049(4) 0.6538(2) 0.70711(13)
C4A C 0.3755(2) 0.4113(3) 0.72318(15)
C4J C 1.0358(4) 0.6245(2) 0.72318(15)
C5A C 0.3976(2) 0.4174(3) 0.77413(17)
C5J C 1.0198(4) 0.6024(2) 0.77413(17)
H2A H 0.4197 0.3935 0.7851
H2J H 0.9738 0.5803 0.7851
C6A C 0.3870(2) 0.4588(3) 0.80879(16)
C6J C 1.0718(4) 0.6130(2) 0.80879(16)
H3A H 0.3997 0.4607 0.8432
H3J H 1.0610 0.6003 0.8432
C7A C 0.3288(3) 0.4387(4) 0.65255(16)
C7J C 1.1099(5) 0.6712(3) 0.65255(16)
H4A H 0.3491 0.4824 0.6340
H4J H 1.1333 0.6509 0.6340
H5A H 0.2788 0.4150 0.6480
H5J H 1.1362 0.7212 0.6480
C8A C 0.3585(3) 0.3925(4) 0.63143(17)
C8J C 1.0340(5) 0.6415(3) 0.63143(17)
C9A C 0.3771(3) 0.3663(5) 0.6819(2)
C9J C 0.9892(6) 0.6229(3) 0.6819(2)
H6A H 0.3434 0.3181 0.6885
H6J H 0.9747 0.6566 0.6885
H7A H 0.4228 0.3712 0.6793
H7J H 0.9484 0.5772 0.6793
C10A C 0.4238(2) 0.4359(3) 0.59863(18)
C10J C 1.0121(4) 0.5762(2) 0.59863(18)
H8A H 0.4183 0.4680 0.5765
H8J H 1.0497 0.5817 0.5765
H9A H 0.4645 0.4617 0.6202
H9J H 0.9972 0.5355 0.6202
C11A C 0.4292(2) 0.3810(3) 0.56691(15)
C11J C 0.9518(4) 0.5708(2) 0.56691(15)
C12A C 0.3632(3) 0.3188(4) 0.5676(2)
C12J C 0.9556(5) 0.6368(3) 0.5676(2)
C13A C 0.3121(4) 0.3350(4) 0.5963(3)
C13J C 1.0229(6) 0.6879(4) 0.5963(3)
H10A H 0.2883 0.3497 0.5725
H10J H 1.0614 0.7117 0.5725
H11A H 0.2781 0.2951 0.6156
H11J H 1.0170 0.7219 0.6156
C14A C 0.4726(2) 0.3223(3) 0.51305(14)
C14J C 0.8497(4) 0.5274(2) 0.51305(14)
C15A C 0.4815(2) 0.3825(2) 0.53977(14)
C15J C 0.9010(3) 0.5185(2) 0.53977(14)
H12A H 0.5241 0.4234 0.5383
H12J H 0.8993 0.4759 0.5383
C16A C 0.4080(4) 0.2614(3) 0.5159(3)
C16J C 0.8534(5) 0.5920(4) 0.5159(3)
H13A H 0.4027 0.2215 0.5002
H13J H 0.8188 0.5973 0.5002
C17A C 0.3508(4) 0.2584(4) 0.5416(3)
C17J C 0.9076(6) 0.6492(4) 0.5416(3)
H14A H 0.3073 0.2186 0.5413
H14J H 0.9113 0.6927 0.5413
C18A C 0.5286(2) 0.3235(2) 0.48380(13)
C18J C 0.7949(3) 0.4714(2) 0.48380(13)
C19A C 0.34652(17) 0.54298(18) 0.82816(13)
C19J C 1.19646(25) 0.65348(17) 0.82816(13)
loop_
_geom_bond_atom_site_label_1
_geom_bond_atom_site_label_2
_geom_bond_site_symmetry_1
_geom_bond_site_symmetry_2
Zn1 O1 1_555 1_555
Zn2 O1 1_555 1_555
O1 Zn2H 1_555 1_555
O2 Zn1 1_555 1_555
O3 Zn2 1_555 1_555
O4 C18 1_555 1_555
O5 C18 1_555 1_555
C1 C2 1_555 1_555
C2 H1 1_555 1_555
C3 C2 1_555 1_555
C4 C3 1_555 1_555
C5 C4 1_555 1_555
H2 C5 1_555 1_555
C6 C1 1_555 1_555
H3 C6 1_555 1_555
C7 C3 1_555 1_555
H4 C7 1_555 1_555
H5 C7 1_555 1_555
C8 C7 1_555 1_555
C9 C4 1_555 1_555
H6 C9 1_555 1_555
H7 C9 1_555 1_555
C10 C8 1_555 1_555
H8 C10 1_555 1_555
H9 C10 1_555 1_555
C11 C10 1_555 1_555
C12 C11 1_555 1_555
C13 C8 1_555 1_555
H10 C13 1_555 1_555
H11 C13 1_555 1_555
C14 C15 1_555 1_555
C15 C11 1_555 1_555
H12 C15 1_555 1_555
C16 C14 1_555 1_555
H13 C16 1_555 1_555
C17 C12 1_555 1_555
H14 C17 1_555 1_555
C18 C14 1_555 1_555
C19 O2 1_555 1_555
Zn1A O2A 1_555 1_555
Zn1J O2J 1_555 1_555
Zn2H O3H 1_555 1_555
Zn2K O1 1_555 1_555
Zn2A O4 1_555 1_555
Zn2I O5 1_555 1_555
Zn2A_2 O3A 1_555 1_555
Zn2J O3J 1_555 1_555
O2H Zn1 1_555 1_555
O2K Zn1 1_555 1_555
O2A C19A 1_555 1_555
O2J C19J 1_555 1_555
O3K Zn2K 1_555 1_555
O3A C19A 1_555 1_555
O3J C19J 1_555 1_555
O4A Zn2 1_555 1_555
O4J Zn2K 1_555 1_555
O4I Zn2H 1_555 1_555
O5A Zn2H 1_555 1_555
O5J Zn2 1_555 1_555
O5I Zn2K 1_555 1_555
C1A C2A 1_555 1_555
C1J C2J 1_555 1_555
C2A H1A 1_555 1_555
C2J H1J 1_555 1_555
C3A C2A 1_555 1_555
C3J C2J 1_555 1_555
C4A C3A 1_555 1_555
C4J C3J 1_555 1_555
C5A C4A 1_555 1_555
C5J C4J 1_555 1_555
H2A C5A 1_555 1_555
H2J C5J 1_555 1_555
C6A C1A 1_555 1_555
C6J C1J 1_555 1_555
H3A C6A 1_555 1_555
H3J C6J 1_555 1_555
C7A C3A 1_555 1_555
C7J C3J 1_555 1_555
H4A C7A 1_555 1_555
H4J C7J 1_555 1_555
H5A C7A 1_555 1_555
H5J C7J 1_555 1_555
C8A C7A 1_555 1_555
C8J C7J 1_555 1_555
C9A C4A 1_555 1_555
C9J C4J 1_555 1_555
H6A C9A 1_555 1_555
H6J C9J 1_555 1_555
H7A C9A 1_555 1_555
H7J C9J 1_555 1_555
C10A C8A 1_555 1_555
C10J C8J 1_555 1_555
H8A C10A 1_555 1_555
H8J C10J 1_555 1_555
H9A C10A 1_555 1_555
H9J C10J 1_555 1_555
C11A C10A 1_555 1_555
C11J C10J 1_555 1_555
C12A C11A 1_555 1_555
C12J C11J 1_555 1_555
C13A C8A 1_555 1_555
C13J C8J 1_555 1_555
H10A C13A 1_555 1_555
H10J C13J 1_555 1_555
H11A C13A 1_555 1_555
H11J C13J 1_555 1_555
C14A C15A 1_555 1_555
C14J C15J 1_555 1_555
C15A C11A 1_555 1_555
C15J C11J 1_555 1_555
H12A C15A 1_555 1_555
H12J C15J 1_555 1_555
C16A C14A 1_555 1_555
C16J C14J 1_555 1_555
H13A C16A 1_555 1_555
H13J C16J 1_555 1_555
C17A C12A 1_555 1_555
C17J C12J 1_555 1_555
H14A C17A 1_555 1_555
H14J C17J 1_555 1_555
C18A O4A 1_555 1_555
C18J O4J 1_555 1_555
C19A C1A 1_555 1_555
C19J C1J 1_555 1_555
O3 C19 1_555 1_555
C1 C19 1_555 1_555
C5 C6 1_555 1_555
C8 C9 1_555 1_555
C12 C13 1_555 1_555
C16 C17 1_555 1_555
O5A C18A 1_555 1_555
O5J C18J 1_555 1_555
C5A C6A 1_555 1_555
C5J C6J 1_555 1_555
C8A C9A 1_555 1_555
C8J C9J 1_555 1_555
C12A C13A 1_555 1_555
C12J C13J 1_555 1_555
C14A C18A 1_555 1_555
C14J C18J 1_555 1_555
C16A C17A 1_555 1_555
C16J C17J 1_555 1_555

#END
