
#######################################################################
#
#                 Cambridge Crystallographic Data Centre
#                                CCDC 
#
#######################################################################
#
# If this CIF has been generated from an entry in the Cambridge 
# Structural Database, then it will include bibliographic, chemical, 
# crystal, experimental, refinement or atomic coordinate data resulting 
# from the CCDC's data processing and validation procedures.
#
#######################################################################

data_RACZEC
_symmetry_cell_setting           orthorhombic
_symmetry_space_group_name_H-M   'P m n a'
_symmetry_Int_Tables_number      53
_space_group_name_Hall           '-P 2ac 2'
loop_
_symmetry_equiv_pos_site_id
_symmetry_equiv_pos_as_xyz
1 x,y,z
2 1/2-x,-y,1/2+z
3 1/2-x,y,1/2-z
4 x,-y,-z
5 -x,-y,-z
6 1/2+x,y,1/2-z
7 1/2+x,-y,1/2+z
8 -x,y,z
_cell_length_a                   26.271(4)
_cell_length_b                   8.9909(12)
_cell_length_c                   6.4018(9)
_cell_angle_alpha                90
_cell_angle_beta                 90
_cell_angle_gamma                90
_cell_volume                     1512.1
loop_
_atom_site_label
_atom_site_type_symbol
_atom_site_fract_x
_atom_site_fract_y
_atom_site_fract_z
Co1 Co 0.28523(4) 0.0000 0.0000
C1 C 0.2500 0.2583(8) 0.2500
C2 C 0.2500 0.4269(9) 0.2500
C3 C 0.20599(18) 0.5084(6) 0.2437(8)
C4 C 0.2059(2) 0.6628(6) 0.2395(9)
C5 C 0.2500 0.7440(8) 0.2500
C6 C 0.3913(2) 0.0719(8) 0.1428(11)
H1 H 0.3735 0.1233 0.2456
C7 C 0.4439(2) 0.0750(8) 0.1481(12)
H2 H 0.4606 0.1280 0.2521
C8 C 0.4713(3) 0.0000 0.0000
N1 N 0.3650(2) 0.0000 0.0000
O1 O 0.28692(14) 0.1958(4) 0.1638(6)
O2 O 0.2500 0.8949(6) 0.2500
F1 F 0.15987(11) 0.4412(3) 0.2340(6)
F2 F 0.16077(11) 0.7346(3) 0.2272(6)
Co1D Co 0.71477(4) 0.0000 0.0000
Co1_2 Co 0.28523(4) 1.0000 0.0000
Co1A Co 0.21477(4) 1.0000 0.5000
Co1A_2 Co 0.21477(4) 0.0000 0.5000
C3B C 0.29401(18) 0.5084(6) 0.2563(8)
C4B C 0.2941(2) 0.6628(6) 0.2605(9)
C6C C 0.3913(2) -0.0719(8) -0.1428(11)
C6D C 0.6087(2) -0.0719(8) -0.1428(11)
C6G C 0.6087(2) 0.0719(8) 0.1428(11)
H1C H 0.3735 -0.1233 -0.2456
H1D H 0.6265 -0.1233 -0.2456
H1G H 0.6265 0.1233 0.2456
C7C C 0.4439(2) -0.0750(8) -0.1481(12)
C7D C 0.5561(2) -0.0750(8) -0.1481(12)
C7G C 0.5561(2) 0.0750(8) 0.1481(12)
H2C H 0.4606 -0.1280 -0.2521
H2G H 0.5394 0.1280 0.2521
H2D H 0.5394 -0.1280 -0.2521
C8D C 0.5287(3) 0.0000 0.0000
N1D N 0.6350(2) 0.0000 0.0000
O1B O 0.21308(14) 0.1958(4) 0.3362(6)
O1C O 0.28692(14) -0.1958(4) -0.1638(6)
O2_2 O 0.2500 -0.1051(6) 0.2500
O2A O 0.2500 0.1051(6) -0.2500
F1B F 0.34013(11) 0.4412(3) 0.2660(6)
F2B F 0.33923(11) 0.7346(3) 0.2728(6)
C9 C 0.4583(3) 0.6798(10) 0.3666(14)
H3 H 0.4275 0.7094 0.4252
C10 C 0.4565(3) 0.5925(9) 0.1886(13)
H4 H 0.4251 0.5648 0.1334
C11 C 0.5000 0.5470(10) 0.0941(15)
N2 N 0.5000 0.7235(10) 0.4580(13)
C9G C 0.5417(3) 0.6798(10) 0.3666(14)
C9C C 0.4583(3) 0.3202(10) -0.3666(14)
C9D C 0.5417(3) 0.3202(10) -0.3666(14)
H3G H 0.5725 0.7094 0.4252
H3C H 0.4275 0.2906 -0.4252
H3D H 0.5725 0.2906 -0.4252
C10G C 0.5435(3) 0.5925(9) 0.1886(13)
C10C C 0.4565(3) 0.4075(9) -0.1886(13)
C10D C 0.5435(3) 0.4075(9) -0.1886(13)
H4G H 0.5749 0.5648 0.1334
H4D H 0.5749 0.4352 -0.1334
H4C H 0.4251 0.4352 -0.1334
C11C C 0.5000 0.4530(10) -0.0941(15)
N2C N 0.5000 0.2765(10) -0.4580(13)
loop_
_geom_bond_atom_site_label_1
_geom_bond_atom_site_label_2
_geom_bond_site_symmetry_1
_geom_bond_site_symmetry_2
Co1 N1 1_555 1_555
C1 C2 1_555 1_555
C2 C3 1_555 1_555
C3 C4 1_555 1_555
C4 C5 1_555 1_555
C5 O2 1_555 1_555
C6 H1 1_555 1_555
C7 C6 1_555 1_555
H2 C7 1_555 1_555
C8 C7 1_555 1_555
C9 H3 1_555 1_555
C10 C9 1_555 1_555
H4 C10 1_555 1_555
C11 C10 1_555 1_555
N1 C6 1_555 1_555
N2 C9 1_555 1_555
O1 Co1 1_555 1_555
O2 Co1_2 1_555 1_555
F1 C3 1_555 1_555
F2 C4 1_555 1_555
Co1D N1D 1_555 1_555
Co1A O2 1_555 1_555
Co1A_2 O1B 1_555 1_555
C3B C2 1_555 1_555
C4B C5 1_555 1_555
C6C N1 1_555 1_555
C6D H1D 1_555 1_555
C6G H1G 1_555 1_555
H1C C6C 1_555 1_555
C7C C8 1_555 1_555
C7D C6D 1_555 1_555
C7G C6G 1_555 1_555
H2C C7C 1_555 1_555
H2G C7G 1_555 1_555
H2D C7D 1_555 1_555
C8D C8 1_555 1_555
C9G N2 1_555 1_555
C9C H3C 1_555 1_555
C9D H3D 1_555 1_555
H3G C9G 1_555 1_555
C10G C11 1_555 1_555
C10C C9C 1_555 1_555
C10D C9D 1_555 1_555
H4G C10G 1_555 1_555
H4D C10D 1_555 1_555
H4C C10C 1_555 1_555
C11C C11 1_555 1_555
N1D C6D 1_555 1_555
N2C C9C 1_555 1_555
O1B C1 1_555 1_555
O1C Co1 1_555 1_555
O2_2 Co1 1_555 1_555
O2A Co1 1_555 1_555
F1B C3B 1_555 1_555
F2B C4B 1_555 1_555
C1 O1 1_555 1_555
Co1A_2 O2_2 1_555 1_555
C3B C4B 1_555 1_555
C6C C7C 1_555 1_555
C6G N1D 1_555 1_555
C7D C8D 1_555 1_555
C7G C8D 1_555 1_555
C9G C10G 1_555 1_555
C9D N2C 1_555 1_555
C10C C11C 1_555 1_555
C10D C11C 1_555 1_555

#END
