
#######################################################################
#
#                 Cambridge Crystallographic Data Centre
#                                CCDC 
#
#######################################################################
#
# If this CIF has been generated from an entry in the Cambridge 
# Structural Database, then it will include bibliographic, chemical, 
# crystal, experimental, refinement or atomic coordinate data resulting 
# from the CCDC's data processing and validation procedures.
#
#######################################################################

data_RACZIG
_symmetry_cell_setting           orthorhombic
_symmetry_space_group_name_H-M   'P m n a'
_symmetry_Int_Tables_number      53
_space_group_name_Hall           '-P 2ac 2'
loop_
_symmetry_equiv_pos_site_id
_symmetry_equiv_pos_as_xyz
1 x,y,z
2 1/2-x,-y,1/2+z
3 1/2-x,y,1/2-z
4 x,-y,-z
5 -x,-y,-z
6 1/2+x,y,1/2-z
7 1/2+x,-y,1/2+z
8 -x,y,z
_cell_length_a                   26.376(3)
_cell_length_b                   8.9842(10)
_cell_length_c                   6.3964(7)
_cell_angle_alpha                90
_cell_angle_beta                 90
_cell_angle_gamma                90
_cell_volume                     1515.74
loop_
_atom_site_label
_atom_site_type_symbol
_atom_site_fract_x
_atom_site_fract_y
_atom_site_fract_z
Zn1 Zn 0.28656(2) 0.0000 0.0000
C1 C 0.2500 0.2567(6) 0.2500
C2 C 0.2500 0.4246(7) 0.2500
C3 C 0.20573(14) 0.5077(5) 0.2454(6)
C4 C 0.20565(16) 0.6615(5) 0.2416(7)
C5 C 0.2500 0.7446(6) 0.2500
C6 C 0.39191(19) 0.0711(6) 0.1455(9)
H1 H 0.3744 0.1216 0.2499
C7 C 0.44389(18) 0.0739(6) 0.1499(9)
H2 H 0.4606 0.1261 0.2548
C8 C 0.4714(2) 0.0000 0.0000
N1 N 0.36525(18) 0.0000 0.0000
O1 O 0.28689(11) 0.1939(3) 0.1638(5)
O2 O 0.2500 0.8939(4) 0.2500
F1 F 0.16001(9) 0.4395(3) 0.2362(5)
F2 F 0.16083(9) 0.7337(3) 0.2294(5)
Zn1_2 Zn 0.28656(2) 1.0000 0.0000
Zn1A Zn 0.21344(2) 0.0000 0.5000
Zn1A_2 Zn 0.21344(2) 1.0000 0.5000
Zn1D Zn 0.71344(2) 0.0000 0.0000
C3B C 0.29427(14) 0.5077(5) 0.2546(6)
C4B C 0.29435(16) 0.6615(5) 0.2584(7)
C6C C 0.39191(19) -0.0711(6) -0.1455(9)
C6D C 0.60809(19) -0.0711(6) -0.1455(9)
C6G C 0.60809(19) 0.0711(6) 0.1455(9)
H1C H 0.3744 -0.1216 -0.2499
H1D H 0.6256 -0.1216 -0.2499
H1G H 0.6256 0.1216 0.2499
C7C C 0.44389(18) -0.0739(6) -0.1499(9)
C7D C 0.55611(18) -0.0739(6) -0.1499(9)
C7G C 0.55611(18) 0.0739(6) 0.1499(9)
H2C H 0.4606 -0.1261 -0.2548
H2D H 0.5394 -0.1261 -0.2548
H2G H 0.5394 0.1261 0.2548
C8D C 0.5286(2) 0.0000 0.0000
N1D N 0.63475(18) 0.0000 0.0000
O1B O 0.21311(11) 0.1939(3) 0.3362(5)
O1C O 0.28689(11) -0.1939(3) -0.1638(5)
O2_2 O 0.2500 -0.1061(4) 0.2500
O2A O 0.2500 0.1061(4) -0.2500
F1B F 0.33999(9) 0.4395(3) 0.2638(5)
F2B F 0.33917(9) 0.7337(3) 0.2706(5)
C9 C 0.4581(2) 0.6806(8) 0.3669(11)
H3 H 0.4275 0.7099 0.4262
C10 C 0.4561(2) 0.5941(8) 0.1884(10)
H4 H 0.4249 0.5689 0.1307
C11 C 0.5000 0.5453(8) 0.0961(12)
N2 N 0.5000 0.7245(8) 0.4590(11)
C9C C 0.4581(2) 0.3194(8) -0.3669(11)
C9D C 0.5419(2) 0.3194(8) -0.3669(11)
C9G C 0.5419(2) 0.6806(8) 0.3669(11)
H3C H 0.4275 0.2901 -0.4262
H3D H 0.5725 0.2901 -0.4262
H3G H 0.5725 0.7099 0.4262
C10C C 0.4561(2) 0.4059(8) -0.1884(10)
C10D C 0.5439(2) 0.4059(8) -0.1884(10)
C10G C 0.5439(2) 0.5941(8) 0.1884(10)
H4C H 0.4249 0.4311 -0.1307
H4D H 0.5751 0.4311 -0.1307
H4G H 0.5751 0.5689 0.1307
C11C C 0.5000 0.4547(8) -0.0961(12)
N2C N 0.5000 0.2755(8) -0.4590(11)
loop_
_geom_bond_atom_site_label_1
_geom_bond_atom_site_label_2
_geom_bond_site_symmetry_1
_geom_bond_site_symmetry_2
Zn1 N1 1_555 1_555
C1 C2 1_555 1_555
C2 C3 1_555 1_555
C3 C4 1_555 1_555
C4 C5 1_555 1_555
C5 O2 1_555 1_555
C6 H1 1_555 1_555
C7 C6 1_555 1_555
H2 C7 1_555 1_555
C8 C7 1_555 1_555
C9 H3 1_555 1_555
C10 C9 1_555 1_555
H4 C10 1_555 1_555
C11 C10 1_555 1_555
N1 C6 1_555 1_555
N2 C9 1_555 1_555
O1 Zn1 1_555 1_555
O2 Zn1_2 1_555 1_555
F1 C3 1_555 1_555
F2 C4 1_555 1_555
Zn1A O1B 1_555 1_555
Zn1A_2 O2 1_555 1_555
Zn1D N1D 1_555 1_555
C3B C2 1_555 1_555
C4B C5 1_555 1_555
C6C N1 1_555 1_555
C6D H1D 1_555 1_555
C6G H1G 1_555 1_555
H1C C6C 1_555 1_555
C7C C8 1_555 1_555
C7D C6D 1_555 1_555
C7G C6G 1_555 1_555
H2C C7C 1_555 1_555
H2D C7D 1_555 1_555
H2G C7G 1_555 1_555
C8D C8 1_555 1_555
C9C H3C 1_555 1_555
C9D H3D 1_555 1_555
C9G N2 1_555 1_555
H3G C9G 1_555 1_555
C10C C9C 1_555 1_555
C10D C9D 1_555 1_555
C10G C11 1_555 1_555
H4C C10C 1_555 1_555
H4D C10D 1_555 1_555
H4G C10G 1_555 1_555
C11C C11 1_555 1_555
N1D C6D 1_555 1_555
N2C C9C 1_555 1_555
O1B C1 1_555 1_555
O1C Zn1 1_555 1_555
O2_2 Zn1 1_555 1_555
O2A Zn1 1_555 1_555
F1B C3B 1_555 1_555
F2B C4B 1_555 1_555
C1 O1 1_555 1_555
Zn1A O2_2 1_555 1_555
C3B C4B 1_555 1_555
C6C C7C 1_555 1_555
C6G N1D 1_555 1_555
C7D C8D 1_555 1_555
C7G C8D 1_555 1_555
C9D N2C 1_555 1_555
C9G C10G 1_555 1_555
C10C C11C 1_555 1_555
C10D C11C 1_555 1_555

#END
