
#######################################################################
#
#                 Cambridge Crystallographic Data Centre
#                                CCDC 
#
#######################################################################
#
# If this CIF has been generated from an entry in the Cambridge 
# Structural Database, then it will include bibliographic, chemical, 
# crystal, experimental, refinement or atomic coordinate data resulting 
# from the CCDC's data processing and validation procedures.
#
#######################################################################

data_RAHMAP
_symmetry_cell_setting           monoclinic
_symmetry_space_group_name_H-M   'P 2/c'
_symmetry_Int_Tables_number      13
_space_group_name_Hall           '-P 2yc'
loop_
_symmetry_equiv_pos_site_id
_symmetry_equiv_pos_as_xyz
1 x,y,z
2 x,-y,1/2+z
3 -x,-y,-z
4 -x,y,1/2-z
_cell_length_a                   10.1763(4)
_cell_length_b                   11.1598(4)
_cell_length_c                   14.8557(5)
_cell_angle_alpha                90
_cell_angle_beta                 107.0350(10)
_cell_angle_gamma                90
_cell_volume                     1613.07
loop_
_atom_site_label
_atom_site_type_symbol
_atom_site_fract_x
_atom_site_fract_y
_atom_site_fract_z
Cu1 Cu 0.03066(5) 0.25026(4) 0.00000(3)
O1 O -0.1491(3) 0.1722(3) -0.00860(19)
O2 O -0.2930(3) 0.0676(3) 0.0463(2)
O3 O -0.0125(3) 0.3655(3) 0.0844(2)
O4 O -0.1329(4) 0.4235(3) 0.1787(2)
O5 O -0.0599(3) -0.1156(3) 0.0756(2)
O6 O -0.1443(3) -0.1816(3) 0.1905(2)
O7 O -0.0589(4) 0.3638(4) -0.1390(3)
H1 H -0.028(8) 0.429(7) -0.150(5)
H2 H -0.066(6) 0.331(5) -0.184(4)
N1 N 0.2134(3) 0.3291(3) 0.0181(2)
C1 C 0.2188(5) 0.4488(4) 0.0291(3)
H7 H 0.1447 0.4872 0.0412
C2 C 0.3279(4) 0.5168(4) 0.0233(3)
H8 H 0.3257 0.5995 0.0309
C3 C 0.4416(4) 0.4642(4) 0.0063(3)
C4 C 0.4391(5) 0.3392(4) 0.0000(3)
H9 H 0.5147 0.2984 -0.0078
C5 C 0.3253(5) 0.2758(4) 0.0052(3)
H10 H 0.3259 0.1928 -0.0004
C6 C -0.0668(4) 0.3481(4) 0.1512(3)
C7 C -0.0369(4) 0.2280(4) 0.2015(3)
C8 C -0.1807(4) 0.1190(3) 0.0564(3)
C9 C -0.0799(4) 0.1199(4) 0.1554(3)
C10 C -0.0422(4) 0.0119(4) 0.2033(3)
C11 C -0.0876(4) -0.1057(3) 0.1530(3)
C7C C 0.0369(4) 0.2280(4) 0.2985(3)
C6C C 0.0668(4) 0.3481(4) 0.3488(3)
O3C O 0.0125(3) 0.3655(3) 0.4156(2)
O4C O 0.1329(4) 0.4235(3) 0.3213(2)
C9C C 0.0799(4) 0.1199(4) 0.3446(3)
C8C C 0.1807(4) 0.1190(3) 0.4436(3)
O1C O 0.1491(3) 0.1722(3) 0.50860(19)
O2C O 0.2930(3) 0.0676(3) 0.4537(2)
C10C C 0.0422(4) 0.0119(4) 0.2967(3)
C11C C 0.0876(4) -0.1057(3) 0.3470(3)
O5C O 0.0599(3) -0.1156(3) 0.4244(2)
O6C O 0.1443(3) -0.1816(3) 0.3095(2)
C3B C 0.5584(4) 0.5358(4) -0.0063(3)
C2B C 0.6721(4) 0.4832(4) -0.0233(3)
C1B C 0.7812(5) 0.5512(4) -0.0291(3)
N1B N 0.7866(3) 0.6709(3) -0.0181(2)
C5B C 0.6747(5) 0.7242(4) -0.0052(3)
C4B C 0.5609(5) 0.6608(4) 0.0000(3)
H9B H 0.4853 0.7016 0.0078
H10B H 0.6741 0.8072 0.0004
H7B H 0.8553 0.5128 -0.0412
H8B H 0.6743 0.4005 -0.0309
Cu1C Cu -0.03066(5) 0.25026(4) 0.50000(3)
O7C O 0.0589(4) 0.3638(4) 0.6390(3)
H1C H 0.028(8) 0.429(7) 0.650(5)
H2C H 0.066(6) 0.331(5) 0.684(4)
O5B O 0.0599(3) 0.1156(3) -0.0756(2)
Cu1B Cu -0.03066(5) -0.25026(4) 0.00000(3)
Cu1A Cu 0.03066(5) -0.25026(4) 0.50000(3)
Cu1B_2 Cu 0.96934(5) 0.74974(4) 0.00000(3)
O5A O -0.0599(3) 0.1156(3) 0.5756(2)
N1C N -0.2134(3) 0.3291(3) 0.4819(2)
Cu2 Cu 0.5000 -1.08382(6) 0.2500
O8 O 0.5253(4) -1.0814(3) 0.1090(2)
H3 H 0.584(6) -1.028(5) 0.100(4)
H4 H 0.461(6) -1.078(5) 0.068(4)
O9 O 0.2804(3) -1.0833(3) 0.1898(3)
H5 H 0.243(7) -1.105(6) 0.139(5)
H6 H 0.234(6) -1.112(5) 0.222(4)
N2 N 0.5000 -0.9021(4) 0.2500
N3 N 0.5000 -0.2642(4) 0.2500
C12 C 0.3878(4) -0.8389(4) 0.2517(3)
H11 H 0.3091 -0.8805 0.2528
C13 C 0.3847(4) -0.7156(4) 0.2519(3)
H12 H 0.3050 -0.6759 0.2533
C14 C 0.5000 -0.6500(5) 0.2500
C15 C 0.5000 -0.5165(5) 0.2500
C16 C 0.6033(4) -0.4505(4) 0.2276(3)
H13 H 0.6748 -0.4899 0.2129
C17 C 0.5986(4) -0.3273(4) 0.2274(3)
H14 H 0.6671 -0.2855 0.2107
C13C C 0.6153(4) -0.7156(4) 0.2481(3)
C12C C 0.6122(4) -0.8389(4) 0.2483(3)
H11C H 0.6909 -0.8805 0.2472
H12C H 0.6950 -0.6759 0.2467
C17C C 0.4014(4) -0.3273(4) 0.2726(3)
C16C C 0.3967(4) -0.4505(4) 0.2724(3)
H13C H 0.3252 -0.4899 0.2871
H14C H 0.3329 -0.2855 0.2893
O8C O 0.4747(4) -1.0814(3) 0.3910(2)
H3C H 0.416(6) -1.028(5) 0.400(4)
H4C H 0.539(6) -1.078(5) 0.432(4)
O9C O 0.7196(3) -1.0833(3) 0.3102(3)
H5C H 0.757(7) -1.105(6) 0.361(5)
H6C H 0.766(6) -1.112(5) 0.278(4)
N3_2 N 0.5000 -1.2642(4) 0.2500
Cu2_2 Cu 0.5000 -0.08382(6) 0.2500
loop_
_geom_bond_atom_site_label_1
_geom_bond_atom_site_label_2
_geom_bond_site_symmetry_1
_geom_bond_site_symmetry_2
Cu1 O1 1_555 1_555
Cu2 O8 1_555 1_555
O1 C8 1_555 1_555
O2 C8 1_555 1_555
O3 Cu1 1_555 1_555
O4 C6 1_555 1_555
O5 C11 1_555 1_555
O6 C11 1_555 1_555
O7 Cu1 1_555 1_555
H1 O7 1_555 1_555
H2 O7 1_555 1_555
O8 H3 1_555 1_555
H4 O8 1_555 1_555
O9 Cu2 1_555 1_555
H5 O9 1_555 1_555
H6 O9 1_555 1_555
N1 Cu1 1_555 1_555
N2 Cu2 1_555 1_555
N3 C17 1_555 1_555
C1 N1 1_555 1_555
H7 C1 1_555 1_555
C2 C1 1_555 1_555
H8 C2 1_555 1_555
C3 C2 1_555 1_555
C4 C3 1_555 1_555
H9 C4 1_555 1_555
C5 N1 1_555 1_555
H10 C5 1_555 1_555
C6 O3 1_555 1_555
C7 C6 1_555 1_555
C8 C9 1_555 1_555
C9 C7 1_555 1_555
C10 C9 1_555 1_555
C11 C10 1_555 1_555
C12 N2 1_555 1_555
H11 C12 1_555 1_555
C13 C12 1_555 1_555
H12 C13 1_555 1_555
C14 C13 1_555 1_555
C15 C14 1_555 1_555
C16 C15 1_555 1_555
H13 C16 1_555 1_555
C17 C16 1_555 1_555
H14 C17 1_555 1_555
C7C C7 1_555 1_555
C6C C7C 1_555 1_555
O3C C6C 1_555 1_555
O4C C6C 1_555 1_555
C9C C7C 1_555 1_555
C8C C9C 1_555 1_555
O1C C8C 1_555 1_555
O2C C8C 1_555 1_555
C10C C10 1_555 1_555
C11C C10C 1_555 1_555
O5C C11C 1_555 1_555
O6C C11C 1_555 1_555
C3B C3 1_555 1_555
C2B C3B 1_555 1_555
C1B C2B 1_555 1_555
N1B C1B 1_555 1_555
C5B N1B 1_555 1_555
C4B C3B 1_555 1_555
H9B C4B 1_555 1_555
H10B C5B 1_555 1_555
H7B C1B 1_555 1_555
H8B C2B 1_555 1_555
C13C C14 1_555 1_555
C12C N2 1_555 1_555
H11C C12C 1_555 1_555
H12C C13C 1_555 1_555
C17C N3 1_555 1_555
C16C C15 1_555 1_555
H13C C16C 1_555 1_555
H14C C17C 1_555 1_555
O8C Cu2 1_555 1_555
H3C O8C 1_555 1_555
H4C O8C 1_555 1_555
O9C Cu2 1_555 1_555
H5C O9C 1_555 1_555
H6C O9C 1_555 1_555
Cu1C O3C 1_555 1_555
O7C Cu1C 1_555 1_555
H1C O7C 1_555 1_555
H2C O7C 1_555 1_555
O5B Cu1 1_555 1_555
N3_2 Cu2 1_555 1_555
Cu1B O5 1_555 1_555
Cu2_2 N3 1_555 1_555
Cu1A O5C 1_555 1_555
Cu1B_2 N1B 1_555 1_555
O5A Cu1C 1_555 1_555
N1C Cu1C 1_555 1_555
C4 C5 1_555 1_555
C9C C10C 1_555 1_555
O1C Cu1C 1_555 1_555
C5B C4B 1_555 1_555
C13C C12C 1_555 1_555
C17C C16C 1_555 1_555

#END
