
#######################################################################
#
#                 Cambridge Crystallographic Data Centre
#                                CCDC 
#
#######################################################################
#
# If this CIF has been generated from an entry in the Cambridge 
# Structural Database, then it will include bibliographic, chemical, 
# crystal, experimental, refinement or atomic coordinate data resulting 
# from the CCDC's data processing and validation procedures.
#
#######################################################################

data_RAJFAL
_symmetry_cell_setting           triclinic
_symmetry_space_group_name_H-M   'P -1'
_symmetry_Int_Tables_number      2
_space_group_name_Hall           '-P 1'
loop_
_symmetry_equiv_pos_site_id
_symmetry_equiv_pos_as_xyz
1 x,y,z
2 -x,-y,-z
_cell_length_a                   9.824(5)
_cell_length_b                   9.963(5)
_cell_length_c                   10.150(5)
_cell_angle_alpha                74.044(5)
_cell_angle_beta                 86.361(5)
_cell_angle_gamma                78.328(5)
_cell_volume                     935.388
loop_
_atom_site_label
_atom_site_type_symbol
_atom_site_fract_x
_atom_site_fract_y
_atom_site_fract_z
Ca1 Ca 0.49216(4) 0.12032(4) 0.11653(4)
Ca2 Ca 0.5000 0.0000 0.5000
C1 C 0.5512(2) -0.6870(2) 0.24692(19)
C2 C 0.5939(2) -0.5804(2) 0.30782(19)
C3 C 0.6653(2) -0.6247(2) 0.43005(19)
H1 H 0.6914 -0.7212 0.4730
C4 C 0.6982(2) -0.5244(2) 0.48885(19)
C5 C 0.6545(2) -0.3810(2) 0.42814(19)
H2 H 0.6724 -0.3140 0.4696
C6 C 0.5834(2) -0.3372(2) 0.30407(18)
C7 C 0.5555(2) -0.4367(2) 0.24236(19)
H3 H 0.5115 -0.4073 0.1579
C8 C 0.5347(2) -0.1823(2) 0.24076(19)
C9 C 0.8087(3) -0.4769(2) 0.6725(2)
H4 H 0.7260 -0.4163 0.6964
H5 H 0.8646 -0.4173 0.6096
C10 C 0.8900(2) -0.5606(2) 0.7988(2)
C11 C 0.8294(2) -0.5750(2) 0.9283(2)
H6 H 0.7362 -0.5355 0.9376
C12 C 0.9086(2) -0.6487(3) 1.0436(2)
H7 H 0.8681 -0.6569 1.1301
C13 C 1.0471(2) -0.7103(2) 1.0321(2)
C14 C 1.1340(3) -0.7857(3) 1.1570(2)
C15 C 1.1053(3) -0.6979(3) 0.9020(2)
H8 H 1.1974 -0.7404 0.8923
C16 C 1.0279(3) -0.6234(3) 0.7875(2)
H9 H 1.0688 -0.6150 0.7012
O1 O 1.07663(19) -0.8000(2) 1.27205(16)
O2 O 1.26097(18) -0.8319(2) 1.14084(18)
O3 O 0.77075(18) -0.57804(15) 0.60956(15)
O4 O 0.54587(17) -0.81078(14) 0.32385(14)
O5 O 0.52014(19) -0.65121(15) 0.12374(14)
O6 O 0.52058(17) -0.09606(14) 0.31392(14)
O7 O 0.50799(16) -0.13759(14) 0.11456(13)
O8 O 0.25970(19) 0.0722(2) 0.47443(17)
O9 O 0.73198(19) 0.0658(2) 0.07872(19)
Ca1_2 Ca 0.49216(4) 1.12032(4) 0.11653(4)
Ca1_3 Ca 1.49216(4) -0.87968(4) 1.11653(4)
Ca1_4 Ca 0.49216(4) -0.87968(4) 0.11653(4)
Ca1A Ca 0.50784(4) -0.12032(4) -0.11653(4)
Ca1_5 Ca 1.49216(4) 0.12032(4) 1.11653(4)
Ca1A_2 Ca 0.50784(4) 0.87968(4) -0.11653(4)
Ca2_2 Ca 0.5000 -1.0000 0.5000
Ca2_3 Ca 0.5000 1.0000 0.5000
C1_2 C 0.5512(2) 0.3130(2) 0.24692(19)
C2_2 C 0.5939(2) 0.4196(2) 0.30782(19)
C3_2 C 0.6653(2) 0.3753(2) 0.43005(19)
H1_2 H 0.6914 0.2788 0.4730
C4_2 C 0.6982(2) 0.4756(2) 0.48885(19)
C5_2 C 0.6545(2) 0.6190(2) 0.42814(19)
H2_2 H 0.6724 0.6860 0.4696
C6_2 C 0.5834(2) 0.6628(2) 0.30407(18)
C7_2 C 0.5555(2) 0.5633(2) 0.24236(19)
H3_2 H 0.5115 0.5927 0.1579
C8_2 C 0.5347(2) 0.8177(2) 0.24076(19)
C9_2 C 0.8087(3) 0.5231(2) 0.6725(2)
H4_2 H 0.7260 0.5837 0.6964
H5_2 H 0.8646 0.5827 0.6096
C10_2 C 0.8900(2) 0.4394(2) 0.7988(2)
C11_2 C 0.8294(2) 0.4250(2) 0.9283(2)
H6_2 H 0.7362 0.4645 0.9376
C12_2 C 0.9086(2) 0.3513(3) 1.0436(2)
H7_2 H 0.8681 0.3431 1.1301
C13_2 C 1.0471(2) 0.2897(2) 1.0321(2)
C14_2 C 1.1340(3) 0.2143(3) 1.1570(2)
C15_2 C 1.1053(3) 0.3021(3) 0.9020(2)
H8_2 H 1.1974 0.2596 0.8923
C16_2 C 1.0279(3) 0.3766(3) 0.7875(2)
H9_2 H 1.0688 0.3850 0.7012
O1_2 O 1.07663(19) 0.2000(2) 1.27205(16)
O2_2 O 1.26097(18) 0.1681(2) 1.14084(18)
O2_3 O 0.26097(18) 0.1681(2) 0.14084(18)
O2_4 O 0.26097(18) 1.1681(2) 0.14084(18)
O3_2 O 0.77075(18) 0.42196(15) 0.60956(15)
O4_2 O 0.54587(17) 0.18922(14) 0.32385(14)
O4A O 0.45413(17) -0.18922(14) 0.67615(14)
O4_3 O 0.54587(17) 1.18922(14) 0.32385(14)
O5_2 O 0.52014(19) 0.34879(15) 0.12374(14)
O5_3 O 0.52014(19) 1.34879(15) 0.12374(14)
O6_2 O 0.52058(17) 0.90394(14) 0.31392(14)
O6A O 0.47942(17) 0.09606(14) 0.68608(14)
O7_2 O 0.50799(16) 0.86241(14) 0.11456(13)
O7A O 0.49201(16) 0.13759(14) -0.11456(13)
O7A_2 O 0.49201(16) 1.13759(14) -0.11456(13)
O8A O 0.74030(19) -0.0722(2) 0.52557(17)
O9_2 O 0.73198(19) 1.0658(2) 0.07872(19)
O10 O -0.0905(2) 0.0035(3) 0.2964(2)
O11 O 0.8233(3) -0.8727(2) 0.7853(2)
loop_
_geom_bond_atom_site_label_1
_geom_bond_atom_site_label_2
_geom_bond_site_symmetry_1
_geom_bond_site_symmetry_2
Ca1 O6 1_555 1_555
Ca2 O6 1_555 1_555
C1 C2 1_555 1_555
C2 C3 1_555 1_555
C3 H1 1_555 1_555
C4 C3 1_555 1_555
C5 C4 1_555 1_555
H2 C5 1_555 1_555
C6 C5 1_555 1_555
C7 C2 1_555 1_555
H3 C7 1_555 1_555
C8 C6 1_555 1_555
C9 H4 1_555 1_555
H5 C9 1_555 1_555
C10 C9 1_555 1_555
C11 C10 1_555 1_555
H6 C11 1_555 1_555
C12 C11 1_555 1_555
H7 C12 1_555 1_555
C13 C12 1_555 1_555
C14 C13 1_555 1_555
C15 C13 1_555 1_555
H8 C15 1_555 1_555
C16 C10 1_555 1_555
H9 C16 1_555 1_555
O1 C14 1_555 1_555
O2 C14 1_555 1_555
O3 C4 1_555 1_555
O4 C1 1_555 1_555
O5 C1 1_555 1_555
O6 C8 1_555 1_555
O7 Ca1 1_555 1_555
O8 Ca2 1_555 1_555
O9 Ca1 1_555 1_555
Ca1_2 O2_4 1_555 1_555
Ca1_3 O2 1_555 1_555
Ca1_4 O4 1_555 1_555
Ca1A O7 1_555 1_555
Ca1_5 O2_2 1_555 1_555
Ca1A_2 O7_2 1_555 1_555
Ca2_2 O4 1_555 1_555
Ca2_3 O4_3 1_555 1_555
C1_2 C2_2 1_555 1_555
C2_2 C3_2 1_555 1_555
C3_2 H1_2 1_555 1_555
C4_2 C3_2 1_555 1_555
C5_2 C4_2 1_555 1_555
H2_2 C5_2 1_555 1_555
C6_2 C5_2 1_555 1_555
C7_2 C2_2 1_555 1_555
H3_2 C7_2 1_555 1_555
C8_2 C6_2 1_555 1_555
C9_2 H4_2 1_555 1_555
H5_2 C9_2 1_555 1_555
C10_2 C9_2 1_555 1_555
C11_2 C10_2 1_555 1_555
H6_2 C11_2 1_555 1_555
C12_2 C11_2 1_555 1_555
H7_2 C12_2 1_555 1_555
C13_2 C12_2 1_555 1_555
C14_2 C13_2 1_555 1_555
C15_2 C13_2 1_555 1_555
H8_2 C15_2 1_555 1_555
C16_2 C10_2 1_555 1_555
H9_2 C16_2 1_555 1_555
O1_2 C14_2 1_555 1_555
O2_2 C14_2 1_555 1_555
O2_3 Ca1 1_555 1_555
O3_2 C4_2 1_555 1_555
O4_2 Ca1 1_555 1_555
O4A Ca2 1_555 1_555
O4_3 Ca1_2 1_555 1_555
O5_2 Ca1 1_555 1_555
O5_3 Ca1_2 1_555 1_555
O6_2 Ca1_2 1_555 1_555
O6A Ca2 1_555 1_555
O7_2 Ca1_2 1_555 1_555
O7A Ca1 1_555 1_555
O7A_2 Ca1_2 1_555 1_555
O8A Ca2 1_555 1_555
O9_2 Ca1_2 1_555 1_555
Ca2 O4_2 1_555 1_555
C6 C7 1_555 1_555
C8 O7 1_555 1_555
C9 O3 1_555 1_555
C15 C16 1_555 1_555
O5 Ca1_4 1_555 1_555
Ca1A O7A 1_555 1_555
Ca1A_2 O7A_2 1_555 1_555
Ca2_3 O6_2 1_555 1_555
C1_2 O4_2 1_555 1_555
C1_2 O5_2 1_555 1_555
C6_2 C7_2 1_555 1_555
C8_2 O6_2 1_555 1_555
C8_2 O7_2 1_555 1_555
C9_2 O3_2 1_555 1_555
C15_2 C16_2 1_555 1_555

#END
