
#######################################################################
#
#                 Cambridge Crystallographic Data Centre
#                                CCDC 
#
#######################################################################
#
# If this CIF has been generated from an entry in the Cambridge 
# Structural Database, then it will include bibliographic, chemical, 
# crystal, experimental, refinement or atomic coordinate data resulting 
# from the CCDC's data processing and validation procedures.
#
#######################################################################

data_RAPYOY
_symmetry_cell_setting           monoclinic
_symmetry_space_group_name_H-M   'P 21'
_symmetry_Int_Tables_number      4
_space_group_name_Hall           'P 2yb'
loop_
_symmetry_equiv_pos_site_id
_symmetry_equiv_pos_as_xyz
1 x,y,z
2 -x,1/2+y,-z
_cell_length_a                   19.293(4)
_cell_length_b                   14.332(3)
_cell_length_c                   10.3246(14)
_cell_angle_alpha                90
_cell_angle_beta                 90.114(10)
_cell_angle_gamma                90
_cell_volume                     2854.82
loop_
_atom_site_label
_atom_site_type_symbol
_atom_site_fract_x
_atom_site_fract_y
_atom_site_fract_z
Zn1 Zn 0.25370(5) 0.58110(7) 0.84488(11)
Zn2 Zn 0.25274(5) 0.51172(8) 0.53018(11)
Zn3 Zn 0.24626(5) 0.71712(7) 0.34462(11)
Zn4 Zn 0.24741(5) 0.78701(8) 0.02978(11)
O1 O 0.2521(3) 0.6296(5) 0.6466(6)
O2 O 0.2379(4) 0.7617(6) 0.5339(8)
O3 O 0.2477(3) 0.6668(5) 0.1467(7)
O4 O 0.2608(4) 0.5396(5) 1.0309(7)
O5 O 0.3391(4) 0.4672(6) 0.6019(8)
O6 O 0.3414(4) 0.5139(7) 0.8104(9)
O7 O 0.3303(3) 0.7902(6) 0.3156(7)
O8 O 0.3336(3) 0.8364(6) 0.1087(9)
O9 O 0.1656(4) 0.4670(6) 0.6088(10)
O10 O 0.1688(3) 0.5092(5) 0.8141(7)
O11 O 0.1585(3) 0.7858(7) 0.3123(9)
O12 O 0.1603(4) 0.8337(6) 0.1008(9)
C1 C 0.2438(5) 0.7187(10) 0.6338(9)
C2 C 0.2257(6) 0.7717(8) 0.7597(9)
H1 H 0.1771 0.7916 0.7623
C3 C 0.2751(6) 0.8525(10) 0.7631(13)
H2 H 0.2702 0.8929 0.6882
H3 H 0.3229 0.8328 0.7722
C4 C 0.2559(4) 0.5833(8) 1.1321(10)
C5 C 0.2700(7) 0.5304(7) 1.2593(9)
H4 H 0.3199 0.5177 1.2611
C6 C 0.2354(5) 0.4390(7) 1.2643(9)
H5 H 0.2517 0.3989 1.1950
H6 H 0.1856 0.4460 1.2566
C7 C 0.3672(5) 0.4754(8) 0.7131(13)
C8 C 0.4376(5) 0.4391(9) 0.7331(13)
C9 C 0.4735(6) 0.3947(9) 0.6204(14)
H7 H 0.4518 0.3883 0.5404
C10 C 0.5399(5) 0.3638(10) 0.6408(13)
H8 H 0.5653 0.3409 0.5712
C11 C 0.5710(5) 0.3660(8) 0.7662(12)
C12 C 0.5346(5) 0.3990(10) 0.8652(12)
H9 H 0.5531 0.3929 0.9480
C13 C 0.4690(6) 0.4432(11) 0.8515(11)
H10 H 0.4482 0.4738 0.9207
C14 C 0.3583(5) 0.8309(8) 0.2183(11)
C15 C 0.1404(5) 0.4765(9) 0.7200(13)
C16 C 0.0320(5) 0.8624(9) 0.3527(10)
H11 H 0.0568 0.8386 0.4227
C17 C 0.0628(5) 0.8636(7) 0.2299(11)
C18 C 0.0276(5) 0.8994(9) 0.1291(10)
H12 H 0.0479 0.8973 0.0476
C19 C -0.0405(6) 0.9410(12) 0.1410(13)
H13 H -0.0624 0.9697 0.0713
C20 C 0.1340(5) 0.8279(8) 0.2124(13)
N1 N 0.2448(3) 0.7183(7) 0.8694(7)
N2 N 0.2557(3) 0.5869(6) 0.3721(7)
O13 O 0.2453(4) 0.8994(9) -0.1066(14)
O14 O 0.2539(3) 0.4006(7) 0.3898(10)
C21 C -0.0356(6) 0.8965(9) 0.3721(15)
H14 H -0.0567 0.8939 0.4530
C22 C 0.0711(5) 0.4357(10) 0.7389(13)
Zn4_2 Zn 0.24741(5) 0.78701(8) 1.02978(11)
O3_2 O 0.2477(3) 0.6668(5) 1.1467(7)
C3_2 C 0.2751(6) 0.8525(10) -0.2369(13)
C4_2 C 0.2559(4) 0.5833(8) 0.1321(10)
C5_2 C 0.2700(7) 0.5304(7) 0.2593(9)
C6_2 C 0.2354(5) 0.4390(7) 0.2643(9)
C11A C 0.4290(5) 0.8660(8) 0.2338(12)
C14A C 0.6417(5) 0.3309(8) 0.7817(11)
C19A C 0.0405(6) 0.4410(12) 0.8590(13)
N1_2 N 0.2448(3) 0.7183(7) -0.1306(7)
N2_2 N 0.2557(3) 0.5869(6) 1.3721(7)
O13_2 O 0.2453(4) 0.8994(9) 0.8934(14)
O14_2 O 0.2539(3) 0.4006(7) 1.3898(10)
C21A C 0.0356(6) 0.3965(9) 0.6279(15)
C22A C -0.0711(5) 0.9357(10) 0.2611(13)
loop_
_geom_bond_atom_site_label_1
_geom_bond_atom_site_label_2
_geom_bond_site_symmetry_1
_geom_bond_site_symmetry_2
Zn1 O1 1_555 1_555
Zn2 O1 1_555 1_555
Zn3 O2 1_555 1_555
Zn4 O3 1_555 1_555
O1 C1 1_555 1_555
O2 C1 1_555 1_555
O3 Zn3 1_555 1_555
O4 Zn1 1_555 1_555
O5 Zn2 1_555 1_555
O6 Zn1 1_555 1_555
O7 Zn3 1_555 1_555
O8 Zn4 1_555 1_555
O9 Zn2 1_555 1_555
O10 Zn1 1_555 1_555
O11 Zn3 1_555 1_555
O12 Zn4 1_555 1_555
C1 C2 1_555 1_555
C2 H1 1_555 1_555
C3 C2 1_555 1_555
H2 C3 1_555 1_555
H3 C3 1_555 1_555
C4 O4 1_555 1_555
C5 C4 1_555 1_555
H4 C5 1_555 1_555
C6 C5 1_555 1_555
H5 C6 1_555 1_555
H6 C6 1_555 1_555
C7 O5 1_555 1_555
C8 C7 1_555 1_555
C9 C8 1_555 1_555
H7 C9 1_555 1_555
C10 C9 1_555 1_555
H8 C10 1_555 1_555
C11 C10 1_555 1_555
C12 C11 1_555 1_555
H9 C12 1_555 1_555
C13 C8 1_555 1_555
H10 C13 1_555 1_555
C14 O7 1_555 1_555
C15 O9 1_555 1_555
C16 H11 1_555 1_555
C17 C16 1_555 1_555
C18 C17 1_555 1_555
H12 C18 1_555 1_555
C19 C18 1_555 1_555
H13 C19 1_555 1_555
C20 O11 1_555 1_555
N1 Zn1 1_555 1_555
N2 Zn2 1_555 1_555
O13 Zn4 1_555 1_555
O14 Zn2 1_555 1_555
C21 C16 1_555 1_555
H14 C21 1_555 1_555
C22 C15 1_555 1_555
Zn4_2 N1 1_555 1_555
O3_2 C4 1_555 1_555
C3_2 O13 1_555 1_555
C4_2 O3 1_555 1_555
C5_2 N2 1_555 1_555
C6_2 O14 1_555 1_555
C11A C14 1_555 1_555
C14A C11 1_555 1_555
C19A C22 1_555 1_555
N1_2 Zn4 1_555 1_555
N2_2 C5 1_555 1_555
O13_2 C3 1_555 1_555
O14_2 C6 1_555 1_555
C21A C22 1_555 1_555
C22A C19 1_555 1_555
Zn3 N2 1_555 1_555
O6 C7 1_555 1_555
O8 C14 1_555 1_555
O10 C15 1_555 1_555
O12 C20 1_555 1_555
C2 N1 1_555 1_555
C12 C13 1_555 1_555
C17 C20 1_555 1_555
C21 C22A 1_555 1_555
Zn4_2 O3_2 1_555 1_555
Zn4_2 O13_2 1_555 1_555
C4_2 C5_2 1_555 1_555
C5_2 C6_2 1_555 1_555

#END
