
#######################################################################
#
#                 Cambridge Crystallographic Data Centre
#                                CCDC 
#
#######################################################################
#
# If this CIF has been generated from an entry in the Cambridge 
# Structural Database, then it will include bibliographic, chemical, 
# crystal, experimental, refinement or atomic coordinate data resulting 
# from the CCDC's data processing and validation procedures.
#
#######################################################################

data_RATCUL03
_symmetry_cell_setting           monoclinic
_symmetry_space_group_name_H-M   'P 21/c'
_symmetry_Int_Tables_number      14
_space_group_name_Hall           '-P 2ybc'
loop_
_symmetry_equiv_pos_site_id
_symmetry_equiv_pos_as_xyz
1 x,y,z
2 -x,1/2+y,1/2-z
3 -x,-y,-z
4 x,1/2-y,1/2+z
_cell_length_a                   11.4809(2)
_cell_length_b                   10.0060(2)
_cell_length_c                   18.4189(4)
_cell_angle_alpha                90
_cell_angle_beta                 127.3430(10)
_cell_angle_gamma                90
_cell_volume                     1682.2
loop_
_atom_site_label
_atom_site_type_symbol
_atom_site_fract_x
_atom_site_fract_y
_atom_site_fract_z
Fe1 Fe 0.37755(3) 0.07689(3) 0.132783(18)
Fe2 Fe 0.42910(3) 0.11277(3) -0.311240(18)
Fe3 Fe 0.5000 0.0000 0.0000
Fe4 Fe 0.0000 0.0000 0.0000
O1 O 0.44318(16) 0.19690(14) 0.24769(9)
O2 O 0.55407(19) 0.05922(15) 0.36781(10)
O3 O 0.59051(16) -0.00954(14) 0.21817(9)
O4 O 0.68012(18) -0.00063(18) 0.14040(10)
O5 O 0.45525(16) 0.25489(14) 0.10768(9)
O6 O 0.4813(2) 0.20830(16) -0.00037(11)
O7 O 0.34517(16) -0.08489(14) 0.19607(9)
O8 O 0.10534(17) -0.10588(17) 0.12338(11)
O9 O 0.33548(16) -0.02714(15) 0.02169(9)
O10 O 0.11378(17) -0.10824(16) -0.03668(11)
O11 O 0.16424(15) 0.15522(15) 0.06170(9)
O12 O 0.20417(17) 0.37388(15) 0.09286(10)
C1 C 0.5045(3) 0.1689(2) 0.33101(14)
C2 C 0.6912(3) -0.0182(3) 0.21024(16)
C3 C 0.4713(3) 0.2855(2) 0.04762(17)
C4 C 0.2333(3) -0.1314(3) 0.18537(16)
C5 C 0.2230(3) -0.1006(2) -0.03284(16)
C6 C 0.1239(3) 0.2759(2) 0.05267(16)
H1 H 0.512(2) 0.240(2) 0.3674(14)
H2 H 0.783(3) -0.033(3) 0.2622(19)
H3 H 0.477(3) 0.382(3) 0.0444(18)
H4 H 0.254(3) -0.199(2) 0.2319(16)
H5 H 0.229(3) -0.148(2) -0.0745(17)
H6 H 0.019(3) 0.293(2) 0.0099(15)
Fe1B Fe 0.62245(3) -0.07689(3) -0.132783(18)
Fe1B_2 Fe -0.37755(3) -0.07689(3) -0.132783(18)
Fe1A Fe 0.62245(3) 0.57689(3) 0.367217(18)
Fe2B Fe 0.57090(3) -0.11277(3) 0.311240(18)
Fe2C Fe 0.42910(3) 0.38723(3) 0.188760(18)
Fe2A Fe 0.57090(3) -0.38723(3) -0.188760(18)
Fe2A_2 Fe -0.42910(3) -0.38723(3) -0.188760(18)
Fe2B_2 Fe 0.57090(3) 0.88723(3) 0.311240(18)
Fe3C Fe 0.5000 0.5000 0.5000
Fe4_2 Fe 1.0000 0.0000 0.0000
O1B O 0.55682(16) -0.19690(14) -0.24769(9)
O1C O 0.44318(16) 0.30310(14) -0.25231(9)
O1A O 0.55682(16) 0.69690(14) 0.25231(9)
O2B O 0.44593(19) -0.05922(15) -0.36781(10)
O2A O 0.44593(19) 0.55922(15) 0.13219(10)
O3B O 0.40949(16) 0.00954(14) -0.21817(9)
O3A O 0.40949(16) 0.49046(14) 0.28183(9)
O4B O 0.31988(18) 0.00063(18) -0.14040(10)
O4A O 0.31988(18) 0.49937(18) 0.35960(10)
O5B O 0.54475(16) -0.25489(14) -0.10768(9)
O5C O 0.45525(16) 0.24511(14) -0.39232(9)
O6B O 0.5187(2) -0.20830(16) 0.00037(11)
O7B O 0.65483(16) 0.08489(14) -0.19607(9)
O7A O 0.65483(16) 0.41511(14) 0.30393(9)
O8B O -0.10534(17) 0.10588(17) -0.12338(11)
O9B O 0.66452(16) 0.02714(15) -0.02169(9)
O10B O 0.88622(17) 0.10824(16) 0.03668(11)
O10B_2 O -0.11378(17) 0.10824(16) 0.03668(11)
O11B O -0.16424(15) -0.15522(15) -0.06170(9)
O11B_2 O 0.83576(15) -0.15522(15) -0.06170(9)
O12C O 0.20417(17) 0.12612(15) -0.40714(10)
O12B O -0.20417(17) -0.37388(15) -0.09286(10)
C1A C 0.4955(3) 0.6689(2) 0.16899(14)
C2B C 0.3088(3) 0.0182(3) -0.21024(16)
C2A C 0.3088(3) 0.4818(3) 0.28976(16)
C3B C 0.5287(3) -0.2855(2) -0.04762(17)
C5B C 0.7770(3) 0.1006(2) 0.03284(16)
C6B C -0.1239(3) -0.2759(2) -0.05267(16)
H1A H 0.488(2) 0.740(2) 0.1326(14)
H2B H 0.217(3) 0.033(3) -0.2622(19)
H2A H 0.217(3) 0.467(3) 0.2378(19)
H3B H 0.523(3) -0.382(3) -0.0444(18)
H5B H 0.771(3) 0.148(2) 0.0745(17)
H6B H -0.019(3) -0.293(2) -0.0099(15)
loop_
_geom_bond_atom_site_label_1
_geom_bond_atom_site_label_2
_geom_bond_site_symmetry_1
_geom_bond_site_symmetry_2
Fe1 O1 1_555 1_555
Fe2 O1C 1_555 1_555
Fe3 O4 1_555 1_555
Fe4 O8 1_555 1_555
O1 C1 1_555 1_555
O2 C1 1_555 1_555
O3 Fe1 1_555 1_555
O4 C2 1_555 1_555
O5 Fe1 1_555 1_555
O6 Fe3 1_555 1_555
O7 Fe1 1_555 1_555
O8 C4 1_555 1_555
O9 Fe1 1_555 1_555
O10 Fe4 1_555 1_555
O11 Fe1 1_555 1_555
O12 C6 1_555 1_555
C1 H1 1_555 1_555
C2 O3 1_555 1_555
C3 O5 1_555 1_555
C4 O7 1_555 1_555
C5 O9 1_555 1_555
C6 O11 1_555 1_555
H2 C2 1_555 1_555
H3 C3 1_555 1_555
H4 C4 1_555 1_555
H5 C5 1_555 1_555
H6 C6 1_555 1_555
Fe1B O1B 1_555 1_555
Fe1B_2 O11B 1_555 1_555
Fe1A O1A 1_555 1_555
Fe2B O2 1_555 1_555
Fe2C O1 1_555 1_555
Fe2A O1B 1_555 1_555
Fe2A_2 O12B 1_555 1_555
Fe2B_2 O1A 1_555 1_555
Fe3C O4A 1_555 1_555
Fe4_2 O10B 1_555 1_555
O1A C1A 1_555 1_555
O2B Fe2 1_555 1_555
O2A Fe2C 1_555 1_555
O3B Fe2 1_555 1_555
O3A Fe1A 1_555 1_555
O4B Fe3 1_555 1_555
O4A C2A 1_555 1_555
O5B Fe1B 1_555 1_555
O5C Fe2 1_555 1_555
O6B Fe3 1_555 1_555
O7B Fe2 1_555 1_555
O7A Fe1A 1_555 1_555
O8B Fe4 1_555 1_555
O9B Fe3 1_555 1_555
O10B C5B 1_555 1_555
O10B_2 Fe4 1_555 1_555
O11B Fe4 1_555 1_555
O11B_2 Fe1B 1_555 1_555
O12C Fe2 1_555 1_555
O12B C6B 1_555 1_555
C1A O2A 1_555 1_555
C2B O3B 1_555 1_555
C2A O3A 1_555 1_555
C3B O5B 1_555 1_555
C5B O9B 1_555 1_555
C6B O11B 1_555 1_555
H1A C1A 1_555 1_555
H2B C2B 1_555 1_555
H2A C2A 1_555 1_555
H3B C3B 1_555 1_555
H5B C5B 1_555 1_555
H6B C6B 1_555 1_555
Fe3 O9 1_555 1_555
Fe4 O11 1_555 1_555
O3 Fe2B 1_555 1_555
O5 Fe2C 1_555 1_555
O6 C3 1_555 1_555
O7 Fe2B 1_555 1_555
O10 C5 1_555 1_555
O12 Fe2C 1_555 1_555
Fe1B O3B 1_555 1_555
Fe1B O7B 1_555 1_555
Fe1B O9B 1_555 1_555
Fe2C O3A 1_555 1_555
Fe2C O7A 1_555 1_555
Fe2A O5B 1_555 1_555
Fe4_2 O11B_2 1_555 1_555
O4B C2B 1_555 1_555
O6B C3B 1_555 1_555

#END
