
#######################################################################
#
#                 Cambridge Crystallographic Data Centre
#                                CCDC 
#
#######################################################################
#
# If this CIF has been generated from an entry in the Cambridge 
# Structural Database, then it will include bibliographic, chemical, 
# crystal, experimental, refinement or atomic coordinate data resulting 
# from the CCDC's data processing and validation procedures.
#
#######################################################################

data_RATDAS02
_symmetry_cell_setting           monoclinic
_symmetry_space_group_name_H-M   'P 21/c'
_symmetry_Int_Tables_number      14
_space_group_name_Hall           '-P 2ybc'
loop_
_symmetry_equiv_pos_site_id
_symmetry_equiv_pos_as_xyz
1 x,y,z
2 -x,1/2+y,1/2-z
3 -x,-y,-z
4 x,1/2-y,1/2+z
_cell_length_a                   11.3376(2)
_cell_length_b                   9.8429(2)
_cell_length_c                   18.1765(4)
_cell_angle_alpha                90
_cell_angle_beta                 127.2660(10)
_cell_angle_gamma                90
_cell_volume                     1614.27
loop_
_atom_site_label
_atom_site_type_symbol
_atom_site_fract_x
_atom_site_fract_y
_atom_site_fract_z
Zn1 Zn 0.37519(3) 0.07700(2) 0.131810(17)
Zn2 Zn 0.57166(3) -0.10977(2) 0.312574(17)
Zn3 Zn 0.5000 0.0000 0.0000
Zn4 Zn 0.0000 0.0000 0.0000
O1 O 0.43843(16) 0.19855(14) 0.24576(10)
O2 O 0.55186(17) 0.05916(15) 0.36874(10)
O3 O 0.58886(16) -0.00814(14) 0.21931(10)
O4 O 0.68043(17) 0.00406(15) 0.14001(11)
O5 O 0.45684(16) 0.25451(14) 0.10986(10)
O6 O 0.47888(18) 0.20916(16) -0.00231(11)
O7 O 0.34412(16) -0.08394(14) 0.19507(10)
O8 O 0.10008(17) -0.10466(16) 0.12320(11)
O9 O 0.33850(16) -0.02694(15) 0.02305(10)
O10 O 0.11541(17) -0.11406(15) -0.03391(11)
O11 O 0.16340(16) 0.15453(14) 0.06099(10)
O12 O 0.20366(17) 0.37796(15) 0.09148(11)
C1 C 0.5007(2) 0.1713(2) 0.33026(16)
H1 H 0.5091 0.2437 0.3678
C2 C 0.6921(3) -0.0149(2) 0.21147(16)
H2 H 0.7880 -0.0368 0.2657
C3 C 0.4691(3) 0.2875(2) 0.04684(16)
H3 H 0.4707 0.3819 0.0367
C4 C 0.2313(2) -0.1301(2) 0.18595(16)
H4 H 0.2500 -0.1908 0.2326
C5 C 0.2262(3) -0.1049(2) -0.03086(16)
H5 H 0.2294 -0.1606 -0.0723
C6 C 0.1226(3) 0.2783(2) 0.05189(16)
H6 H 0.0191 0.2954 0.0103
Zn1B Zn 0.62481(3) -0.07700(2) -0.131810(17)
Zn1A Zn 0.62481(3) -0.42300(2) 0.368190(17)
Zn1B_2 Zn -0.37519(3) -0.07700(2) -0.131810(17)
Zn2B Zn 0.42834(3) 0.10977(2) -0.312574(17)
Zn2A Zn 0.42834(3) 0.39023(2) 0.187426(17)
Zn2C Zn 0.57166(3) -0.39023(2) -0.187426(17)
Zn2A_2 Zn 0.42834(3) -0.60977(2) 0.187426(17)
Zn2B_2 Zn -0.57166(3) 0.10977(2) -0.312574(17)
Zn4_2 Zn 1.0000 0.0000 0.0000
Zn4A Zn 1.0000 -0.5000 0.5000
O1A O 0.56157(16) -0.30145(14) 0.25424(10)
O1B O 0.56157(16) -0.19855(14) -0.24576(10)
O1C O 0.43843(16) 0.30145(14) -0.25424(10)
O2A O 0.44814(17) -0.44084(15) 0.13126(10)
O2B O 0.44814(17) -0.05916(15) -0.36874(10)
O3B O 0.41114(16) 0.00814(14) -0.21931(10)
O4B O 0.31957(17) -0.00406(15) -0.14001(11)
O5B O 0.54316(16) -0.25451(14) -0.10986(10)
O5A O 0.54316(16) -0.24549(14) 0.39014(10)
O5C O 0.45684(16) 0.24549(14) -0.39014(10)
O6B O 0.52112(18) -0.20916(16) 0.00231(11)
O7B O -0.34412(16) 0.08394(14) -0.19507(10)
O7B_2 O 0.65588(16) 0.08394(14) -0.19507(10)
O8B O -0.10008(17) 0.10466(16) -0.12320(11)
O9B O 0.66150(16) 0.02694(15) -0.02305(10)
O10B O 0.88459(17) 0.11406(15) 0.03391(11)
O10B_2 O -0.11541(17) 0.11406(15) 0.03391(11)
O11A O 0.83660(16) -0.34547(14) 0.43901(10)
O11B O -0.16340(16) -0.15453(14) -0.06099(10)
O11B_2 O 0.83660(16) -0.15453(14) -0.06099(10)
O12A O 0.79634(17) -0.12204(15) 0.40852(11)
O12C O 0.20366(17) 0.12204(15) -0.40852(11)
C1A C 0.4993(2) -0.3287(2) 0.16974(16)
H1A H 0.4909 -0.2563 0.1322
C2B C 0.3079(3) 0.0149(2) -0.21147(16)
H2B H 0.2120 0.0368 -0.2657
C3B C 0.5309(3) -0.2875(2) -0.04684(16)
H3B H 0.5293 -0.3819 -0.0367
C4B C -0.2313(2) 0.1301(2) -0.18595(16)
H4B H -0.2500 0.1908 -0.2326
C5B C 0.7738(3) 0.1049(2) 0.03086(16)
H5B H 0.7706 0.1606 0.0723
C6A C 0.8774(3) -0.2217(2) 0.44811(16)
H6A H 0.9809 -0.2046 0.4897
loop_
_geom_bond_atom_site_label_1
_geom_bond_atom_site_label_2
_geom_bond_site_symmetry_1
_geom_bond_site_symmetry_2
Zn1 O1 1_555 1_555
Zn2 O2 1_555 1_555
Zn3 O4 1_555 1_555
Zn4 O8 1_555 1_555
O1 C1 1_555 1_555
O2 C1 1_555 1_555
O3 Zn1 1_555 1_555
O4 C2 1_555 1_555
O5 Zn1 1_555 1_555
O6 Zn3 1_555 1_555
O7 Zn1 1_555 1_555
O8 C4 1_555 1_555
O9 Zn1 1_555 1_555
O10 Zn4 1_555 1_555
O11 Zn1 1_555 1_555
O12 C6 1_555 1_555
C1 H1 1_555 1_555
C2 O3 1_555 1_555
H2 C2 1_555 1_555
C3 O5 1_555 1_555
H3 C3 1_555 1_555
C4 O7 1_555 1_555
H4 C4 1_555 1_555
C5 O9 1_555 1_555
H5 C5 1_555 1_555
C6 O11 1_555 1_555
H6 C6 1_555 1_555
Zn1B O1B 1_555 1_555
Zn1A O1A 1_555 1_555
Zn1B_2 O7B 1_555 1_555
Zn2B O1C 1_555 1_555
Zn2A O1 1_555 1_555
Zn2C O1B 1_555 1_555
Zn2A_2 O2A 1_555 1_555
Zn2B_2 O7B 1_555 1_555
Zn4_2 O10B 1_555 1_555
Zn4A O11A 1_555 1_555
O1A Zn2 1_555 1_555
O2A C1A 1_555 1_555
O2B Zn2B 1_555 1_555
O3B Zn1B 1_555 1_555
O4B Zn3 1_555 1_555
O5B Zn1B 1_555 1_555
O5A Zn2 1_555 1_555
O5C Zn2B 1_555 1_555
O6B Zn3 1_555 1_555
O7B C4B 1_555 1_555
O7B_2 Zn1B 1_555 1_555
O8B Zn4 1_555 1_555
O9B Zn3 1_555 1_555
O10B C5B 1_555 1_555
O10B_2 Zn4 1_555 1_555
O11A Zn1A 1_555 1_555
O11B Zn4 1_555 1_555
O11B_2 Zn1B 1_555 1_555
O12A Zn2 1_555 1_555
O12C Zn2B 1_555 1_555
C1A O1A 1_555 1_555
H1A C1A 1_555 1_555
C2B O3B 1_555 1_555
H2B C2B 1_555 1_555
C3B O5B 1_555 1_555
H3B C3B 1_555 1_555
C4B O8B 1_555 1_555
H4B C4B 1_555 1_555
C5B O9B 1_555 1_555
H5B C5B 1_555 1_555
C6A O11A 1_555 1_555
H6A C6A 1_555 1_555
Zn2 O3 1_555 1_555
Zn2 O7 1_555 1_555
Zn3 O9 1_555 1_555
Zn4 O11 1_555 1_555
O5 Zn2A 1_555 1_555
O6 C3 1_555 1_555
O10 C5 1_555 1_555
O12 Zn2A 1_555 1_555
Zn1B O9B 1_555 1_555
Zn1A O5A 1_555 1_555
Zn1B_2 O11B 1_555 1_555
Zn2B O3B 1_555 1_555
Zn2B O7B_2 1_555 1_555
Zn2C O5B 1_555 1_555
Zn4_2 O11B_2 1_555 1_555
O4B C2B 1_555 1_555
O6B C3B 1_555 1_555
O12A C6A 1_555 1_555

#END
