
#######################################################################
#
#                 Cambridge Crystallographic Data Centre
#                                CCDC 
#
#######################################################################
#
# If this CIF has been generated from an entry in the Cambridge 
# Structural Database, then it will include bibliographic, chemical, 
# crystal, experimental, refinement or atomic coordinate data resulting 
# from the CCDC's data processing and validation procedures.
#
#######################################################################

data_RAVDID
_symmetry_cell_setting           monoclinic
_symmetry_space_group_name_H-M   'P 21/n'
_symmetry_Int_Tables_number      14
_space_group_name_Hall           '-P 2yn'
loop_
_symmetry_equiv_pos_site_id
_symmetry_equiv_pos_as_xyz
1 x,y,z
2 1/2-x,1/2+y,1/2-z
3 -x,-y,-z
4 1/2+x,1/2-y,1/2+z
_cell_length_a                   9.2275(5)
_cell_length_b                   13.5056(8)
_cell_length_c                   14.6122(8)
_cell_angle_alpha                90
_cell_angle_beta                 90.3280(10)
_cell_angle_gamma                90
_cell_volume                     1820.99
loop_
_atom_site_label
_atom_site_type_symbol
_atom_site_fract_x
_atom_site_fract_y
_atom_site_fract_z
Gd1 Gd 0.25108(2) 0.002899(14) 0.092750(12)
C1 C 0.0037(4) 0.1107(3) 0.3283(3)
C2 C 0.0288(4) 0.2048(3) 0.3649(3)
H1 H 0.0948 0.2487 0.3361
C3 C -0.0441(4) 0.2338(3) 0.4443(3)
C4 C -0.1347(4) 0.1667(3) 0.4880(3)
H2 H -0.1836 0.1864 0.5420
C5 C -0.1554(4) 0.0713(3) 0.4544(3)
C6 C -0.0879(5) 0.0452(3) 0.3724(3)
H3 H -0.1051 -0.0183 0.3467
C7 C -0.2398(5) -0.0029(3) 0.5097(3)
H4 H -0.1700 -0.0428 0.5458
H5 H -0.3006 0.0339 0.5538
C8 C -0.3360(4) -0.0726(3) 0.4571(3)
C9 C -0.4098(4) -0.0438(3) 0.3787(3)
H6 H -0.3923 0.0201 0.3539
C10 C -0.5084(4) -0.1057(3) 0.3358(3)
C11 C -0.5348(4) -0.1999(3) 0.3713(3)
H7 H -0.6054 -0.2416 0.3437
C12 C -0.4570(4) -0.2323(3) 0.4477(3)
C13 C -0.3575(4) -0.1682(3) 0.4889(3)
H8 H -0.3030 -0.1907 0.5402
C14 C 0.0831(5) 0.0744(3) 0.2449(3)
C15 C -0.0239(4) 0.3357(3) 0.4850(3)
C16 C -0.5879(4) -0.0676(3) 0.2522(3)
C17 C -0.4755(4) -0.3355(3) 0.4863(3)
O1 O 0.0268(3) 0.0073(2) 0.1968(2)
O2 O 0.2053(3) 0.1119(2) 0.22601(19)
O3 O 0.0660(3) 0.3925(2) 0.4494(2)
O4 O -0.1012(3) 0.3581(2) 0.55322(19)
O5 O -0.5298(3) 0.0024(2) 0.20628(19)
O6 O -0.7076(3) -0.1047(2) 0.23014(19)
O7 O -0.5829(3) -0.3838(2) 0.4615(2)
O8 O -0.3802(3) -0.3655(2) 0.5418(2)
O9 O 0.2602(4) 0.0057(3) -0.0840(2)
H17 H 0.180(3) -0.002(4) -0.117(3)
H18 H 0.330(4) 0.018(4) -0.124(3)
Gd1_2 Gd -0.74892(2) 0.002899(14) 0.092750(12)
Gd1A Gd -0.75108(2) -0.497101(14) 0.407250(12)
Gd1A_2 Gd 0.24892(2) 0.502899(14) 0.407250(12)
Gd1C Gd -0.24892(2) -0.502899(14) 0.592750(12)
Gd1C_2 Gd -0.24892(2) 0.497101(14) 0.592750(12)
C16_2 C 0.4121(4) -0.0676(3) 0.2522(3)
O3A O 0.4340(3) -0.1075(2) 0.0506(2)
O4C O 0.3988(3) 0.1419(2) 0.05322(19)
O5_2 O 0.4702(3) 0.0024(2) 0.20628(19)
O6_2 O 0.2924(3) -0.1047(2) 0.23014(19)
O7A O 0.0829(3) 0.1162(2) 0.0385(2)
O8C O 0.1198(3) -0.1345(2) 0.0418(2)
C18 C 0.6784(7) 0.2168(5) 0.1919(5)
H9 H 0.7010 0.1762 0.1383
H10 H 0.7416 0.1976 0.2430
H11 H 0.6940 0.2868 0.1773
C19 C 0.4853(6) 0.2579(5) 0.2974(4)
H12 H 0.3837 0.2452 0.3126
H13 H 0.4984 0.3286 0.2847
H14 H 0.5472 0.2386 0.3491
N1 N 0.5243(5) 0.2012(3) 0.2179(3)
H15 H 0.4656(14) 0.216(2) 0.1680(8)
H16 H 0.506(2) 0.1348(9) 0.2240(18)
loop_
_geom_bond_atom_site_label_1
_geom_bond_atom_site_label_2
_geom_bond_site_symmetry_1
_geom_bond_site_symmetry_2
Gd1 O1 1_555 1_555
C1 C2 1_555 1_555
C2 H1 1_555 1_555
C3 C2 1_555 1_555
C4 C3 1_555 1_555
H2 C4 1_555 1_555
C5 C4 1_555 1_555
C6 C1 1_555 1_555
H3 C6 1_555 1_555
C7 C5 1_555 1_555
H4 C7 1_555 1_555
H5 C7 1_555 1_555
C8 C7 1_555 1_555
C9 C8 1_555 1_555
H6 C9 1_555 1_555
C10 C9 1_555 1_555
C11 C10 1_555 1_555
H7 C11 1_555 1_555
C12 C11 1_555 1_555
C13 C8 1_555 1_555
H8 C13 1_555 1_555
C14 C1 1_555 1_555
C15 C3 1_555 1_555
C16 C10 1_555 1_555
C17 C12 1_555 1_555
C18 H9 1_555 1_555
H10 C18 1_555 1_555
H11 C18 1_555 1_555
C19 H12 1_555 1_555
H13 C19 1_555 1_555
H14 C19 1_555 1_555
N1 C18 1_555 1_555
H15 N1 1_555 1_555
H16 N1 1_555 1_555
O1 C14 1_555 1_555
O2 Gd1 1_555 1_555
O3 C15 1_555 1_555
O4 C15 1_555 1_555
O5 C16 1_555 1_555
O6 C16 1_555 1_555
O7 C17 1_555 1_555
O8 C17 1_555 1_555
O9 Gd1 1_555 1_555
H17 O9 1_555 1_555
H18 O9 1_555 1_555
Gd1_2 O5 1_555 1_555
Gd1A O7 1_555 1_555
Gd1A_2 O3 1_555 1_555
Gd1C O8 1_555 1_555
Gd1C_2 O4 1_555 1_555
C16_2 O5_2 1_555 1_555
O3A Gd1 1_555 1_555
O4C Gd1 1_555 1_555
O5_2 Gd1 1_555 1_555
O6_2 Gd1 1_555 1_555
O7A Gd1 1_555 1_555
O8C Gd1 1_555 1_555
C5 C6 1_555 1_555
C12 C13 1_555 1_555
C14 O2 1_555 1_555
C19 N1 1_555 1_555
O6 Gd1_2 1_555 1_555
C16_2 O6_2 1_555 1_555

#END
