
#######################################################################
#
#                 Cambridge Crystallographic Data Centre
#                                CCDC 
#
#######################################################################
#
# If this CIF has been generated from an entry in the Cambridge 
# Structural Database, then it will include bibliographic, chemical, 
# crystal, experimental, refinement or atomic coordinate data resulting 
# from the CCDC's data processing and validation procedures.
#
#######################################################################

data_RAVVOA
_symmetry_cell_setting           monoclinic
_symmetry_space_group_name_H-M   'P 21/c'
_symmetry_Int_Tables_number      14
_space_group_name_Hall           '-P 2ybc'
loop_
_symmetry_equiv_pos_site_id
_symmetry_equiv_pos_as_xyz
1 x,y,z
2 -x,1/2+y,1/2-z
3 -x,-y,-z
4 x,1/2-y,1/2+z
_cell_length_a                   11.2783(4)
_cell_length_b                   9.8567(4)
_cell_length_c                   18.1630(6)
_cell_angle_alpha                90
_cell_angle_beta                 127.204(2)
_cell_angle_gamma                90
_cell_volume                     1608.21
loop_
_atom_site_label
_atom_site_type_symbol
_atom_site_fract_x
_atom_site_fract_y
_atom_site_fract_z
Co1 Co 0.37787(5) 0.07823(4) 0.13313(3)
Co2 Co 0.42999(5) 0.11166(4) -0.31050(3)
Co3 Co 0.5000 0.0000 0.0000
Co4 Co 0.0000 0.0000 0.0000
O1 O 0.4367(3) 0.1989(2) 0.24506(14)
O2 O 0.5510(3) 0.0584(2) 0.36783(15)
O3 O 0.5894(3) -0.0062(2) 0.21875(15)
O4 O 0.6817(3) 0.0061(2) 0.13968(16)
O5 O 0.4555(3) 0.2554(2) 0.10876(14)
O6 O 0.4793(3) 0.2089(2) -0.00256(15)
O7 O 0.3454(3) -0.0846(2) 0.19520(15)
O8 O 0.0999(3) -0.1053(2) 0.12315(16)
O9 O 0.3392(3) -0.0279(2) 0.02358(15)
O10 O 0.1152(3) -0.1155(2) -0.03300(16)
O11 O 0.1639(3) 0.1534(2) 0.06035(14)
O12 O 0.2045(3) 0.3771(2) 0.09124(15)
C1 C 0.4991(4) 0.1712(3) 0.3303(2)
C2 C 0.6939(5) -0.0133(3) 0.2116(3)
C3 C 0.4689(4) 0.2881(3) 0.0464(2)
C4 C 0.2309(4) -0.1304(3) 0.1862(2)
C5 C 0.2265(4) -0.1071(3) -0.0295(2)
C6 C 0.1219(5) 0.2778(3) 0.0501(2)
H1 H 0.508(4) 0.255(3) 0.370(2)
H2 H 0.781(5) -0.029(3) 0.262(2)
H3 H 0.482(4) 0.391(3) 0.040(2)
H4 H 0.250(4) -0.201(3) 0.233(2)
H5 H 0.238(4) -0.157(3) -0.069(2)
H6 H 0.012(4) 0.295(3) 0.006(2)
Co1B Co 0.62213(5) -0.07823(4) -0.13313(3)
Co1B_2 Co -0.37787(5) -0.07823(4) -0.13313(3)
Co1A Co 0.62213(5) 0.57823(4) 0.36687(3)
Co2B Co 0.57001(5) -0.11166(4) 0.31050(3)
Co2C Co 0.42999(5) 0.38834(4) 0.18950(3)
Co2A Co 0.57001(5) -0.38834(4) -0.18950(3)
Co2A_2 Co -0.42999(5) -0.38834(4) -0.18950(3)
Co2B_2 Co 0.57001(5) 0.88834(4) 0.31050(3)
Co3C Co 0.5000 0.5000 0.5000
Co4_2 Co 1.0000 0.0000 0.0000
O1B O 0.5633(3) -0.1989(2) -0.24506(14)
O1C O 0.4367(3) 0.3011(2) -0.25494(14)
O1A O 0.5633(3) 0.6989(2) 0.25494(14)
O2B O 0.4490(3) -0.0584(2) -0.36783(15)
O2A O 0.4490(3) 0.5584(2) 0.13217(15)
O3B O 0.4106(3) 0.0062(2) -0.21875(15)
O3A O 0.4106(3) 0.4938(2) 0.28125(15)
O4B O 0.3183(3) -0.0061(2) -0.13968(16)
O4A O 0.3183(3) 0.5061(2) 0.36032(16)
O5B O 0.5445(3) -0.2554(2) -0.10876(14)
O5C O 0.4555(3) 0.2446(2) -0.39124(14)
O6B O 0.5207(3) -0.2089(2) 0.00256(15)
O7B O 0.6546(3) 0.0846(2) -0.19520(15)
O7A O 0.6546(3) 0.4154(2) 0.30480(15)
O8B O -0.0999(3) 0.1053(2) -0.12315(16)
O9B O 0.6608(3) 0.0279(2) -0.02358(15)
O10B O 0.8848(3) 0.1155(2) 0.03300(16)
O10B_2 O -0.1152(3) 0.1155(2) 0.03300(16)
O11B O -0.1639(3) -0.1534(2) -0.06035(14)
O11B_2 O 0.8361(3) -0.1534(2) -0.06035(14)
O12C O 0.2045(3) 0.1229(2) -0.40876(15)
O12B O -0.2045(3) -0.3771(2) -0.09124(15)
C1A C 0.5009(4) 0.6712(3) 0.1697(2)
C2B C 0.3061(5) 0.0133(3) -0.2116(3)
C2A C 0.3061(5) 0.4867(3) 0.2884(3)
C3B C 0.5311(4) -0.2881(3) -0.0464(2)
C5B C 0.7735(4) 0.1071(3) 0.0295(2)
C6B C -0.1219(5) -0.2778(3) -0.0501(2)
H1A H 0.492(4) 0.755(3) 0.130(2)
H2B H 0.219(5) 0.029(3) -0.262(2)
H2A H 0.219(5) 0.471(3) 0.238(2)
H3B H 0.518(4) -0.391(3) -0.040(2)
H5B H 0.762(4) 0.157(3) 0.069(2)
H6B H -0.012(4) -0.295(3) -0.006(2)
loop_
_geom_bond_atom_site_label_1
_geom_bond_atom_site_label_2
_geom_bond_site_symmetry_1
_geom_bond_site_symmetry_2
Co1 O1 1_555 1_555
Co2 O1C 1_555 1_555
Co3 O4 1_555 1_555
Co4 O8 1_555 1_555
O1 C1 1_555 1_555
O2 C1 1_555 1_555
O3 Co1 1_555 1_555
O4 C2 1_555 1_555
O5 Co1 1_555 1_555
O6 Co3 1_555 1_555
O7 Co1 1_555 1_555
O8 C4 1_555 1_555
O9 Co1 1_555 1_555
O10 Co4 1_555 1_555
O11 Co1 1_555 1_555
O12 C6 1_555 1_555
C1 H1 1_555 1_555
C2 O3 1_555 1_555
C3 O5 1_555 1_555
C4 O7 1_555 1_555
C5 O9 1_555 1_555
C6 O11 1_555 1_555
H2 C2 1_555 1_555
H3 C3 1_555 1_555
H4 C4 1_555 1_555
H5 C5 1_555 1_555
H6 C6 1_555 1_555
Co1B O1B 1_555 1_555
Co1B_2 O11B 1_555 1_555
Co1A O1A 1_555 1_555
Co2B O2 1_555 1_555
Co2C O1 1_555 1_555
Co2A O1B 1_555 1_555
Co2A_2 O12B 1_555 1_555
Co2B_2 O1A 1_555 1_555
Co3C O4A 1_555 1_555
Co4_2 O10B 1_555 1_555
O1A C1A 1_555 1_555
O2B Co2 1_555 1_555
O2A Co2C 1_555 1_555
O3B Co2 1_555 1_555
O3A Co1A 1_555 1_555
O4B Co3 1_555 1_555
O4A C2A 1_555 1_555
O5B Co1B 1_555 1_555
O5C Co2 1_555 1_555
O6B Co3 1_555 1_555
O7B Co2 1_555 1_555
O7A Co1A 1_555 1_555
O8B Co4 1_555 1_555
O9B Co3 1_555 1_555
O10B C5B 1_555 1_555
O10B_2 Co4 1_555 1_555
O11B Co4 1_555 1_555
O11B_2 Co1B 1_555 1_555
O12C Co2 1_555 1_555
O12B C6B 1_555 1_555
C1A O2A 1_555 1_555
C2B O3B 1_555 1_555
C2A O3A 1_555 1_555
C3B O5B 1_555 1_555
C5B O9B 1_555 1_555
C6B O11B 1_555 1_555
H1A C1A 1_555 1_555
H2B C2B 1_555 1_555
H2A C2A 1_555 1_555
H3B C3B 1_555 1_555
H5B C5B 1_555 1_555
H6B C6B 1_555 1_555
Co3 O9 1_555 1_555
Co4 O11 1_555 1_555
O3 Co2B 1_555 1_555
O5 Co2C 1_555 1_555
O6 C3 1_555 1_555
O7 Co2B 1_555 1_555
O10 C5 1_555 1_555
O12 Co2C 1_555 1_555
Co1B O3B 1_555 1_555
Co1B O7B 1_555 1_555
Co1B O9B 1_555 1_555
Co2C O3A 1_555 1_555
Co2C O7A 1_555 1_555
Co2A O5B 1_555 1_555
Co4_2 O11B_2 1_555 1_555
O4B C2B 1_555 1_555
O6B C3B 1_555 1_555

#END
