
#######################################################################
#
#                 Cambridge Crystallographic Data Centre
#                                CCDC 
#
#######################################################################
#
# If this CIF has been generated from an entry in the Cambridge 
# Structural Database, then it will include bibliographic, chemical, 
# crystal, experimental, refinement or atomic coordinate data resulting 
# from the CCDC's data processing and validation procedures.
#
#######################################################################

data_RAXJAD
_symmetry_cell_setting           triclinic
_symmetry_space_group_name_H-M   'P -1'
_symmetry_Int_Tables_number      2
_space_group_name_Hall           '-P 1'
loop_
_symmetry_equiv_pos_site_id
_symmetry_equiv_pos_as_xyz
1 x,y,z
2 -x,-y,-z
_cell_length_a                   11.5675(4)
_cell_length_b                   11.7844(3)
_cell_length_c                   19.4348(6)
_cell_angle_alpha                97.7690(10)
_cell_angle_beta                 103.8510(9)
_cell_angle_gamma                99.4940(10)
_cell_volume                     2494.45
loop_
_atom_site_label
_atom_site_type_symbol
_atom_site_fract_x
_atom_site_fract_y
_atom_site_fract_z
C1 C 0.4569(4) 0.4213(4) 0.2858(2)
C2 C 0.4323(4) 0.3062(4) 0.2950(3)
H1 H 0.4550 0.2872 0.3406
C3 C 0.3735(4) 0.2202(4) 0.2355(3)
C4 C 0.3412(4) 0.2502(4) 0.1682(3)
H2 H 0.3013 0.1936 0.1275
C5 C 0.3701(4) 0.3672(4) 0.1632(2)
C6 C 0.5203(5) 0.5228(4) 0.3463(3)
C7 C 0.3389(4) 0.0940(4) 0.2412(3)
C8 C 0.3419(4) 0.4096(4) 0.0927(3)
C9 C 0.6524(4) 0.9521(4) 0.2038(2)
C10 C 0.6951(4) 1.0591(4) 0.1875(3)
H3 H 0.7733 1.1011 0.2109
C11 C 0.6186(5) 1.1025(4) 0.1354(3)
C12 C 0.5045(4) 1.0348(4) 0.0993(3)
H4 H 0.4525 1.0606 0.0631
C13 C 0.4699(4) 0.9279(4) 0.1187(2)
C14 C 0.7288(4) 0.8956(4) 0.2581(2)
C15 C 0.6634(5) 1.2212(4) 0.1198(3)
C16 C 0.3507(4) 0.8452(4) 0.0847(2)
C17 C 1.0995(4) 1.1118(4) 0.3130(2)
C18 C 1.1006(4) 1.2220(4) 0.2957(3)
H5 H 1.1282 1.2889 0.3313
C19 C 1.0593(4) 1.2299(4) 0.2237(3)
C20 C 1.0219(4) 1.1296(4) 0.1717(3)
H6 H 0.9962 1.1337 0.1231
C21 C 1.0236(4) 1.0234(4) 0.1936(2)
C22 C 1.1411(4) 1.0900(4) 0.3892(2)
C23 C 1.0588(5) 1.3472(4) 0.2010(3)
C24 C 0.9826(4) 0.9089(4) 0.1415(3)
C25 C 0.8398(4) 0.5286(4) 0.2991(2)
C26 C 0.7978(4) 0.4201(4) 0.3147(3)
H7 H 0.7213 0.3759 0.2897
C27 C 0.8738(4) 0.3796(4) 0.3687(2)
C28 C 0.9850(4) 0.4487(4) 0.4061(2)
H8 H 1.0366 0.4238 0.4430
C29 C 1.0180(4) 0.5562(4) 0.3874(2)
C30 C 0.7671(4) 0.5825(3) 0.2419(2)
C31 C 0.8312(5) 0.2599(4) 0.3839(3)
C32 C 1.1368(4) 0.6395(4) 0.4227(3)
C33 C 0.2935(4) 0.7964(3) 0.2750(2)
C34 C 0.2168(4) 0.6744(4) 0.2378(2)
N1 N 0.4257(3) 0.4507(3) 0.2205(2)
N2 N 0.5416(3) 0.8875(3) 0.17116(19)
N3 N 1.0611(3) 1.0153(3) 0.26302(19)
N4 N 0.9479(3) 0.5947(3) 0.33395(19)
O1 O 0.5272(3) 0.6236(3) 0.32974(17)
O2 O 0.5624(4) 0.5024(3) 0.40707(19)
O3 O 0.3628(3) 0.0777(3) 0.30922(19)
H9 H 0.3425 0.0080 0.3100
O4 O 0.2887(4) 0.0187(3) 0.18974(19)
O5 O 0.2764(4) 0.3414(3) 0.03859(18)
O6 O 0.3908(3) 0.5156(3) 0.09462(17)
O7 O 0.6712(3) 0.8161(3) 0.28222(16)
O8 O 0.8408(3) 0.9279(3) 0.27420(18)
O9 O 0.7645(4) 1.2753(3) 0.1473(3)
O10 O 0.5794(4) 1.2573(3) 0.0753(2)
H10 H 0.6075 1.3221 0.0684
O11 O 0.2768(3) 0.8834(3) 0.03641(19)
O12 O 0.3302(3) 0.7508(3) 0.10322(18)
O13 O 1.1105(3) 0.9850(3) 0.39778(16)
O14 O 1.2015(4) 1.1722(3) 0.43697(18)
O15 O 1.0742(4) 1.4312(3) 0.2556(2)
H11 H 1.0733 1.4935 0.2413
O16 O 1.0464(4) 1.3611(3) 0.1396(2)
O17 O 0.9495(4) 0.9109(3) 0.07638(18)
O18 O 0.9844(3) 0.8182(3) 0.16941(17)
O19 O 0.8270(3) 0.6639(3) 0.22042(17)
O20 O 0.6557(3) 0.5466(3) 0.22121(18)
O21 O 0.7314(3) 0.2023(3) 0.3554(2)
O22 O 0.9163(3) 0.2270(3) 0.4296(2)
H12 H 0.8901 0.1618 0.4367
O23 O 1.2119(3) 0.5986(3) 0.4688(2)
O24 O 1.1574(3) 0.7365(3) 0.40703(18)
O25 O 0.8728(3) 0.8019(3) 0.38682(18)
H13 H 0.807(3) 0.808(4) 0.363(3)
H14 H 0.860(4) 0.748(3) 0.408(2)
O26 O 0.6291(3) 0.6914(3) 0.11798(19)
H15 H 0.698(3) 0.692(5) 0.142(3)
H16 H 0.638(4) 0.742(4) 0.094(3)
O27 O 0.2389(3) 0.8671(2) 0.30245(17)
O28 O 0.2684(3) 0.6062(3) 0.20773(17)
O29 O 0.4023(3) 0.8172(3) 0.27586(18)
O37 O 0.1084(3) 0.6518(2) 0.24150(17)
Ce1 Ce 0.48611(2) 0.669250(19) 0.203506(13)
Ce2 Ce 1.01399(2) 0.808903(19) 0.299382(13)
O27_2 O 1.2389(3) 0.8671(2) 0.30245(17)
O37_2 O 1.1084(3) 0.6518(2) 0.24150(17)
Ce2_2 Ce 0.01399(2) 0.808903(19) 0.299382(13)
O30 O 0.6172(5) 0.0681(5) 0.5407(3)
H17 H 0.573(6) 0.117(6) 0.543(5)
H18 H 0.686(3) 0.110(6) 0.559(5)
O31 O 1.4279(4) 0.6904(4) 0.5270(3)
H19 H 1.463(6) 0.728(5) 0.502(4)
H20 H 1.455(7) 0.630(4) 0.526(4)
O32 O 0.8113(3) 0.6397(3) 0.4655(2)
H21 H 0.808(5) 0.688(3) 0.5001(17)
H22 H 0.743(3) 0.598(4) 0.454(3)
O33 O 1.1169(4) 0.5503(4) 0.0565(2)
H23 H 1.160(5) 0.541(6) 0.096(2)
H24 H 1.154(6) 0.616(3) 0.053(3)
O34 O 0.0570(4) 0.7700(4) 0.0003(2)
H25 H 0.023(5) 0.823(4) 0.011(3)
H26 H 0.015(5) 0.739(5) -0.0414(17)
O35 O 0.5782(4) -0.2022(4) 0.4503(2)
H27 H 0.651(3) -0.194(6) 0.474(3)
H28 H 0.575(6) -0.251(5) 0.414(2)
O36 O 0.3177(4) 0.1421(3) -0.0358(2)
H29 H 0.307(5) 0.194(4) -0.006(3)
H30 H 0.251(3) 0.097(4) -0.050(3)
O38 O 0.6484(4) 0.4611(3) 0.0480(2)
H31 H 0.631(6) 0.521(4) 0.065(3)
H32 H 0.632(6) 0.458(5) 0.0042(11)
O39 O 0.8454(4) 0.0237(3) 0.45767(19)
H33 H 0.874(5) -0.025(4) 0.437(2)
H34 H 0.867(5) 0.020(5) 0.5005(11)
Na1 Na 0.58466(17) 0.01179(17) 0.39239(10)
Na2 Na 0.90265(18) 0.59891(17) 0.07522(11)
loop_
_geom_bond_atom_site_label_1
_geom_bond_atom_site_label_2
_geom_bond_site_symmetry_1
_geom_bond_site_symmetry_2
C1 C2 1_555 1_555
C2 H1 1_555 1_555
C3 C2 1_555 1_555
C4 C3 1_555 1_555
H2 C4 1_555 1_555
C5 C4 1_555 1_555
C6 C1 1_555 1_555
C7 C3 1_555 1_555
C8 C5 1_555 1_555
C9 C10 1_555 1_555
C10 H3 1_555 1_555
C11 C10 1_555 1_555
C12 C11 1_555 1_555
H4 C12 1_555 1_555
C13 C12 1_555 1_555
C14 C9 1_555 1_555
C15 C11 1_555 1_555
C16 C13 1_555 1_555
C17 C18 1_555 1_555
C18 H5 1_555 1_555
C19 C18 1_555 1_555
C20 C19 1_555 1_555
H6 C20 1_555 1_555
C21 C20 1_555 1_555
C22 C17 1_555 1_555
C23 C19 1_555 1_555
C24 C21 1_555 1_555
C25 C26 1_555 1_555
C26 H7 1_555 1_555
C27 C26 1_555 1_555
C28 C27 1_555 1_555
H8 C28 1_555 1_555
C29 C28 1_555 1_555
C30 C25 1_555 1_555
C31 C27 1_555 1_555
C32 C29 1_555 1_555
C33 C34 1_555 1_555
C34 O28 1_555 1_555
N1 C1 1_555 1_555
N2 C9 1_555 1_555
N3 C17 1_555 1_555
N4 C25 1_555 1_555
O1 C6 1_555 1_555
O2 C6 1_555 1_555
O3 C7 1_555 1_555
H9 O3 1_555 1_555
O4 C7 1_555 1_555
O5 C8 1_555 1_555
O6 C8 1_555 1_555
O7 C14 1_555 1_555
O8 C14 1_555 1_555
O9 C15 1_555 1_555
O10 C15 1_555 1_555
H10 O10 1_555 1_555
O11 C16 1_555 1_555
O12 C16 1_555 1_555
O13 C22 1_555 1_555
O14 C22 1_555 1_555
O15 C23 1_555 1_555
H11 O15 1_555 1_555
O16 C23 1_555 1_555
O17 C24 1_555 1_555
O18 C24 1_555 1_555
O19 C30 1_555 1_555
O20 C30 1_555 1_555
O21 C31 1_555 1_555
O22 C31 1_555 1_555
H12 O22 1_555 1_555
O23 C32 1_555 1_555
O24 C32 1_555 1_555
O25 H13 1_555 1_555
H14 O25 1_555 1_555
O26 H15 1_555 1_555
H16 O26 1_555 1_555
O27 C33 1_555 1_555
O28 Ce1 1_555 1_555
O29 C33 1_555 1_555
O30 H17 1_555 1_555
H18 O30 1_555 1_555
O31 H19 1_555 1_555
H20 O31 1_555 1_555
O32 H21 1_555 1_555
H22 O32 1_555 1_555
O33 H23 1_555 1_555
H24 O33 1_555 1_555
O34 H25 1_555 1_555
H26 O34 1_555 1_555
O35 H27 1_555 1_555
H28 O35 1_555 1_555
O36 H29 1_555 1_555
H30 O36 1_555 1_555
O37 C34 1_555 1_555
O38 H31 1_555 1_555
H32 O38 1_555 1_555
O39 H33 1_555 1_555
H34 O39 1_555 1_555
Ce1 N1 1_555 1_555
Ce2 N3 1_555 1_555
O27_2 Ce2 1_555 1_555
O37_2 Ce2 1_555 1_555
Ce2_2 O27 1_555 1_555
C5 N1 1_555 1_555
C13 N2 1_555 1_555
C21 N3 1_555 1_555
C29 N4 1_555 1_555
N2 Ce1 1_555 1_555
N4 Ce2 1_555 1_555
O1 Ce1 1_555 1_555
O6 Ce1 1_555 1_555
O7 Ce1 1_555 1_555
O8 Ce2 1_555 1_555
O12 Ce1 1_555 1_555
O13 Ce2 1_555 1_555
O18 Ce2 1_555 1_555
O19 Ce2 1_555 1_555
O20 Ce1 1_555 1_555
O24 Ce2 1_555 1_555
O25 Ce2 1_555 1_555
O26 Ce1 1_555 1_555
O29 Ce1 1_555 1_555
O37 Ce2_2 1_555 1_555

#END
