
#######################################################################
#
#                 Cambridge Crystallographic Data Centre
#                                CCDC 
#
#######################################################################
#
# If this CIF has been generated from an entry in the Cambridge 
# Structural Database, then it will include bibliographic, chemical, 
# crystal, experimental, refinement or atomic coordinate data resulting 
# from the CCDC's data processing and validation procedures.
#
#######################################################################

data_RAYFAA
_symmetry_cell_setting           rhombohedral
_symmetry_space_group_name_H-M   'R -3'
_symmetry_Int_Tables_number      148
_space_group_name_Hall           '-R 3'
loop_
_symmetry_equiv_pos_site_id
_symmetry_equiv_pos_as_xyz
1 x,y,z
2 -y,x-y,z
3 -x+y,-x,z
4 2/3+x,1/3+y,1/3+z
5 2/3-y,1/3+x-y,1/3+z
6 2/3-x+y,1/3-x,1/3+z
7 1/3+x,2/3+y,2/3+z
8 1/3-y,2/3+x-y,2/3+z
9 1/3-x+y,2/3-x,2/3+z
10 -x,-y,-z
11 y,-x+y,-z
12 x-y,x,-z
13 1/3-x,2/3-y,2/3-z
14 1/3+y,2/3-x+y,2/3-z
15 1/3+x-y,2/3+x,2/3-z
16 2/3-x,1/3-y,1/3-z
17 2/3+y,1/3-x+y,1/3-z
18 2/3+x-y,1/3+x,1/3-z
_cell_length_a                   41.3528(18)
_cell_length_b                   41.3528(18)
_cell_length_c                   18.2765(15)
_cell_angle_alpha                90
_cell_angle_beta                 90
_cell_angle_gamma                120
_cell_volume                     27066.6
loop_
_atom_site_label
_atom_site_type_symbol
_atom_site_fract_x
_atom_site_fract_y
_atom_site_fract_z
O10 O 0.5453(5) 0.3131(4) 0.2447(9)
O11 O 0.4201(5) 0.0464(4) 0.7768(8)
O12 O 0.4313(6) 0.9299(6) 0.2461(11)
O13 O 0.5288(4) 0.8258(4) 0.3898(11)
Cu1 Cu 0.422512(14) 0.127703(14) 0.42765(3)
Cu2 Cu 0.408526(15) 0.028816(15) 0.49975(3)
Cu3 Cu 0.413739(16) 0.226419(15) 0.39486(3)
Cu4 Cu 0.408245(16) -0.074350(15) 0.52230(3)
N1 N 0.45036(11) -0.08155(11) 0.4794(2)
N2 N 0.43882(10) -0.02562(10) 0.4746(2)
N3 N 0.43618(10) 0.00508(10) 0.46152(19)
N4 N 0.48336(10) 0.00913(10) 0.3924(2)
N5 N 0.44373(9) 0.06901(9) 0.42756(18)
N6 N 0.45073(9) 0.10263(9) 0.39928(18)
N7 N 0.38306(13) 0.24014(12) 0.4644(2)
N8 N 0.39657(11) 0.18545(10) 0.4651(2)
N9 N 0.39834(11) 0.15376(10) 0.47479(19)
N10 N 0.36188(15) 0.15547(13) 0.5641(2)
N11 N 0.39496(11) 0.09204(10) 0.5111(2)
N12 N 0.38862(12) 0.05881(11) 0.5380(2)
N13 N 0.35573(16) 0.07774(14) 0.6052(3)
N14 N 0.5251(2) 0.2901(3) 0.4913(6)
N15 N 0.3213(4) -0.1410(5) 0.3610(7)
O1 O 0.42660(9) 0.20013(9) 0.32078(16)
O2 O 0.49369(9) 0.22954(9) 0.31060(19)
O3 O 0.46095(8) 0.17358(8) 0.37815(16)
O4 O 0.37609(9) 0.04643(10) 0.29965(18)
O5 O 0.39558(8) 0.09910(8) 0.22069(17)
O6 O 0.33113(9) 0.06364(8) 0.25966(16)
O7 O 0.36222(11) 0.00066(12) 0.4161(2)
O8 O 0.46760(13) 0.26689(12) 0.4446(2)
O9 O 0.37410(14) -0.10413(13) 0.4216(2)
S1 S 0.37049(3) 0.07785(3) 0.28248(6)
S2 S 0.45917(3) 0.19469(3) 0.31442(6)
C1 C 0.45462(16) -0.11113(14) 0.4857(3)
H1 H 0.4374 -0.1313 0.5135
C2 C 0.48362(17) -0.11335(16) 0.4525(3)
H2 H 0.4862 -0.1343 0.4586
C3 C 0.50851(16) -0.08356(17) 0.4101(3)
H3 H 0.5281 -0.0845 0.3870
C4 C 0.50476(14) -0.05271(15) 0.4019(3)
H4 H 0.5215 -0.0324 0.3738
C5 C 0.47505(13) -0.05294(13) 0.4368(2)
C6 C 0.46661(12) -0.02237(12) 0.4331(2)
C7 C 0.46352(12) 0.02492(12) 0.4127(2)
C8 C 0.46632(11) 0.06032(11) 0.3930(2)
C9 C 0.3780(2) 0.27004(16) 0.4602(3)
H5 H 0.3881 0.2862 0.4206
C10 C 0.3586(3) 0.2773(2) 0.5121(4)
H6 H 0.3562 0.2985 0.5086
C11 C 0.3428(3) 0.2532(2) 0.5687(4)
H7 H 0.3288 0.2572 0.6035
C12 C 0.3478(2) 0.2224(2) 0.5745(4)
H8 H 0.3376 0.2058 0.6133
C13 C 0.36834(18) 0.21721(16) 0.5210(3)
C14 C 0.37472(16) 0.18498(14) 0.5191(3)
C15 C 0.37718(15) 0.13715(13) 0.5331(3)
C16 C 0.37496(15) 0.10214(14) 0.5530(3)
C17 C 0.36525(19) 0.05142(17) 0.5938(3)
H9 H 0.3563 0.0300 0.6223
C18 C 0.4907(3) 0.2630(3) 0.4676(5)
H10 H 0.4859 0.2386 0.4709
C19 C 0.5365(4) 0.3289(3) 0.4880(10)
H11 H 0.5209 0.3311 0.4519
H12 H 0.5621 0.3425 0.4723
H13 H 0.5340 0.3388 0.5337
C20 C 0.5525(5) 0.2808(5) 0.5253(13)
H14 H 0.5492 0.2809 0.5773
H15 H 0.5774 0.2999 0.5126
H16 H 0.5488 0.2569 0.5105
C21 C 0.3401(4) -0.1242(4) 0.4193(6)
H17 H 0.3268 -0.1276 0.4625
C22 C 0.2795(5) -0.1675(8) 0.3669(13)
H18 H 0.2767 -0.1891 0.3417
H19 H 0.2636 -0.1596 0.3448
H20 H 0.2727 -0.1736 0.4174
C23 C 0.3412(7) -0.1226(9) 0.2879(9)
H21 H 0.3427 -0.1404 0.2565
H22 H 0.3659 -0.1036 0.3016
H23 H 0.3290 -0.1113 0.2625
O14 O 0.45362(8) 0.17252(9) 0.24696(17)
O15 O 0.37738(9) 0.10240(9) 0.34475(17)
N16 N 0.48782(9) 0.08605(10) 0.34356(18)
C24 C 0.47695(12) 0.11174(12) 0.3495(2)
H24 H 0.4868 0.1334 0.3216
C25 C 0.3588(2) -0.0300(2) 0.3738(4)
H25 H 0.3799 -0.0214 0.3416
H26 H 0.3363 -0.0405 0.3454
H27 H 0.3580 -0.0488 0.4059
H28 H 0.3675(19) 0.0163(19) 0.392(4)
Cu2G Cu 0.304517(15) 0.046377(21) 0.16642(3)
Cu3N Cu 0.520653(22) 0.080406(16) 0.27181(3)
Cu4G Cu 0.407683(15) 0.149262(22) 0.18897(3)
O5E O 0.37019(11) -0.06225(8) 0.55402(17)
O6E O 0.39918(12) 0.00220(9) 0.59299(16)
O14E O 0.38557(12) -0.12029(8) 0.58029(17)
N16M N 0.41938(10) 0.26490(13) 0.32311(18)
loop_
_geom_bond_atom_site_label_1
_geom_bond_atom_site_label_2
_geom_bond_site_symmetry_1
_geom_bond_site_symmetry_2
Cu1 N6 1_555 1_555
Cu2 N3 1_555 1_555
Cu3 N7 1_555 1_555
Cu4 N1 1_555 1_555
N1 C1 1_555 1_555
N2 Cu4 1_555 1_555
N3 N2 1_555 1_555
N4 C6 1_555 1_555
N5 Cu2 1_555 1_555
N6 N5 1_555 1_555
N7 C9 1_555 1_555
N8 Cu3 1_555 1_555
N9 Cu1 1_555 1_555
N10 C14 1_555 1_555
N11 Cu1 1_555 1_555
N12 Cu2 1_555 1_555
N13 C16 1_555 1_555
N14 C18 1_555 1_555
N15 C21 1_555 1_555
O1 Cu3 1_555 1_555
O2 S2 1_555 1_555
O3 Cu1 1_555 1_555
O4 S1 1_555 1_555
O5 S1 1_555 1_555
O6 S1 1_555 1_555
O7 Cu2 1_555 1_555
O8 Cu3 1_555 1_555
O9 Cu4 1_555 1_555
S1 O15 1_555 1_555
S2 O1 1_555 1_555
C1 H1 1_555 1_555
C2 C1 1_555 1_555
H2 C2 1_555 1_555
C3 C2 1_555 1_555
H3 C3 1_555 1_555
C4 C3 1_555 1_555
H4 C4 1_555 1_555
C5 N1 1_555 1_555
C6 N2 1_555 1_555
C7 N3 1_555 1_555
C8 N5 1_555 1_555
C9 H5 1_555 1_555
C10 C9 1_555 1_555
H6 C10 1_555 1_555
C11 C10 1_555 1_555
H7 C11 1_555 1_555
C12 C11 1_555 1_555
H8 C12 1_555 1_555
C13 N7 1_555 1_555
C14 N8 1_555 1_555
C15 N9 1_555 1_555
C16 N11 1_555 1_555
C17 N12 1_555 1_555
H9 C17 1_555 1_555
C18 O8 1_555 1_555
H10 C18 1_555 1_555
C19 N14 1_555 1_555
H11 C19 1_555 1_555
H12 C19 1_555 1_555
H13 C19 1_555 1_555
C20 N14 1_555 1_555
H14 C20 1_555 1_555
H15 C20 1_555 1_555
H16 C20 1_555 1_555
C21 O9 1_555 1_555
H17 C21 1_555 1_555
C22 N15 1_555 1_555
H18 C22 1_555 1_555
H19 C22 1_555 1_555
H20 C22 1_555 1_555
C23 N15 1_555 1_555
H21 C23 1_555 1_555
H22 C23 1_555 1_555
H23 C23 1_555 1_555
O14 S2 1_555 1_555
O15 Cu1 1_555 1_555
N16 C8 1_555 1_555
C24 N6 1_555 1_555
H24 C24 1_555 1_555
C25 O7 1_555 1_555
H25 C25 1_555 1_555
H26 C25 1_555 1_555
H27 C25 1_555 1_555
H28 O7 1_555 1_555
Cu2G O6 1_555 1_555
Cu3N N16 1_555 1_555
Cu4G O5 1_555 1_555
O5E Cu4 1_555 1_555
O6E Cu2 1_555 1_555
O14E Cu4 1_555 1_555
N16M Cu3 1_555 1_555
N4 C7 1_555 1_555
N8 N9 1_555 1_555
N10 C15 1_555 1_555
N11 N12 1_555 1_555
N13 C17 1_555 1_555
O3 S2 1_555 1_555
C4 C5 1_555 1_555
C5 C6 1_555 1_555
C7 C8 1_555 1_555
C12 C13 1_555 1_555
C13 C14 1_555 1_555
C15 C16 1_555 1_555
O14 Cu4G 1_555 1_555
N16 C24 1_555 1_555

#END
