
#######################################################################
#
#                 Cambridge Crystallographic Data Centre
#                                CCDC 
#
#######################################################################
#
# If this CIF has been generated from an entry in the Cambridge 
# Structural Database, then it will include bibliographic, chemical, 
# crystal, experimental, refinement or atomic coordinate data resulting 
# from the CCDC's data processing and validation procedures.
#
#######################################################################

data_RAYMOV
_symmetry_cell_setting           hexagonal
_symmetry_space_group_name_H-M   'P -6 2 c'
_symmetry_Int_Tables_number      190
_space_group_name_Hall           "P -6c -2'c"
loop_
_symmetry_equiv_pos_site_id
_symmetry_equiv_pos_as_xyz
1 x,y,z
2 -x+y,-x,1/2-z
3 -y,x-y,z
4 x,y,1/2-z
5 -x+y,-x,z
6 -y,x-y,1/2-z
7 y,x,1/2+z
8 x-y,-y,-z
9 -x,-x+y,1/2+z
10 y,x,-z
11 x-y,-y,1/2+z
12 -x,-x+y,-z
_cell_length_a                   20.0962(3)
_cell_length_b                   20.0962(3)
_cell_length_c                   26.9145(9)
_cell_angle_alpha                90
_cell_angle_beta                 90
_cell_angle_gamma                120
_cell_volume                     9413.36
loop_
_atom_site_label
_atom_site_type_symbol
_atom_site_fract_x
_atom_site_fract_y
_atom_site_fract_z
C1 C 0.77785(9) 0.49157(8) 0.67988(5)
C2 C 0.82245(8) 0.55355(8) 0.64156(5)
C3 C 0.79655(9) 0.59943(9) 0.62253(6)
H1 H 0.7491 0.5919 0.6330
C4 C 0.83822(9) 0.65662(9) 0.58836(6)
H2 H 0.8190 0.6873 0.5768
C5 C 0.90802(8) 0.66874(7) 0.57126(6)
C6 C 0.93659(9) 0.62325(9) 0.59070(7)
H3 H 0.9839 0.6309 0.5800
C7 C 0.89439(9) 0.56644(9) 0.62605(6)
H4 H 0.9142 0.5372 0.6393
C8 C 1.0000 0.71868(9) 0.5000
H5 H 1.0000 0.6724 0.5000
C9 C 0.95499(8) 0.72951(7) 0.53433(5)
C10 C 0.95415(7) 0.79852(7) 0.53343(5)
H6 H 0.9227 0.8059 0.5554
C11 C 1.0000 0.85655(8) 0.5000
C12 C 1.0000 0.92988(9) 0.5000
C13 C 1.06898(8) 1.0000 0.5000
H7 H 1.1153 1.0000 0.5000
Mn1 Mn 0.632776(14) 0.416134(14) 0.7500
O1 O 0.71583(6) 0.48497(5) 0.69350(4)
O2 O 0.80679(6) 0.45252(6) 0.69355(4)
O3 O 0.59505(10) 0.50306(10) 0.7500
O4 O 0.6667 0.3333 0.7500
C1K C 1.22215(9) 0.71372(12) 0.32012(5)
C1B C 1.50843(8) 1.28628(12) 0.67988(5)
C1G C 1.28628(12) 1.50843(8) 0.32012(5)
C1D C 0.71372(12) 1.22215(9) 0.67988(5)
C1I C 0.49157(8) 0.77785(9) 0.32012(5)
C2K C 1.17755(8) 0.73110(11) 0.35844(5)
C2B C 1.44645(8) 1.26890(11) 0.64156(5)
C2G C 1.26890(11) 1.44645(8) 0.35844(5)
C2D C 0.73110(11) 1.17755(8) 0.64156(5)
C2I C 0.55355(8) 0.82245(8) 0.35844(5)
C3K C 1.20345(9) 0.80288(13) 0.37747(6)
C3B C 1.40057(9) 1.19712(13) 0.62253(6)
C3G C 1.19712(13) 1.40057(9) 0.37747(6)
C3D C 0.80288(13) 1.20345(9) 0.62253(6)
C3I C 0.59943(9) 0.79655(9) 0.37747(6)
H1K H 1.2509 0.8428 0.3670
H1B H 1.4081 1.1572 0.6330
H1G H 1.1572 1.4081 0.3670
H1D H 0.8428 1.2509 0.6330
H1I H 0.5919 0.7491 0.3670
C4K C 1.16178(9) 0.81840(13) 0.41164(6)
C4B C 1.34338(9) 1.18160(13) 0.58836(6)
C4G C 1.18160(13) 1.34338(9) 0.41164(6)
C4D C 0.81840(13) 1.16178(9) 0.58836(6)
C4I C 0.65662(9) 0.83822(9) 0.41164(6)
H2K H 1.1810 0.8683 0.4232
H2B H 1.3127 1.1317 0.5768
H2G H 1.1317 1.3127 0.4232
H2D H 0.8683 1.1810 0.5768
H2I H 0.6873 0.8190 0.4232
C5K C 1.09198(8) 0.76072(11) 0.42874(6)
C5B C 1.33126(7) 1.23928(11) 0.57126(6)
C5G C 1.23928(11) 1.33126(7) 0.42874(6)
C5D C 0.76072(11) 1.09198(8) 0.57126(6)
C5I C 0.66874(7) 0.90802(8) 0.42874(6)
C6K C 1.06341(9) 0.68666(13) 0.40930(7)
C6B C 1.37675(9) 1.31334(13) 0.59070(7)
C6G C 1.31334(13) 1.37675(9) 0.40930(7)
C6D C 0.68666(13) 1.06341(9) 0.59070(7)
C6I C 0.62325(9) 0.93659(9) 0.40930(7)
H3K H 1.0161 0.6470 0.4200
H3B H 1.3691 1.3530 0.5800
H3G H 1.3530 1.3691 0.4200
H3D H 0.6470 1.0161 0.5800
H3I H 0.6309 0.9839 0.4200
C7K C 1.10561(9) 0.67205(13) 0.37395(6)
C7B C 1.43356(9) 1.32795(13) 0.62605(6)
C7G C 1.32795(13) 1.43356(9) 0.37395(6)
C7D C 0.67205(13) 1.10561(9) 0.62605(6)
C7I C 0.56644(9) 0.89439(9) 0.37395(6)
H4K H 1.0858 0.6230 0.3607
H4B H 1.4628 1.3770 0.6393
H4G H 1.3770 1.4628 0.3607
H4D H 0.6230 1.0858 0.6393
H4I H 0.5372 0.9142 0.3607
C8B C 1.28132(9) 1.28132(9) 0.5000
C8D C 0.71868(9) 1.0000 0.5000
H5B H 1.3276 1.3276 0.5000
H5D H 0.6724 1.0000 0.5000
C9K C 1.04501(8) 0.77452(11) 0.46567(5)
C9B C 1.27049(7) 1.22548(11) 0.53433(5)
C9G C 1.22548(11) 1.27049(7) 0.46567(5)
C9D C 0.77452(11) 1.04501(8) 0.53433(5)
C9I C 0.72951(7) 0.95499(8) 0.46567(5)
C10K C 1.04585(7) 0.84437(10) 0.46657(5)
C10B C 1.20148(7) 1.15563(10) 0.53343(5)
C10G C 1.15563(10) 1.20148(7) 0.46657(5)
C10D C 0.84437(10) 1.04585(7) 0.53343(5)
C10I C 0.79852(7) 0.95415(7) 0.46657(5)
H6K H 1.0773 0.8832 0.4446
H6G H 1.1168 1.1941 0.4446
H6B H 1.1941 1.1168 0.5554
H6I H 0.8059 0.9227 0.4446
H6D H 0.8832 1.0773 0.5554
C11B C 1.14345(8) 1.14345(8) 0.5000
C11D C 0.85655(8) 1.0000 0.5000
C12B C 1.07012(9) 1.07012(9) 0.5000
C12D C 0.92988(9) 1.0000 0.5000
C13B C 1.0000 1.06898(8) 0.5000
C13D C 0.93102(8) 0.93102(8) 0.5000
H7D H 0.8847 0.8847 0.5000
H7B H 1.0000 1.1153 0.5000
Mn1H Mn 1.367224(14) 0.783358(20) 0.2500
Mn1B Mn 1.583866(14) 1.216642(20) 0.7500
Mn1A Mn 0.783358(20) 0.367224(14) 0.7500
Mn1B_2 Mn 0.583866(14) 0.216642(20) 0.7500
Mn1G Mn 1.216642(20) 0.583866(14) 0.2500
Mn1_2 Mn 1.632776(14) 1.416134(14) 0.7500
Mn1G_2 Mn 1.216642(20) 1.583866(14) 0.2500
Mn1F Mn 1.416134(14) 1.632776(14) 0.2500
Mn1A_2 Mn 0.783358(20) 1.367224(14) 0.7500
Mn1B_3 Mn 0.583866(14) 1.216642(20) 0.7500
Mn1F_2 Mn 0.416134(14) 0.632776(14) 0.2500
Mn1H_2 Mn 0.367224(14) 0.783358(20) 0.2500
O1K O 1.28417(6) 0.76914(8) 0.30650(4)
O1B O 1.51503(5) 1.23086(8) 0.69350(4)
O1G O 1.23086(8) 1.51503(5) 0.30650(4)
O1D O 0.76914(8) 1.28417(6) 0.69350(4)
O1I O 0.48497(5) 0.71583(6) 0.30650(4)
O1C O 0.71583(6) 0.48497(5) 0.80650(4)
O1A O 0.76914(8) 0.28417(6) 0.80650(4)
O1D_2 O 0.76914(8) 0.28417(6) 0.69350(4)
O1B_2 O 0.51503(5) 0.23086(8) 0.69350(4)
O1E O 0.51503(5) 0.23086(8) 0.80650(4)
O2K O 1.19321(6) 0.64573(8) 0.30645(4)
O2B O 1.54748(6) 1.35427(8) 0.69355(4)
O2G O 1.35427(8) 1.54748(6) 0.30645(4)
O2D O 0.64573(8) 1.19321(6) 0.69355(4)
O2I O 0.45252(6) 0.80679(6) 0.30645(4)
O2B_2 O 0.54748(6) 0.35427(8) 0.69355(4)
O2E O 0.54748(6) 0.35427(8) 0.80645(4)
O2C O 0.80679(6) 0.45252(6) 0.80645(4)
O2A O 0.64573(8) 0.19321(6) 0.80645(4)
O2D_2 O 0.64573(8) 0.19321(6) 0.69355(4)
O3A O 0.90801(14) 0.40495(10) 0.7500
O3B O 0.49694(10) 0.09199(14) 0.7500
loop_
_geom_bond_atom_site_label_1
_geom_bond_atom_site_label_2
_geom_bond_site_symmetry_1
_geom_bond_site_symmetry_2
C1 C2 1_555 1_555
C2 C3 1_555 1_555
C3 H1 1_555 1_555
C4 C3 1_555 1_555
H2 C4 1_555 1_555
C5 C4 1_555 1_555
C6 C5 1_555 1_555
H3 C6 1_555 1_555
C7 C2 1_555 1_555
H4 C7 1_555 1_555
C8 H5 1_555 1_555
C9 C5 1_555 1_555
C10 C9 1_555 1_555
H6 C10 1_555 1_555
C11 C10 1_555 1_555
C12 C11 1_555 1_555
C13 C12 1_555 1_555
H7 C13 1_555 1_555
Mn1 O1 1_555 1_555
O1 C1 1_555 1_555
O2 C1 1_555 1_555
O3 Mn1 1_555 1_555
O4 Mn1 1_555 1_555
C1K C2K 1_555 1_555
C1B C2B 1_555 1_555
C1G C2G 1_555 1_555
C1D C2D 1_555 1_555
C1I C2I 1_555 1_555
C2K C3K 1_555 1_555
C2B C3B 1_555 1_555
C2G C3G 1_555 1_555
C2D C3D 1_555 1_555
C2I C3I 1_555 1_555
C3K H1K 1_555 1_555
C3B H1B 1_555 1_555
C3G H1G 1_555 1_555
C3D H1D 1_555 1_555
C3I H1I 1_555 1_555
C4K C3K 1_555 1_555
C4B C3B 1_555 1_555
C4G C3G 1_555 1_555
C4D C3D 1_555 1_555
C4I C3I 1_555 1_555
H2K C4K 1_555 1_555
H2B C4B 1_555 1_555
H2G C4G 1_555 1_555
H2D C4D 1_555 1_555
H2I C4I 1_555 1_555
C5K C4K 1_555 1_555
C5B C4B 1_555 1_555
C5G C4G 1_555 1_555
C5D C4D 1_555 1_555
C5I C4I 1_555 1_555
C6K C5K 1_555 1_555
C6B C5B 1_555 1_555
C6G C5G 1_555 1_555
C6D C5D 1_555 1_555
C6I C5I 1_555 1_555
H3K C6K 1_555 1_555
H3B C6B 1_555 1_555
H3G C6G 1_555 1_555
H3D C6D 1_555 1_555
H3I C6I 1_555 1_555
C7K C2K 1_555 1_555
C7B C2B 1_555 1_555
C7G C2G 1_555 1_555
C7D C2D 1_555 1_555
C7I C2I 1_555 1_555
H4K C7K 1_555 1_555
H4B C7B 1_555 1_555
H4G C7G 1_555 1_555
H4D C7D 1_555 1_555
H4I C7I 1_555 1_555
C8B H5B 1_555 1_555
C8D H5D 1_555 1_555
C9K C8 1_555 1_555
C9B C5B 1_555 1_555
C9G C5G 1_555 1_555
C9D C5D 1_555 1_555
C9I C5I 1_555 1_555
C10K C11 1_555 1_555
C10B C9B 1_555 1_555
C10G C9G 1_555 1_555
C10D C9D 1_555 1_555
C10I C9I 1_555 1_555
H6K C10K 1_555 1_555
H6G C10G 1_555 1_555
H6B C10B 1_555 1_555
H6I C10I 1_555 1_555
H6D C10D 1_555 1_555
C11B C10B 1_555 1_555
C11D C10D 1_555 1_555
C12B C13 1_555 1_555
C12D C11D 1_555 1_555
C13B C12B 1_555 1_555
C13D C12 1_555 1_555
H7D C13D 1_555 1_555
H7B C13B 1_555 1_555
Mn1H O1K 1_555 1_555
Mn1B O1B 1_555 1_555
Mn1A O2 1_555 1_555
Mn1B_2 O4 1_555 1_555
Mn1G O2K 1_555 1_555
Mn1_2 O2B 1_555 1_555
Mn1G_2 O1G 1_555 1_555
Mn1F O2G 1_555 1_555
Mn1A_2 O1D 1_555 1_555
Mn1B_3 O2D 1_555 1_555
Mn1F_2 O1I 1_555 1_555
Mn1H_2 O2I 1_555 1_555
O1K C1K 1_555 1_555
O1B C1B 1_555 1_555
O1G C1G 1_555 1_555
O1D C1D 1_555 1_555
O1I C1I 1_555 1_555
O1C Mn1 1_555 1_555
O1A Mn1A 1_555 1_555
O1D_2 Mn1A 1_555 1_555
O1B_2 Mn1B_2 1_555 1_555
O1E Mn1B_2 1_555 1_555
O2K C1K 1_555 1_555
O2B C1B 1_555 1_555
O2G C1G 1_555 1_555
O2D C1D 1_555 1_555
O2I C1I 1_555 1_555
O2B_2 Mn1 1_555 1_555
O2E Mn1 1_555 1_555
O2C Mn1A 1_555 1_555
O2A Mn1B_2 1_555 1_555
O2D_2 Mn1B_2 1_555 1_555
O3A Mn1A 1_555 1_555
O3B Mn1B_2 1_555 1_555
C6 C7 1_555 1_555
C8 C9 1_555 1_555
O4 Mn1A 1_555 1_555
C5K C9K 1_555 1_555
C6K C7K 1_555 1_555
C6B C7B 1_555 1_555
C6G C7G 1_555 1_555
C6D C7D 1_555 1_555
C6I C7I 1_555 1_555
C8B C9B 1_555 1_555
C8B C9G 1_555 1_555
C8D C9D 1_555 1_555
C8D C9I 1_555 1_555
C9K C10K 1_555 1_555
C10G C11B 1_555 1_555
C10I C11D 1_555 1_555
C11B C12B 1_555 1_555
C12D C13B 1_555 1_555
C12D C13D 1_555 1_555

#END
