
#######################################################################
#
#                 Cambridge Crystallographic Data Centre
#                                CCDC 
#
#######################################################################
#
# If this CIF has been generated from an entry in the Cambridge 
# Structural Database, then it will include bibliographic, chemical, 
# crystal, experimental, refinement or atomic coordinate data resulting 
# from the CCDC's data processing and validation procedures.
#
#######################################################################

data_RAZJIM
_symmetry_cell_setting           triclinic
_symmetry_space_group_name_H-M   'P -1'
_symmetry_Int_Tables_number      2
_space_group_name_Hall           '-P 1'
loop_
_symmetry_equiv_pos_site_id
_symmetry_equiv_pos_as_xyz
1 x,y,z
2 -x,-y,-z
_cell_length_a                   9.8618(5)
_cell_length_b                   11.7050(5)
_cell_length_c                   17.5577(5)
_cell_angle_alpha                78.366(8)
_cell_angle_beta                 84.120(9)
_cell_angle_gamma                84.769(10)
_cell_volume                     1969.47
loop_
_atom_site_label
_atom_site_type_symbol
_atom_site_fract_x
_atom_site_fract_y
_atom_site_fract_z
S12 S 0.78001(6) 0.41335(5) 0.30968(4)
F4 F 0.8124(3) 0.4607(3) 0.4451(2)
F5 F 0.6474(2) 0.3544(2) 0.4470(1)
F6 F 0.8533(2) 0.2796(3) 0.4388(1)
O4 O 0.7419(2) 0.3097(2) 0.2883(1)
O5 O 0.9211(2) 0.4360(2) 0.2885(1)
O6 O 0.6843(2) 0.5130(2) 0.2950(1)
C20 C 0.7726(3) 0.3749(3) 0.4155(2)
Ag1 Ag 0.43070(2) 0.11595(2) 0.93473(1)
Ag2 Ag 1.24097(2) 0.09975(2) 0.52075(1)
S1 S 0.82942(5) -0.07257(4) 0.93279(3)
S2 S 0.92174(5) 0.15501(4) 0.92474(3)
S3 S 0.65656(5) 0.09632(5) 1.01522(3)
S4 S 1.18892(5) 0.10378(5) 0.82984(3)
S5 S 1.07723(5) -0.16219(5) 0.84374(3)
S6 S 0.56559(5) 0.39424(4) 0.84337(3)
S7 S 0.40018(5) 0.56344(5) 0.91645(3)
S8 S 0.32999(5) 0.31487(5) 0.95657(3)
S9 S 0.57273(6) 0.76378(4) 0.84528(3)
S10 S 0.76301(6) 0.56997(5) 0.75576(4)
S11 S 0.65169(5) 0.11405(4) 0.75799(3)
F1 F 0.7127(3) 0.2098(2) 0.6132(1)
F2 F 0.5278(2) 0.2834(1) 0.6643(1)
F3 F 0.5300(3) 0.1156(2) 0.6333(1)
O1 O 0.5222(2) 0.1127(2) 0.8048(1)
O2 O 0.7092(2) 0.0009(1) 0.7480(1)
O3 O 0.7450(2) 0.1913(1) 0.7751(1)
N1 N 1.1191(3) 0.1939(2) 0.6145(1)
N2 N 0.8752(3) -0.0780(2) 0.5769(1)
N3 N 0.3566(2) 0.9511(2) 0.5902(1)
N4 N 0.6676(3) 0.7257(2) 0.5426(1)
C1 C 0.7955(2) 0.0605(2) 0.9586(1)
C2 C 1.0291(2) 0.0626(2) 0.8748(1)
C3 C 0.9854(2) -0.0458(2) 0.8789(1)
C4 C 1.1564(2) 0.2597(2) 0.7948(1)
C5 C 1.0519(2) 0.2913(2) 0.7345(1)
C6 C 1.0897(3) 0.2384(2) 0.6664(1)
C7 C 0.9782(2) -0.1710(2) 0.7635(1)
C8 C 1.0107(3) -0.0728(2) 0.6952(1)
C9 C 0.9340(3) -0.0758(2) 0.6286(2)
C10 C 0.4272(2) 0.4200(2) 0.9066(1)
C11 C 0.5363(2) 0.6175(2) 0.8519(1)
C12 C 0.6131(2) 0.5382(2) 0.8165(1)
C13 C 0.4566(2) 0.8398(2) 0.7747(1)
C14 C 0.5099(2) 0.8256(2) 0.6922(1)
C15 C 0.4228(2) 0.8943(2) 0.6341(1)
C16 C 0.7573(2) 0.4809(2) 0.6825(1)
C17 C 0.6442(3) 0.5183(2) 0.6276(1)
C18 C 0.6583(3) 0.6349(2) 0.5795(1)
C19 C 0.6025(3) 0.1840(2) 0.6615(2)
H1 H 1.248(3) 0.287(2) 0.772(1)
H2 H 1.128(3) 0.297(2) 0.838(2)
H3 H 1.044(3) 0.371(2) 0.718(1)
H4 H 0.965(3) 0.267(2) 0.756(1)
H5 H 0.883(3) -0.167(2) 0.780(1)
H6 H 1.004(3) -0.243(2) 0.753(1)
H7 H 1.101(3) -0.078(2) 0.680(1)
H8 H 0.992(3) 0.001(2) 0.710(1)
H9 H 0.456(3) 0.921(2) 0.780(1)
H10 H 0.371(3) 0.810(2) 0.790(1)
H11 H 0.511(3) 0.747(2) 0.689(1)
H12 H 0.594(3) 0.853(2) 0.679(1)
H13 H 0.750(3) 0.393(2) 0.707(1)
H14 H 0.838(3) 0.490(2) 0.652(2)
H15 H 0.559(3) 0.519(2) 0.655(2)
H16 H 0.649(3) 0.466(2) 0.593(2)
S3A S 0.34344(5) -0.09632(5) 0.98478(3)
N2A N 1.1248(3) 0.0780(2) 0.4231(1)
N3_2 N 1.3566(2) -0.0489(2) 0.5902(1)
N4A N 1.3324(3) 0.2743(2) 0.4574(1)
Ag1A Ag 0.56930(2) -0.11595(2) 1.06527(1)
Ag2A Ag 0.75903(2) -0.09975(2) 0.47925(1)
Ag2_2 Ag 0.24097(2) 1.09975(2) 0.52075(1)
Ag2A_2 Ag 0.75903(2) 0.90025(2) 0.47925(1)
O7? O 0.1142(9) 0.6133(6) 1.0132(4)
C21? C -0.020(2) 0.520(2) 0.9417(8)
C22? C 0.0339(8) 0.5399(5) 1.0146(4)
C23? C -0.011(1) 0.469(1) 1.0853(8)
H17? H -0.0661 0.5898 0.9166
H18? H 0.0543 0.4972 0.9075
H19? H -0.0813 0.4595 0.9549
H20? H -0.0569 0.5167 1.1193
H21? H -0.0728 0.4166 1.0756
H22? H 0.0646 0.4257 1.1089
loop_
_geom_bond_atom_site_label_1
_geom_bond_atom_site_label_2
_geom_bond_site_symmetry_1
_geom_bond_site_symmetry_2
Ag1 S3 1_555 1_555
Ag2 N1 1_555 1_555
S1 C1 1_555 1_555
S2 C1 1_555 1_555
S3 C1 1_555 1_555
S4 C2 1_555 1_555
S5 C3 1_555 1_555
S6 C10 1_555 1_555
S7 C10 1_555 1_555
S8 Ag1 1_555 1_555
S9 C11 1_555 1_555
S10 C12 1_555 1_555
S11 O1 1_555 1_555
S12 O4 1_555 1_555
F1 C19 1_555 1_555
F2 C19 1_555 1_555
F3 C19 1_555 1_555
F4 C20 1_555 1_555
F5 C20 1_555 1_555
F6 C20 1_555 1_555
O1 Ag1 1_555 1_555
O2 S11 1_555 1_555
O3 S11 1_555 1_555
O5 S12 1_555 1_555
O6 S12 1_555 1_555
N1 C6 1_555 1_555
N2 C9 1_555 1_555
N3 C15 1_555 1_555
N4 C18 1_555 1_555
C2 S2 1_555 1_555
C3 S1 1_555 1_555
C4 S4 1_555 1_555
C5 C4 1_555 1_555
C6 C5 1_555 1_555
C7 S5 1_555 1_555
C8 C7 1_555 1_555
C9 C8 1_555 1_555
C10 S8 1_555 1_555
C11 S7 1_555 1_555
C12 S6 1_555 1_555
C13 S9 1_555 1_555
C14 C13 1_555 1_555
C15 C14 1_555 1_555
C16 S10 1_555 1_555
C17 C16 1_555 1_555
C18 C17 1_555 1_555
C19 S11 1_555 1_555
C20 S12 1_555 1_555
H1 C4 1_555 1_555
H2 C4 1_555 1_555
H3 C5 1_555 1_555
H4 C5 1_555 1_555
H5 C7 1_555 1_555
H6 C7 1_555 1_555
H7 C8 1_555 1_555
H8 C8 1_555 1_555
H9 C13 1_555 1_555
H10 C13 1_555 1_555
H11 C14 1_555 1_555
H12 C14 1_555 1_555
H13 C16 1_555 1_555
H14 C16 1_555 1_555
H15 C17 1_555 1_555
H16 C17 1_555 1_555
S3A Ag1 1_555 1_555
N2A Ag2 1_555 1_555
N3_2 Ag2 1_555 1_555
N4A Ag2 1_555 1_555
Ag1A S3 1_555 1_555
Ag2A N2 1_555 1_555
Ag2_2 N3 1_555 1_555
Ag2A_2 N4 1_555 1_555
C2 C3 1_555 1_555
C11 C12 1_555 1_555
S3A Ag1A 1_555 1_555

#END
