
#######################################################################
#
#                 Cambridge Crystallographic Data Centre
#                                CCDC 
#
#######################################################################
#
# If this CIF has been generated from an entry in the Cambridge 
# Structural Database, then it will include bibliographic, chemical, 
# crystal, experimental, refinement or atomic coordinate data resulting 
# from the CCDC's data processing and validation procedures.
#
#######################################################################

data_REBWUQ
_symmetry_cell_setting           tetragonal
_symmetry_space_group_name_H-M   'I 41'
_symmetry_Int_Tables_number      80
_space_group_name_Hall           'I 4bw'
loop_
_symmetry_equiv_pos_site_id
_symmetry_equiv_pos_as_xyz
1 x,y,z
2 -y,1/2+x,1/4+z
3 1/2-x,1/2-y,1/2+z
4 1/2+y,-x,3/4+z
5 1/2+x,1/2+y,1/2+z
6 1/2-y,x,3/4+z
7 -x,-y,z
8 y,1/2-x,1/4+z
_cell_length_a                   26.381(3)
_cell_length_b                   26.381(3)
_cell_length_c                   13.318(7)
_cell_angle_alpha                90
_cell_angle_beta                 90
_cell_angle_gamma                90
_cell_volume                     9268.76
loop_
_atom_site_label
_atom_site_type_symbol
_atom_site_fract_x
_atom_site_fract_y
_atom_site_fract_z
Co1 Co 0.74131(4) 0.56591(4) 0.5609(2)
Co2 Co 0.78574(4) 0.06616(4) 0.4948(2)
O1 O 0.7067(3) 0.5646(3) 0.4110(6)
O2 O 0.7871(3) 0.5762(3) 0.4099(7)
O3 O 0.7488(4) 0.5742(3) 0.2698(7)
O4 O 0.7665(2) 0.5687(3) 0.7163(5)
O5 O 0.8284(3) 0.5654(2) 0.6151(6)
O6 O 0.8434(3) 0.5660(3) 0.7698(8)
O7 O 0.7595(2) 0.0645(3) 0.3382(6)
O8 O 0.6927(3) 0.0589(3) 0.4254(7)
O9 O 0.6902(2) 0.0637(3) 0.2653(7)
O10 O 0.8174(2) 0.0736(3) 0.6433(5)
O11 O 0.7391(2) 0.0653(3) 0.6290(6)
O12 O 0.7706(3) 0.0796(4) 0.7757(6)
N1 N 0.7520(2) 0.4867(2) 0.5419(6)
N2 N 0.7728(2) 0.1475(2) 0.4963(6)
N3 N 0.7786(3) 0.3301(2) 0.4986(6)
N4 N 0.7427(3) 0.3032(2) 0.5141(6)
N5 N 0.7410(2) 0.6476(2) 0.5507(6)
N6 N 0.7873(2) 0.9847(2) 0.4973(6)
N7 N 0.7440(3) 0.8072(2) 0.5245(5)
N8 N 0.7852(3) 0.8260(2) 0.5332(6)
N9 N 0.6660(2) 0.5632(2) 0.6216(6)
N10 N 0.5175(3) 0.5661(3) 0.7313(7)
N11 N 0.3624(3) 0.5688(2) 0.9339(6)
N12 N 0.5127(3) 0.5618(3) 0.8193(8)
N13 N 0.7476(4) 0.5726(4) 0.3584(8)
N14 N 0.8131(3) 0.5666(3) 0.7031(8)
N15 N 0.7131(3) 0.0628(3) 0.3420(8)
N16 N 0.7767(3) 0.0710(3) 0.6854(7)
C1 C 0.7164(3) 0.4540(3) 0.5708(8)
C2 C 0.7234(3) 0.3999(3) 0.5506(8)
C3 C 0.7663(3) 0.3840(3) 0.5140(7)
C4 C 0.8036(3) 0.4162(3) 0.4837(8)
C5 C 0.7927(3) 0.4682(3) 0.5040(8)
C6 C 0.8108(3) 0.1802(3) 0.4955(7)
C7 C 0.8048(3) 0.2316(3) 0.4986(7)
C8 C 0.7573(3) 0.2498(3) 0.5075(7)
C9 C 0.7170(3) 0.2160(3) 0.5100(7)
C10 C 0.7267(3) 0.1650(3) 0.5042(7)
C11 C 0.7849(3) 0.6727(3) 0.5506(7)
C12 C 0.7895(3) 0.7242(3) 0.5419(7)
C13 C 0.7442(3) 0.7521(3) 0.5311(7)
C14 C 0.6984(3) 0.7274(3) 0.5339(7)
C15 C 0.6978(3) 0.6754(3) 0.5440(7)
C16 C 0.7454(4) 0.9591(4) 0.4659(9)
C17 C 0.7437(4) 0.9061(4) 0.4851(10)
C18 C 0.7836(3) 0.8809(3) 0.5220(7)
C19 C 0.8240(4) 0.9059(4) 0.5416(8)
C20 C 0.8240(4) 0.9590(4) 0.5267(8)
C21 C 0.6587(3) 0.5732(3) 0.7190(8)
C22 C 0.6105(3) 0.5738(3) 0.7621(8)
C23 C 0.5690(3) 0.5636(3) 0.7034(7)
C24 C 0.5767(4) 0.5509(4) 0.6003(9)
C25 C 0.6272(4) 0.5519(3) 0.5667(8)
C26 C 0.3709(4) 0.5633(4) 0.8379(8)
C27 C 0.4212(4) 0.5601(3) 0.7939(8)
C28 C 0.4603(3) 0.5646(3) 0.8560(7)
C29 C 0.4530(3) 0.5698(3) 0.9568(8)
C30 C 0.4029(4) 0.5730(3) 0.9924(8)
H1 H 0.6855 0.4659 0.6037
H2 H 0.6970 0.3759 0.5663
H3 H 0.8351 0.4051 0.4526
H4 H 0.8182 0.4925 0.4834
H5 H 0.8439 0.1668 0.4930
H6 H 0.8331 0.2532 0.4954
H7 H 0.6831 0.2279 0.5152
H8 H 0.6990 0.1421 0.5047
H9 H 0.8156 0.6533 0.5573
H10 H 0.8220 0.7397 0.5443
H11 H 0.6684 0.7457 0.5264
H12 H 0.6656 0.6575 0.5464
H13 H 0.7179 0.9765 0.4341
H14 H 0.7139 0.8868 0.4683
H15 H 0.8555 0.8878 0.5629
H16 H 0.8548 0.9768 0.5414
H17 H 0.6873 0.5792 0.7591
H18 H 0.6063 0.5824 0.8316
H19 H 0.5488 0.5434 0.5580
H20 H 0.6330 0.5428 0.5000
H21 H 0.3411 0.5605 0.7968
H22 H 0.4240 0.5568 0.7198
H23 H 0.4812 0.5718 1.0028
H24 H 0.3970 0.5783 1.0611
N6_2 N 0.7873(2) -0.0153(2) 0.4973(6)
N11D N 0.8624(3) 0.0688(2) 0.4339(6)
Co2_2 Co 0.78574(4) 1.06616(4) 0.4948(2)
Co2D Co 0.28574(4) 0.56616(4) 0.9948(2)
O13 O 0.9209(5) 0.4044(6) 0.298(1)
C31 C 0.8954(8) 0.3960(9) 0.139(2)
C32 C 0.8968(8) 0.4226(8) 0.229(2)
C33 C 0.8664(7) 0.4753(7) 0.250(2)
H25 H 0.8818 0.4101 0.0850
H26 H 0.8665 0.3667 0.1574
H27 H 0.9230 0.3745 0.1289
H28 H 0.8377 0.4659 0.2717
H29 H 0.8887 0.4949 0.2797
H30 H 0.8627 0.4883 0.1761
O14 O 0.462(1) 0.064(1) 0.570(2)
O15 O 0.451(1) 0.0540(10) 0.451(2)
O16 O 0.399(1) 0.0802(9) 0.525(3)
loop_
_geom_bond_atom_site_label_1
_geom_bond_atom_site_label_2
_geom_bond_site_symmetry_1
_geom_bond_site_symmetry_2
Co1 O1 1_555 1_555
Co2 O7 1_555 1_555
O1 N13 1_555 1_555
O2 Co1 1_555 1_555
O3 N13 1_555 1_555
O4 Co1 1_555 1_555
O5 Co1 1_555 1_555
O6 N14 1_555 1_555
O7 N15 1_555 1_555
O8 Co2 1_555 1_555
O9 N15 1_555 1_555
O10 Co2 1_555 1_555
O11 Co2 1_555 1_555
O12 N16 1_555 1_555
O13 C32 1_555 1_555
N1 Co1 1_555 1_555
N2 Co2 1_555 1_555
N3 N4 1_555 1_555
N4 C8 1_555 1_555
N5 Co1 1_555 1_555
N6 C16 1_555 1_555
N7 N8 1_555 1_555
N8 C18 1_555 1_555
N9 Co1 1_555 1_555
N10 N12 1_555 1_555
N11 C26 1_555 1_555
N12 C28 1_555 1_555
N13 O2 1_555 1_555
N14 O4 1_555 1_555
N15 O8 1_555 1_555
N16 O10 1_555 1_555
C1 N1 1_555 1_555
C2 C1 1_555 1_555
C3 N3 1_555 1_555
C4 C3 1_555 1_555
C5 N1 1_555 1_555
C6 N2 1_555 1_555
C7 C6 1_555 1_555
C8 C7 1_555 1_555
C9 C8 1_555 1_555
C10 N2 1_555 1_555
C11 N5 1_555 1_555
C12 C11 1_555 1_555
C13 N7 1_555 1_555
C14 C13 1_555 1_555
C15 N5 1_555 1_555
C16 C17 1_555 1_555
C17 C18 1_555 1_555
C18 C19 1_555 1_555
C19 C20 1_555 1_555
C20 N6 1_555 1_555
C21 N9 1_555 1_555
C22 C21 1_555 1_555
C23 N10 1_555 1_555
C24 C23 1_555 1_555
C25 N9 1_555 1_555
C26 C27 1_555 1_555
C27 C28 1_555 1_555
C28 C29 1_555 1_555
C29 C30 1_555 1_555
C30 N11 1_555 1_555
C31 C32 1_555 1_555
C32 C33 1_555 1_555
C33 H28 1_555 1_555
H1 C1 1_555 1_555
H2 C2 1_555 1_555
H3 C4 1_555 1_555
H4 C5 1_555 1_555
H5 C6 1_555 1_555
H6 C7 1_555 1_555
H7 C9 1_555 1_555
H8 C10 1_555 1_555
H9 C11 1_555 1_555
H10 C12 1_555 1_555
H11 C14 1_555 1_555
H12 C15 1_555 1_555
H13 C16 1_555 1_555
H14 C17 1_555 1_555
H15 C19 1_555 1_555
H16 C20 1_555 1_555
H17 C21 1_555 1_555
H18 C22 1_555 1_555
H19 C24 1_555 1_555
H20 C25 1_555 1_555
H21 C26 1_555 1_555
H22 C27 1_555 1_555
H23 C29 1_555 1_555
H24 C30 1_555 1_555
H25 C31 1_555 1_555
H26 C31 1_555 1_555
H27 C31 1_555 1_555
H29 C33 1_555 1_555
H30 C33 1_555 1_555
N6_2 Co2 1_555 1_555
N11D Co2 1_555 1_555
Co2_2 N6 1_555 1_555
Co2D N11 1_555 1_555
O5 N14 1_555 1_555
O11 N16 1_555 1_555
C2 C3 1_555 1_555
C4 C5 1_555 1_555
C9 C10 1_555 1_555
C12 C13 1_555 1_555
C14 C15 1_555 1_555
C22 C23 1_555 1_555
C24 C25 1_555 1_555

#END
