
#######################################################################
#
#                 Cambridge Crystallographic Data Centre
#                                CCDC 
#
#######################################################################
#
# If this CIF has been generated from an entry in the Cambridge 
# Structural Database, then it will include bibliographic, chemical, 
# crystal, experimental, refinement or atomic coordinate data resulting 
# from the CCDC's data processing and validation procedures.
#
#######################################################################

data_RECLOA
_symmetry_cell_setting           monoclinic
_symmetry_space_group_name_H-M   'P 21/c'
_symmetry_Int_Tables_number      14
_space_group_name_Hall           '-P 2ybc'
loop_
_symmetry_equiv_pos_site_id
_symmetry_equiv_pos_as_xyz
1 x,y,z
2 -x,1/2+y,1/2-z
3 -x,-y,-z
4 x,1/2-y,1/2+z
_cell_length_a                   9.490(9)
_cell_length_b                   27.405(6)
_cell_length_c                   13.584(7)
_cell_angle_alpha                90
_cell_angle_beta                 109.44(5)
_cell_angle_gamma                90
_cell_volume                     3331.43
loop_
_atom_site_label
_atom_site_type_symbol
_atom_site_fract_x
_atom_site_fract_y
_atom_site_fract_z
Cd1 Cd 0.49387(4) 0.43816(2) 0.25416(3)
O1 O 0.6811(4) 0.4520(2) 0.1798(3)
O2 O 0.7320(6) 0.4280(2) 0.0479(3)
O3 O 0.8878(6) 0.4219(3) 0.1932(5)
O4 O 0.3161(5) 0.4071(2) 0.3318(4)
O5 O 0.291(1) 0.4754(3) 0.3331(7)
O6 O 0.1761(4) 0.4383(2) 0.4107(3)
N1 N 0.6874(4) 0.4302(2) 0.4193(3)
N2 N 1.0181(4) 0.4321(2) 0.7157(3)
N3 N 1.3064(4) 0.4403(2) 1.0877(3)
N4 N 0.9749(4) 0.4318(2) 0.7911(3)
N5 N 0.5130(5) 0.5247(1) 0.2625(3)
N6 N 0.5546(5) 0.6768(2) 0.2883(4)
N7 N 0.4805(5) 0.8535(1) 0.2651(3)
N8 N 0.4380(5) 0.7006(2) 0.2481(3)
N9 N 0.7650(5) 0.4348(2) 0.1396(3)
N10 N 0.2561(5) 0.4390(2) 0.3602(4)
C1 C 0.6510(6) 0.4216(2) 0.5039(4)
C2 C 0.7532(6) 0.4209(2) 0.6040(4)
C3 C 0.9020(5) 0.4307(2) 0.6167(4)
C4 C 0.9402(5) 0.4380(3) 0.5294(4)
C5 C 0.8325(5) 0.4381(2) 0.4326(4)
C6 C 1.3447(5) 0.4414(3) 1.0012(4)
C7 C 1.2436(5) 0.4406(3) 0.9030(4)
C8 C 1.0925(5) 0.4357(2) 0.8902(4)
C9 C 1.0518(5) 0.4339(3) 0.9779(4)
C10 C 1.1604(5) 0.4363(3) 1.0752(4)
C11 C 0.6106(6) 0.5467(2) 0.3457(4)
C12 C 0.6250(6) 0.5970(2) 0.3536(4)
C13 C 0.5320(5) 0.6252(2) 0.2746(4)
C14 C 0.4320(6) 0.6030(2) 0.1897(4)
C15 C 0.4261(6) 0.5527(2) 0.1857(4)
C16 C 0.6027(6) 0.8252(2) 0.2966(4)
C17 C 0.5988(6) 0.7750(2) 0.2951(4)
C18 C 0.4598(5) 0.7523(2) 0.2586(4)
C19 C 0.3326(5) 0.7807(2) 0.2270(4)
C20 C 0.3474(5) 0.8304(2) 0.2317(4)
H1 H 0.5465 0.4151 0.4943
H2 H 0.7215 0.4131 0.6636
H3 H 1.0441 0.4431 0.5362
H4 H 0.8617 0.4449 0.3717
H5 H 1.4499 0.4432 1.0094
H6 H 1.2770 0.4436 0.8426
H7 H 0.9475 0.4304 0.9717
H8 H 1.1302 0.4348 1.1366
H9 H 0.6749 0.5263 0.4040
H10 H 0.7002 0.6126 0.4149
H11 H 0.3654 0.6223 0.1309
H12 H 0.3553 0.5363 0.1246
H13 H 0.7003 0.8415 0.3216
H14 H 0.6911 0.7556 0.3189
H15 H 0.2336 0.7656 0.2024
H16 H 0.2573 0.8505 0.2107
N3_2 N 0.3064(4) 0.4403(2) 0.0877(3)
N7A N 0.5195(5) 0.3535(1) 0.2349(3)
Cd1_2 Cd 1.49387(4) 0.43816(2) 1.25416(3)
Cd1A Cd 0.50613(4) 0.93816(2) 0.24584(3)
N11 N 1.0341(6) 0.2684(3) 1.1139(5)
N12 N 0.0345(6) 0.2427(3) 0.8616(5)
N13 N 0.5697(7) 0.2386(3) 0.9987(5)
N14 N 0.4945(7) 0.2710(3) 0.9762(5)
C21 C 0.9400(10) 0.3051(4) 1.0951(6)
C22 C 0.7841(8) 0.2993(4) 1.0556(5)
C23 C 0.7333(7) 0.2515(4) 1.0375(5)
C24 C 0.8237(8) 0.2087(4) 1.0584(6)
C25 C 0.9733(10) 0.2240(4) 1.0954(7)
C26 C 0.1228(10) 0.2048(4) 0.8819(6)
C27 C 0.2814(8) 0.2101(4) 0.9229(6)
C28 C 0.3309(7) 0.2575(4) 0.9367(5)
C29 C 0.2469(7) 0.3077(5) 0.9134(6)
C30 C 0.100(1) 0.2870(4) 0.8797(7)
H17 H 0.9824 0.3391 1.1092
H18 H 0.7167 0.3287 1.0420
H19 H 0.7857 0.1736 1.0488
H20 H 1.0472 0.1968 1.1072
H21 H 0.0770 0.1718 0.8679
H22 H 0.3485 0.1810 0.9408
H23 H 0.2844 0.3433 0.9192
H24 H 0.0214 0.3127 0.8664
loop_
_geom_bond_atom_site_label_1
_geom_bond_atom_site_label_2
_geom_bond_site_symmetry_1
_geom_bond_site_symmetry_2
Cd1 O1 1_555 1_555
O1 N9 1_555 1_555
O2 N9 1_555 1_555
O3 N9 1_555 1_555
O4 Cd1 1_555 1_555
O5 Cd1 1_555 1_555
O6 N10 1_555 1_555
N1 Cd1 1_555 1_555
N2 N4 1_555 1_555
N3 C6 1_555 1_555
N4 C8 1_555 1_555
N5 Cd1 1_555 1_555
N6 N8 1_555 1_555
N7 C16 1_555 1_555
N8 C18 1_555 1_555
N10 O4 1_555 1_555
N11 C21 1_555 1_555
N12 C26 1_555 1_555
N13 N14 1_555 1_555
N14 C28 1_555 1_555
C1 N1 1_555 1_555
C2 C1 1_555 1_555
C3 N2 1_555 1_555
C4 C3 1_555 1_555
C5 N1 1_555 1_555
C6 C7 1_555 1_555
C7 C8 1_555 1_555
C8 C9 1_555 1_555
C9 C10 1_555 1_555
C10 N3 1_555 1_555
C11 N5 1_555 1_555
C12 C11 1_555 1_555
C13 N6 1_555 1_555
C14 C13 1_555 1_555
C15 N5 1_555 1_555
C16 C17 1_555 1_555
C17 C18 1_555 1_555
C18 C19 1_555 1_555
C19 C20 1_555 1_555
C20 N7 1_555 1_555
C21 C22 1_555 1_555
C22 C23 1_555 1_555
C23 N13 1_555 1_555
C24 C23 1_555 1_555
C25 N11 1_555 1_555
C26 C27 1_555 1_555
C27 C28 1_555 1_555
C28 C29 1_555 1_555
C29 C30 1_555 1_555
C30 N12 1_555 1_555
H1 C1 1_555 1_555
H2 C2 1_555 1_555
H3 C4 1_555 1_555
H4 C5 1_555 1_555
H5 C6 1_555 1_555
H6 C7 1_555 1_555
H7 C9 1_555 1_555
H8 C10 1_555 1_555
H9 C11 1_555 1_555
H10 C12 1_555 1_555
H11 C14 1_555 1_555
H12 C15 1_555 1_555
H13 C16 1_555 1_555
H14 C17 1_555 1_555
H15 C19 1_555 1_555
H16 C20 1_555 1_555
H17 C21 1_555 1_555
H18 C22 1_555 1_555
H19 C24 1_555 1_555
H20 C25 1_555 1_555
H21 C26 1_555 1_555
H22 C27 1_555 1_555
H23 C29 1_555 1_555
H24 C30 1_555 1_555
N3_2 Cd1 1_555 1_555
N7A Cd1 1_555 1_555
Cd1_2 N3 1_555 1_555
Cd1A N7 1_555 1_555
O5 N10 1_555 1_555
C2 C3 1_555 1_555
C4 C5 1_555 1_555
C12 C13 1_555 1_555
C14 C15 1_555 1_555
C24 C25 1_555 1_555

#END
