
#######################################################################
#
#                 Cambridge Crystallographic Data Centre
#                                CCDC 
#
#######################################################################
#
# If this CIF has been generated from an entry in the Cambridge 
# Structural Database, then it will include bibliographic, chemical, 
# crystal, experimental, refinement or atomic coordinate data resulting 
# from the CCDC's data processing and validation procedures.
#
#######################################################################

data_REDROI
_symmetry_cell_setting           monoclinic
_symmetry_space_group_name_H-M   'P 21/c'
_symmetry_Int_Tables_number      14
_space_group_name_Hall           '-P 2ybc'
loop_
_symmetry_equiv_pos_site_id
_symmetry_equiv_pos_as_xyz
1 x,y,z
2 -x,1/2+y,1/2-z
3 -x,-y,-z
4 x,1/2-y,1/2+z
_cell_length_a                   6.405(1)
_cell_length_b                   14.164(3)
_cell_length_c                   20.098(4)
_cell_angle_alpha                90
_cell_angle_beta                 95.290(10)
_cell_angle_gamma                90
_cell_volume                     1815.53
loop_
_atom_site_label
_atom_site_type_symbol
_atom_site_fract_x
_atom_site_fract_y
_atom_site_fract_z
Zn1 Zn 0.0000 0.5000 0.5000
Zn2 Zn -0.98554(6) 0.80714(3) 0.05815(2)
Zn3 Zn -0.51452(6) 0.39803(3) 0.456080(18)
O1 O -0.4669(3) 0.54746(15) 0.43842(10)
O2 O -0.1368(4) 0.57676(17) 0.41659(11)
O3 O -0.8244(4) 0.75946(19) 0.13789(13)
O4 O -0.5329(4) 0.8486(2) 0.13868(13)
O5 O -1.4498(4) 0.75800(17) 0.00782(15)
O6 O -1.1270(4) 0.69570(17) 0.01971(15)
O7 O -0.2063(3) 0.38313(15) 0.49182(12)
O8 O 0.1736(4) 0.41642(17) 0.43357(13)
C1 C -0.3312(5) 0.5853(2) 0.40399(15)
C2 C -0.4117(5) 0.6425(3) 0.34405(17)
C3 C -0.2771(6) 0.6978(3) 0.30910(19)
H1 H -0.1362 0.7026 0.3247
C4 C -0.3525(6) 0.7462(3) 0.2510(2)
H2 H -0.2623 0.7836 0.2286
C5 C -0.5636(6) 0.7383(3) 0.22661(19)
C6 C -0.6969(6) 0.6832(3) 0.2614(2)
H3 H -0.8371 0.6770 0.2452
C7 C -0.6225(6) 0.6373(3) 0.3200(2)
H4 H -0.7148 0.6027 0.3435
C8 C -0.6445(6) 0.7859(3) 0.16243(18)
C9 C -1.3259(6) 0.6902(2) 0.01067(18)
C10 C -1.4179(6) 0.5919(2) 0.00410(18)
C11 C -1.6262(6) 0.5755(3) 0.0159(2)
H5 H -1.7113 0.6255 0.0264
C12 C -1.2940(6) 0.5160(3) -0.0118(2)
H6 H -1.1553 0.5265 -0.0199
H14 H -0.222(6) 0.369(3) 0.528(2)
H15 H 0.158(6) 0.426(3) 0.4016(18)
Zn2B Zn 0.98554(6) 0.19286(3) 0.94185(2)
Zn2A Zn -0.01446(6) 0.30714(3) 0.44185(2)
Zn2B_2 Zn -2.01446(6) 0.19286(3) -0.05815(2)
Zn2C Zn 0.01446(6) 0.69286(3) 0.55815(2)
Zn3B Zn 0.51452(6) 0.60197(3) 0.543920(18)
Zn3B_2 Zn -0.48548(6) 0.60197(3) 0.543920(18)
Zn3A Zn -0.48548(6) 0.89803(3) 0.043920(18)
Zn3A_2 Zn -1.48548(6) 0.89803(3) 0.043920(18)
Zn3_2 Zn 0.48548(6) 0.39803(3) 0.456080(18)
Zn3C Zn -1.51452(6) 0.10197(3) -0.043920(18)
Zn3C_2 Zn 0.48548(6) 0.10197(3) 0.956080(18)
O1B O 0.4669(3) 0.45254(15) 0.56158(10)
O1B_2 O -0.5331(3) 0.45254(15) 0.56158(10)
O1_2 O 0.5331(3) 0.54746(15) 0.43842(10)
O2B O 0.1368(4) 0.42324(17) 0.58341(11)
O3B O 0.8244(4) 0.24054(19) 0.86211(13)
O4B O 0.5329(4) 0.1514(2) 0.86132(13)
O4A O -0.4671(4) 0.3486(2) 0.36132(13)
O4C O 0.4671(4) 0.6514(2) 0.63868(13)
O5B O -1.5502(4) 0.24200(17) -0.00782(15)
O5A O -0.5502(4) 0.25800(17) 0.49218(15)
O5C O 0.5502(4) 0.74200(17) 0.50782(15)
O6B O -1.8730(4) 0.30430(17) -0.01971(15)
O6B_2 O 1.1270(4) 0.30430(17) 0.98029(15)
O7B O 0.2063(3) 0.61687(15) 0.50818(12)
O7A O -0.7937(3) 0.88313(15) 0.00818(12)
O7C O 0.7937(3) 0.11687(15) 0.99182(12)
O8B O -0.1736(4) 0.58358(17) 0.56643(13)
O8A O -1.1736(4) 0.91642(17) 0.06643(13)
O8_2 O -0.8264(4) 0.41642(17) 0.43357(13)
O8C O 1.1736(4) 0.08358(17) 0.93357(13)
O8B_2 O 0.8264(4) 0.58358(17) 0.56643(13)
C1B C 0.3312(5) 0.4147(2) 0.59601(15)
C2B C 0.4117(5) 0.3575(3) 0.65595(17)
C3B C 0.2771(6) 0.3022(3) 0.69090(19)
H1B H 0.1362 0.2974 0.6753
C4B C 0.3525(6) 0.2538(3) 0.7490(2)
H2B H 0.2623 0.2164 0.7714
C5B C 0.5636(6) 0.2617(3) 0.77339(19)
C6B C 0.6969(6) 0.3168(3) 0.7386(2)
H3B H 0.8371 0.3230 0.7548
C7B C 0.6225(6) 0.3627(3) 0.6800(2)
H4B H 0.7148 0.3973 0.6565
C8B C 0.6445(6) 0.2141(3) 0.83757(18)
C9B C -1.6741(6) 0.3098(2) -0.01067(18)
C10B C -1.5821(6) 0.4081(2) -0.00410(18)
C11B C -1.3738(6) 0.4245(3) -0.0159(2)
H5B H -1.2887 0.3745 -0.0264
C12B C -1.7060(6) 0.4840(3) 0.0118(2)
H6B H -1.8447 0.4735 0.0199
H14B H 0.222(6) 0.631(3) 0.472(2)
H14A H -0.778(6) 0.869(3) -0.028(2)
H14C H 0.778(6) 0.131(3) 1.028(2)
H15B H -0.158(6) 0.574(3) 0.5984(18)
H15A H -1.158(6) 0.926(3) 0.0984(18)
H15_2 H -0.842(6) 0.426(3) 0.4016(18)
H15C H 1.158(6) 0.074(3) 0.9016(18)
H15B_2 H 0.842(6) 0.574(3) 0.5984(18)
N1 N 0.1593(7) 0.9658(3) 0.2926(2)
O9 O -0.0871(5) 0.9508(2) 0.20494(15)
C13 C 0.0929(8) 0.9610(3) 0.2284(2)
H7 H 0.1942 0.9659 0.1982
C14 C 0.0100(11) 0.9632(7) 0.3430(3)
H8 H -0.1295 0.9569 0.3215
H9 H 0.0203 1.0206 0.3685
H10 H 0.0410 0.9104 0.3722
C15 C 0.3802(10) 0.9763(5) 0.3153(3)
H11 H 0.4612 0.9771 0.2774
H12 H 0.4242 0.9244 0.3439
H13 H 0.4009 1.0345 0.3396
loop_
_geom_bond_atom_site_label_1
_geom_bond_atom_site_label_2
_geom_bond_site_symmetry_1
_geom_bond_site_symmetry_2
Zn1 O2 1_555 1_555
Zn2 O3 1_555 1_555
Zn3 O1 1_555 1_555
N1 C13 1_555 1_555
O1 C1 1_555 1_555
O2 C1 1_555 1_555
O3 C8 1_555 1_555
O4 C8 1_555 1_555
O5 C9 1_555 1_555
O6 Zn2 1_555 1_555
O7 Zn1 1_555 1_555
O8 Zn1 1_555 1_555
O9 C13 1_555 1_555
C1 C2 1_555 1_555
C2 C3 1_555 1_555
C3 H1 1_555 1_555
C4 C3 1_555 1_555
H2 C4 1_555 1_555
C5 C4 1_555 1_555
C6 C5 1_555 1_555
H3 C6 1_555 1_555
C7 C2 1_555 1_555
H4 C7 1_555 1_555
C8 C5 1_555 1_555
C9 O6 1_555 1_555
C10 C9 1_555 1_555
C11 C10 1_555 1_555
H5 C11 1_555 1_555
C12 C10 1_555 1_555
H6 C12 1_555 1_555
C13 H7 1_555 1_555
C14 N1 1_555 1_555
H8 C14 1_555 1_555
H9 C14 1_555 1_555
H10 C14 1_555 1_555
C15 N1 1_555 1_555
H11 C15 1_555 1_555
H12 C15 1_555 1_555
H13 C15 1_555 1_555
H14 O7 1_555 1_555
H15 O8 1_555 1_555
Zn2B O3B 1_555 1_555
Zn2A O7 1_555 1_555
Zn2B_2 O6B 1_555 1_555
Zn2C O7B 1_555 1_555
Zn3B O1B 1_555 1_555
Zn3B_2 O1 1_555 1_555
Zn3A O4 1_555 1_555
Zn3A_2 O5 1_555 1_555
Zn3_2 O8 1_555 1_555
Zn3C O5B 1_555 1_555
Zn3C_2 O4B 1_555 1_555
O1B Zn3_2 1_555 1_555
O1B_2 Zn3 1_555 1_555
O1_2 Zn3B 1_555 1_555
O2B Zn1 1_555 1_555
O3B C8B 1_555 1_555
O4B C8B 1_555 1_555
O4A Zn3 1_555 1_555
O4C Zn3B 1_555 1_555
O5B C9B 1_555 1_555
O5A Zn3 1_555 1_555
O5C Zn3B 1_555 1_555
O6B C9B 1_555 1_555
O6B_2 Zn2B 1_555 1_555
O7B Zn1 1_555 1_555
O7A Zn2 1_555 1_555
O7C Zn2B 1_555 1_555
O8B Zn1 1_555 1_555
O8A Zn2 1_555 1_555
O8_2 Zn3 1_555 1_555
O8C Zn2B 1_555 1_555
O8B_2 Zn3B 1_555 1_555
C1B O1B 1_555 1_555
C2B C1B 1_555 1_555
C3B C2B 1_555 1_555
H1B C3B 1_555 1_555
C4B C3B 1_555 1_555
H2B C4B 1_555 1_555
C5B C4B 1_555 1_555
C6B C5B 1_555 1_555
H3B C6B 1_555 1_555
C7B C2B 1_555 1_555
H4B C7B 1_555 1_555
C8B C5B 1_555 1_555
C9B C10B 1_555 1_555
C10B C11B 1_555 1_555
C11B C12 1_555 1_555
H5B C11B 1_555 1_555
C12B C11 1_555 1_555
H6B C12B 1_555 1_555
H14B O7B 1_555 1_555
H14A O7A 1_555 1_555
H14C O7C 1_555 1_555
H15B O8B 1_555 1_555
H15A O8A 1_555 1_555
H15_2 O8_2 1_555 1_555
H15C O8C 1_555 1_555
H15B_2 O8B_2 1_555 1_555
Zn3 O7 1_555 1_555
O8 Zn2A 1_555 1_555
C6 C7 1_555 1_555
Zn2C O8B 1_555 1_555
Zn3B O7B 1_555 1_555
Zn3B_2 O1B_2 1_555 1_555
Zn3B_2 O8B 1_555 1_555
Zn3A O7A 1_555 1_555
Zn3A_2 O8A 1_555 1_555
Zn3_2 O1_2 1_555 1_555
Zn3C_2 O7C 1_555 1_555
O2B C1B 1_555 1_555
C6B C7B 1_555 1_555
C10B C12B 1_555 1_555

#END
