
#######################################################################
#
#                 Cambridge Crystallographic Data Centre
#                                CCDC 
#
#######################################################################
#
# If this CIF has been generated from an entry in the Cambridge 
# Structural Database, then it will include bibliographic, chemical, 
# crystal, experimental, refinement or atomic coordinate data resulting 
# from the CCDC's data processing and validation procedures.
#
#######################################################################

data_REGLOG
_symmetry_cell_setting           orthorhombic
_symmetry_space_group_name_H-M   'P 21 21 2'
_symmetry_Int_Tables_number      18
_space_group_name_Hall           'P 2 2ab'
loop_
_symmetry_equiv_pos_site_id
_symmetry_equiv_pos_as_xyz
1 x,y,z
2 -x,-y,z
3 1/2-x,1/2+y,-z
4 1/2+x,1/2-y,-z
_cell_length_a                   13.7005(14)
_cell_length_b                   15.6523(16)
_cell_length_c                   9.4417(10)
_cell_angle_alpha                90
_cell_angle_beta                 90
_cell_angle_gamma                90
_cell_volume                     2024.72
loop_
_atom_site_label
_atom_site_type_symbol
_atom_site_fract_x
_atom_site_fract_y
_atom_site_fract_z
Cd1 Cd 0.13221(4) 0.49733(4) 0.39626(5)
Cd2 Cd 0.00129(5) 0.61262(3) 0.13413(5)
Cd3 Cd 0.26833(4) 0.22264(4) 0.20859(6)
O1 O 0.2397(5) 0.3859(4) 0.3251(6)
O2 O 0.3104(5) 0.3485(4) 0.1239(7)
O3 O 0.2719(4) 0.5543(4) 0.2764(6)
H1 H 0.319(5) 0.550(7) 0.334(8)
O4 O 0.1074(4) 0.5011(4) 0.1462(5)
O5 O 0.1356(4) 0.6497(4) -0.0036(6)
O6 O 0.2750(5) 0.6036(4) -0.0917(6)
O7 O -0.0956(4) 0.7308(4) 0.1819(6)
O8 O -0.1455(4) 0.8000(4) 0.3732(7)
O9 O 0.0915(4) 0.7310(4) 0.2704(6)
H2 H 0.089(7) 0.757(6) 0.191(5)
O10 O -0.0008(5) 0.5934(3) 0.3832(5)
O11 O 0.1579(4) 0.6035(4) 0.5583(7)
O12 O 0.1007(4) 0.7225(4) 0.6551(7)
O13 O 0.1737(4) 0.4319(4) 0.6194(7)
H3 H 0.189(5) 0.3793(12) 0.621(13)
H4 H 0.227(3) 0.459(4) 0.623(12)
O14 O -0.0727(5) 0.6362(4) -0.0804(7)
H5 H -0.065(8) 0.6874(18) -0.108(10)
H6 H -0.040(6) 0.606(4) -0.138(8)
C1 C 0.2793(6) 0.4045(5) 0.2118(9)
C2 C 0.2822(5) 0.4973(6) 0.1619(7)
H18 H 0.3437 0.5092 0.1085
C3 C 0.1917(5) 0.5092(5) 0.0652(8)
H19 H 0.1920 0.4622 -0.0067
C4 C 0.2005(6) 0.5931(5) -0.0125(8)
C5 C -0.0808(6) 0.7609(5) 0.3041(9)
C6 C 0.0185(5) 0.7478(4) 0.3740(8)
H20 H 0.0365 0.7982 0.4336
C7 C 0.0094(6) 0.6657(4) 0.4660(7)
H21 H -0.0507 0.6713 0.5253
C8 C 0.0965(6) 0.6625(5) 0.5652(8)
Cd1A Cd -0.13221(4) 0.50267(4) 0.39626(5)
Cd2A Cd -0.00129(5) 0.38738(3) 0.13413(5)
Cd3B Cd 0.23167(4) 0.72264(4) -0.20859(6)
Cd3A Cd -0.26833(4) 0.77736(4) 0.20859(6)
Cd3B_2 Cd 0.23167(4) 0.72264(4) 0.79141(6)
Cd3C Cd -0.23167(4) 0.27736(4) 0.79141(6)
Cd3C_2 Cd -0.23167(4) 0.27736(4) -0.20859(6)
O1A O -0.2397(5) 0.6141(4) 0.3251(6)
O2A O -0.3104(5) 0.6515(4) 0.1239(7)
O2B O 0.1896(5) 0.8485(4) -0.1239(7)
O3A O -0.2719(4) 0.4457(4) 0.2764(6)
H1A H -0.319(5) 0.450(7) 0.334(8)
O4A O -0.1074(4) 0.4989(4) 0.1462(5)
O5A O -0.1356(4) 0.3503(4) -0.0036(6)
O5B O 0.3644(4) 0.1497(4) 0.0036(6)
O6A O -0.2750(5) 0.3964(4) -0.0917(6)
O6B O 0.2250(5) 0.1036(4) 0.0917(6)
O7A O 0.0956(4) 0.2692(4) 0.1819(6)
O7C O 0.4044(4) 0.7692(4) -0.1819(6)
O8A O 0.1455(4) 0.2000(4) 0.3732(7)
O8C O 0.3545(4) 0.7000(4) -0.3732(7)
O9A O -0.0915(4) 0.2690(4) 0.2704(6)
H2A H -0.089(7) 0.243(6) 0.191(5)
O10A O 0.0008(5) 0.4066(3) 0.3832(5)
O11A O -0.1579(4) 0.3965(4) 0.5583(7)
O12A O -0.1007(4) 0.2775(4) 0.6551(7)
O12B O 0.3993(4) 0.2225(4) 0.3449(7)
O12_2 O 0.1007(4) 0.7225(4) -0.3449(7)
O13A O -0.1737(4) 0.5681(4) 0.6194(7)
H3A H -0.189(5) 0.6207(12) 0.621(13)
H4A H -0.227(3) 0.541(4) 0.623(12)
O14A O 0.0727(5) 0.3638(4) -0.0804(7)
H5A H 0.065(8) 0.3126(18) -0.108(10)
H6A H 0.040(6) 0.394(4) -0.138(8)
C1A C -0.2793(6) 0.5955(5) 0.2118(9)
C2A C -0.2822(5) 0.5027(6) 0.1619(7)
H18A H -0.3437 0.4908 0.1085
C3A C -0.1917(5) 0.4908(5) 0.0652(8)
H19A H -0.1920 0.5378 -0.0067
C4A C -0.2005(6) 0.4069(5) -0.0125(8)
C5A C 0.0808(6) 0.2391(5) 0.3041(9)
C6A C -0.0185(5) 0.2522(4) 0.3740(8)
H20A H -0.0365 0.2018 0.4336
C7A C -0.0094(6) 0.3343(4) 0.4660(7)
H21A H 0.0507 0.3287 0.5253
C8A C -0.0965(6) 0.3375(5) 0.5652(8)
O15 O 0.3544(5) 0.4856(5) 0.7290(7)
H7 H 0.390(7) 0.449(5) 0.772(9)
H8 H 0.344(8) 0.525(5) 0.788(8)
O16 O 0.4137(6) 0.5496(5) 0.4648(10)
H9 H 0.4737(6) 0.5630(5) 0.471(12)
H10 H 0.401(7) 0.521(8) 0.539(8)
O17 O 0.4409(5) 0.3617(5) 0.9106(7)
H11 H 0.400(5) 0.347(3) 0.973(5)
H12 H 0.497(3) 0.355(7) 0.948(8)
O18 O 0.7073(5) 0.2447(4) 0.3592(7)
H13 H 0.764(3) 0.258(6) 0.331(10)
H14 H 0.696(6) 0.276(6) 0.431(8)
O19 O 0.5518(5) 0.3033(5) 0.1754(8)
H15 H 0.507(4) 0.299(8) 0.238(7)
H16 H 0.606(3) 0.299(8) 0.220(8)
O20 O 0.0000 0.5000 0.7547(8)
H17 H 0.0542(9) 0.493(5) 0.7127(11)
H17A H -0.0542(9) 0.507(5) 0.7127(11)
loop_
_geom_bond_atom_site_label_1
_geom_bond_atom_site_label_2
_geom_bond_site_symmetry_1
_geom_bond_site_symmetry_2
Cd1 O1 1_555 1_555
Cd2 O4 1_555 1_555
Cd3 O2 1_555 1_555
O1 C1 1_555 1_555
O2 C1 1_555 1_555
O3 Cd1 1_555 1_555
H1 O3 1_555 1_555
O4 Cd1 1_555 1_555
O5 Cd2 1_555 1_555
O6 C4 1_555 1_555
O7 Cd2 1_555 1_555
O8 C5 1_555 1_555
O9 Cd2 1_555 1_555
H2 O9 1_555 1_555
O10 Cd1 1_555 1_555
O11 Cd1 1_555 1_555
O12 C8 1_555 1_555
O13 Cd1 1_555 1_555
H3 O13 1_555 1_555
H4 O13 1_555 1_555
O14 Cd2 1_555 1_555
H5 O14 1_555 1_555
H6 O14 1_555 1_555
O15 H7 1_555 1_555
H8 O15 1_555 1_555
O16 H9 1_555 1_555
H10 O16 1_555 1_555
O17 H11 1_555 1_555
H12 O17 1_555 1_555
O18 H13 1_555 1_555
H14 O18 1_555 1_555
O19 H15 1_555 1_555
H16 O19 1_555 1_555
O20 H17 1_555 1_555
C1 C2 1_555 1_555
C2 O3 1_555 1_555
H18 C2 1_555 1_555
C3 O4 1_555 1_555
H19 C3 1_555 1_555
C4 O5 1_555 1_555
C5 O7 1_555 1_555
C6 O9 1_555 1_555
H20 C6 1_555 1_555
C7 O10 1_555 1_555
H21 C7 1_555 1_555
C8 O11 1_555 1_555
Cd1A O10 1_555 1_555
Cd2A O4 1_555 1_555
Cd3B O5 1_555 1_555
Cd3A O7 1_555 1_555
Cd3B_2 O12 1_555 1_555
Cd3C O12A 1_555 1_555
Cd3C_2 O5A 1_555 1_555
O1A Cd1A 1_555 1_555
O2A Cd3A 1_555 1_555
O2B Cd3B 1_555 1_555
O3A Cd1A 1_555 1_555
H1A O3A 1_555 1_555
O4A Cd2 1_555 1_555
O5A Cd2A 1_555 1_555
O5B Cd3 1_555 1_555
O6A Cd3C_2 1_555 1_555
O6B Cd3 1_555 1_555
O7A Cd3 1_555 1_555
O7C Cd3B 1_555 1_555
O8A Cd3 1_555 1_555
O8C Cd3B 1_555 1_555
O9A Cd2A 1_555 1_555
H2A O9A 1_555 1_555
O10A Cd1 1_555 1_555
O11A Cd1A 1_555 1_555
O12A C8A 1_555 1_555
O12B Cd3 1_555 1_555
O12_2 Cd3B 1_555 1_555
O13A Cd1A 1_555 1_555
H3A O13A 1_555 1_555
H4A O13A 1_555 1_555
O14A Cd2A 1_555 1_555
H5A O14A 1_555 1_555
H6A O14A 1_555 1_555
H17A O20 1_555 1_555
C1A O1A 1_555 1_555
C2A O3A 1_555 1_555
H18A C2A 1_555 1_555
C3A O4A 1_555 1_555
H19A C3A 1_555 1_555
C4A O5A 1_555 1_555
C5A O7A 1_555 1_555
C6A O9A 1_555 1_555
H20A C6A 1_555 1_555
C7A O10A 1_555 1_555
H21A C7A 1_555 1_555
C8A O11A 1_555 1_555
Cd2 O10 1_555 1_555
O6 Cd3B 1_555 1_555
O8 Cd3A 1_555 1_555
C2 C3 1_555 1_555
C3 C4 1_555 1_555
C5 C6 1_555 1_555
C6 C7 1_555 1_555
C7 C8 1_555 1_555
Cd1A O4A 1_555 1_555
Cd1A O10A 1_555 1_555
Cd2A O4A 1_555 1_555
Cd2A O7A 1_555 1_555
Cd2A O10A 1_555 1_555
O2A C1A 1_555 1_555
O6A C4A 1_555 1_555
O8A C5A 1_555 1_555
C1A C2A 1_555 1_555
C2A C3A 1_555 1_555
C3A C4A 1_555 1_555
C5A C6A 1_555 1_555
C6A C7A 1_555 1_555
C7A C8A 1_555 1_555

#END
