
#######################################################################
#
#                 Cambridge Crystallographic Data Centre
#                                CCDC 
#
#######################################################################
#
# If this CIF has been generated from an entry in the Cambridge 
# Structural Database, then it will include bibliographic, chemical, 
# crystal, experimental, refinement or atomic coordinate data resulting 
# from the CCDC's data processing and validation procedures.
#
#######################################################################

data_REGMUN
_symmetry_cell_setting           monoclinic
_symmetry_space_group_name_H-M   'P 21/c'
_symmetry_Int_Tables_number      14
_space_group_name_Hall           '-P 2ybc'
loop_
_symmetry_equiv_pos_site_id
_symmetry_equiv_pos_as_xyz
1 x,y,z
2 -x,1/2+y,1/2-z
3 -x,-y,-z
4 x,1/2-y,1/2+z
_cell_length_a                   13.543(2)
_cell_length_b                   12.338(3)
_cell_length_c                   40.267(7)
_cell_angle_alpha                90
_cell_angle_beta                 108.395(7)
_cell_angle_gamma                90
_cell_volume                     6384.56
loop_
_atom_site_label
_atom_site_type_symbol
_atom_site_fract_x
_atom_site_fract_y
_atom_site_fract_z
Co1 Co 0.32068(4) 0.38794(4) 0.193177(12)
Co2 Co 0.12711(4) 0.40886(5) 0.420643(13)
O1 O 0.0606(2) 0.5331(2) 0.44687(6)
O2 O 0.0793(2) 0.5954(2) 0.50098(7)
O3 O 0.2232(3) 0.2663(3) 0.42180(7)
O4 O 0.3278(4) 0.1494(4) 0.45861(10)
O5 O 0.26125(19) 0.2723(2) 0.69500(6)
O6 O 0.2028(2) 0.4212(2) 0.66280(7)
O7 O 0.3650(2) -0.0206(2) 0.66371(7)
O8 O 0.4022(3) -0.0527(3) 0.61430(8)
N1 N 0.2904(2) 0.1696(2) 0.64310(8)
N2 N 0.1772(3) 0.3651(3) 0.47180(8)
N3 N 0.6451(2) 0.3346(3) 0.21176(10)
N4 N 0.4775(2) 0.3323(3) 0.20443(8)
N5 N 0.9456(3) 0.0892(3) 0.32286(9)
N6 N 0.8286(3) -0.0404(3) 0.31871(8)
N7 N 0.9688(3) 0.0582(3) 0.17630(9)
N8 N 0.9107(3) -0.0504(3) 0.13126(8)
N9 N 0.4653(3) 0.4735(3) 0.29849(8)
N10 N 0.3606(2) 0.4328(3) 0.24585(8)
N11 N 0.4189(3) 0.5775(4) 0.43914(9)
N12 N 0.2615(3) 0.5119(4) 0.43004(9)
N13 N 0.8345(3) 0.2646(3) 0.41583(9)
N14 N 0.9886(3) 0.3169(3) 0.41373(8)
C1 C 0.0899(3) 0.5265(3) 0.48015(10)
C2 C 0.2647(5) 0.2262(5) 0.45137(12)
C3 C 0.2359(3) 0.3282(3) 0.66673(9)
C4 C 0.3634(3) 0.0023(3) 0.63319(11)
C5 C 0.1472(3) 0.4231(3) 0.49501(10)
C6 C 0.1718(3) 0.3888(3) 0.52948(9)
H1 H 0.1499 0.4299 0.5458
C7 C 0.2284(3) 0.2940(4) 0.53993(10)
C8 C 0.2630(4) 0.2383(4) 0.51510(10)
H2 H 0.3055 0.1757 0.5216
C9 C 0.2340(4) 0.2764(4) 0.48128(10)
C10 C 0.2532(3) 0.2700(3) 0.63569(9)
C11 C 0.2337(3) 0.3143(3) 0.60278(9)
H3 H 0.2082 0.3863 0.5981
C12 C 0.2525(3) 0.2507(3) 0.57631(9)
C13 C 0.2940(3) 0.1477(3) 0.58515(10)
H4 H 0.3093 0.1035 0.5681
C14 C 0.3129(3) 0.1098(3) 0.61875(10)
C15 C 0.8369(3) 0.3106(3) 0.22868(12)
C16 C 0.8739(3) 0.2953(3) 0.26478(11)
C17 C 0.9564(3) 0.2228(3) 0.27886(10)
C18 C 1.0059(3) 0.1726(3) 0.25710(10)
C19 C 0.9714(3) 0.1949(3) 0.22150(11)
C20 C 0.8850(3) 0.2601(3) 0.20670(11)
C21 C 0.7460(3) 0.3849(4) 0.21285(17)
H5 H 0.7559 0.4526 0.2267
H6 H 0.7438 0.4041 0.1888
C22 C 0.5542(3) 0.3841(3) 0.19781(10)
H7 H 0.5456 0.4492 0.1846
C23 C 0.5226(3) 0.2453(3) 0.22445(11)
H8 H 0.4870 0.1933 0.2338
C24 C 0.6262(3) 0.2447(4) 0.22887(14)
H9 H 0.6757 0.1926 0.2413
C25 C 0.8241(4) 0.3522(4) 0.28854(15)
H10 H 0.7692 0.4007 0.2747
H11 H 0.8768 0.3945 0.3060
H12 H 0.7939 0.2984 0.3004
C26 C 0.9905(4) 0.1938(4) 0.31748(11)
H13 H 1.0674 0.1895 0.3265
H14 H 0.9677 0.2511 0.3306
C27 C 0.8484(3) 0.0544(4) 0.30684(11)
H15 H 0.7989 0.0937 0.2889
C28 C 0.9197(3) -0.0662(4) 0.34453(11)
H16 H 0.9303 -0.1295 0.3586
C29 C 0.9923(3) 0.0119(4) 0.34696(11)
H17 H 1.0618 0.0127 0.3624
C30 C 1.0931(4) 0.0943(4) 0.27243(14)
H18 H 1.1597 0.1327 0.2785
H19 H 1.0916 0.0374 0.2553
H20 H 1.0848 0.0614 0.2935
C31 C 1.0285(4) 0.1470(4) 0.19804(13)
H21 H 1.0410 0.2045 0.1827
H22 H 1.0970 0.1191 0.2127
C32 C 0.9738(3) 0.0293(4) 0.14487(10)
H23 H 1.0181 0.0629 0.1337
C33 C 0.8620(4) -0.0748(4) 0.15552(11)
H24 H 0.8107 -0.1295 0.1530
C34 C 0.8983(4) -0.0090(4) 0.18336(11)
H25 H 0.8785 -0.0094 0.2040
C35 C 0.8420(5) 0.2747(5) 0.16692(13)
H26 H 0.8905 0.2429 0.1560
H27 H 0.8335 0.3521 0.1613
H28 H 0.7744 0.2384 0.1580
C36 C 0.5773(3) 0.4808(4) 0.36134(10)
C37 C 0.5404(3) 0.5444(4) 0.38414(10)
C38 C 0.5657(3) 0.5135(4) 0.41922(10)
C39 C 0.6256(3) 0.4212(4) 0.43180(11)
C40 C 0.6663(3) 0.3609(4) 0.40932(11)
C41 C 0.6379(3) 0.3885(4) 0.37377(11)
C42 C 0.5600(3) 0.5179(4) 0.32448(10)
H29 H 0.5555 0.5980 0.3239
H30 H 0.6212 0.4970 0.3175
C43 C 0.4543(3) 0.4672(3) 0.26423(10)
H31 H 0.5074 0.4853 0.2544
C44 C 0.3097(3) 0.4177(4) 0.27000(11)
H32 H 0.2399 0.3932 0.2647
C45 C 0.3727(3) 0.4424(4) 0.30235(11)
H33 H 0.3562 0.4389 0.3236
C46 C 0.4753(4) 0.6443(4) 0.37072(13)
H34 H 0.4180 0.6474 0.3806
H35 H 0.4471 0.6411 0.3451
H36 H 0.5188 0.7091 0.3777
C47 C 0.5309(3) 0.5871(5) 0.44357(12)
H37 H 0.5712 0.5693 0.4681
H38 H 0.5466 0.6632 0.4392
C48 C 0.3594(3) 0.4890(4) 0.43249(10)
H39 H 0.3839 0.4184 0.4298
C49 C 0.2609(4) 0.6210(5) 0.43547(13)
H40 H 0.2012 0.6617 0.4353
C50 C 0.3564(4) 0.6631(5) 0.44111(14)
H41 H 0.3764 0.7368 0.4455
C51 C 0.6436(4) 0.3834(5) 0.46917(12)
H42 H 0.5932 0.4185 0.4786
H43 H 0.7143 0.4028 0.4836
H44 H 0.6350 0.3046 0.4695
C52 C 0.7344(4) 0.2640(4) 0.42301(13)
H45 H 0.7485 0.2598 0.4486
H46 H 0.6957 0.1978 0.4126
C53 C 0.9012(3) 0.3462(4) 0.41947(10)
H47 H 0.8877 0.4178 0.4255
C54 C 0.9772(5) 0.2089(5) 0.40628(16)
H48 H 1.0272 0.1642 0.4009
C55 C 0.8828(5) 0.1751(5) 0.40769(19)
H49 H 0.8556 0.1035 0.4038
C56 C 0.6737(4) 0.3203(4) 0.34863(12)
H50 H 0.7403 0.3480 0.3475
H51 H 0.6218 0.3235 0.3253
H52 H 0.6823 0.2450 0.3568
Co1A Co 0.67932(4) -0.11206(4) 0.306823(12)
Co1C Co 0.32068(4) 0.11206(4) 0.693177(12)
Co2_2 Co 1.12711(4) 0.40886(5) 0.420643(13)
Co2A Co 0.87289(4) -0.09114(5) 0.079357(13)
O5C O 0.26125(19) 0.2277(2) 0.19500(6)
O7C O 0.3650(2) 0.5206(2) 0.16371(7)
N1C N 0.2904(2) 0.3304(2) 0.14310(8)
N6A N 0.1714(3) 0.4596(3) 0.18129(8)
N8A N 0.0893(3) 0.4496(3) 0.36874(8)
N14_2 N -0.0114(3) 0.3169(3) 0.41373(8)
O9 O 0.3445(3) 0.0902(3) 0.25338(9)
O10 O 0.0070(3) 0.7483(4) 0.41998(13)
O11 O 0.2559(3) 0.1530(5) 0.36510(10)
O12 O -0.0012(5) 0.1779(5) 0.50964(17)
O13 O 0.4163(6) 0.1597(6) 0.32753(18)
O14 O 0.1570(6) 0.9087(6) 0.4234(2)
O15 O 0.8652(13) 0.0025(15) 0.5054(10)
O16 O 0.5059(14) 0.1274(14) 0.5178(8)
O17 O 0.4963(15) 0.538(2) 0.0635(4)
O18 O 0.6839(16) 0.4342(14) 0.1141(4)
O19 O 0.6455(18) 0.4448(18) 0.0627(6)
O20 O 0.6789(14) 0.0461(13) 0.5037(6)
O21? O 0.449(5) 0.625(6) 0.0494(18)
O22? O 0.511(4) 0.697(4) 0.0678(12)
O23? O 0.717(2) 0.487(2) 0.0947(7)
O24? O 0.6450(12) 0.0478(10) 0.4626(4)
O25? O 0.4157(17) 0.2462(19) 0.3663(5)
loop_
_geom_bond_atom_site_label_1
_geom_bond_atom_site_label_2
_geom_bond_site_symmetry_1
_geom_bond_site_symmetry_2
Co1 N4 1_555 1_555
Co2 O1 1_555 1_555
O1 C1 1_555 1_555
O2 C1 1_555 1_555
O3 Co2 1_555 1_555
O4 C2 1_555 1_555
O5 C3 1_555 1_555
O6 C3 1_555 1_555
O7 C4 1_555 1_555
O8 C4 1_555 1_555
N1 C10 1_555 1_555
N2 Co2 1_555 1_555
N3 C21 1_555 1_555
N4 C22 1_555 1_555
N5 C26 1_555 1_555
N6 C27 1_555 1_555
N7 C31 1_555 1_555
N8 C32 1_555 1_555
N9 C42 1_555 1_555
N10 Co1 1_555 1_555
N11 C47 1_555 1_555
N12 Co2 1_555 1_555
N13 C52 1_555 1_555
N14 C53 1_555 1_555
C1 C5 1_555 1_555
C2 O3 1_555 1_555
C3 C10 1_555 1_555
C4 C14 1_555 1_555
C5 N2 1_555 1_555
C6 C5 1_555 1_555
H1 C6 1_555 1_555
C7 C6 1_555 1_555
C8 C7 1_555 1_555
H2 C8 1_555 1_555
C9 N2 1_555 1_555
C10 C11 1_555 1_555
C11 H3 1_555 1_555
C12 C7 1_555 1_555
C13 C12 1_555 1_555
H4 C13 1_555 1_555
C14 N1 1_555 1_555
C15 C16 1_555 1_555
C16 C17 1_555 1_555
C17 C18 1_555 1_555
C18 C19 1_555 1_555
C19 C20 1_555 1_555
C20 C15 1_555 1_555
C21 C15 1_555 1_555
H5 C21 1_555 1_555
H6 C21 1_555 1_555
C22 N3 1_555 1_555
H7 C22 1_555 1_555
C23 N4 1_555 1_555
H8 C23 1_555 1_555
C24 N3 1_555 1_555
H9 C24 1_555 1_555
C25 C16 1_555 1_555
H10 C25 1_555 1_555
H11 C25 1_555 1_555
H12 C25 1_555 1_555
C26 C17 1_555 1_555
H13 C26 1_555 1_555
H14 C26 1_555 1_555
C27 N5 1_555 1_555
H15 C27 1_555 1_555
C28 N6 1_555 1_555
H16 C28 1_555 1_555
C29 N5 1_555 1_555
H17 C29 1_555 1_555
C30 C18 1_555 1_555
H18 C30 1_555 1_555
H19 C30 1_555 1_555
H20 C30 1_555 1_555
C31 C19 1_555 1_555
H21 C31 1_555 1_555
H22 C31 1_555 1_555
C32 N7 1_555 1_555
H23 C32 1_555 1_555
C33 N8 1_555 1_555
H24 C33 1_555 1_555
C34 N7 1_555 1_555
H25 C34 1_555 1_555
C35 C20 1_555 1_555
H26 C35 1_555 1_555
H27 C35 1_555 1_555
H28 C35 1_555 1_555
C36 C37 1_555 1_555
C37 C38 1_555 1_555
C38 C39 1_555 1_555
C39 C40 1_555 1_555
C40 C41 1_555 1_555
C41 C36 1_555 1_555
C42 C36 1_555 1_555
H29 C42 1_555 1_555
H30 C42 1_555 1_555
C43 N9 1_555 1_555
H31 C43 1_555 1_555
C44 N10 1_555 1_555
H32 C44 1_555 1_555
C45 N9 1_555 1_555
H33 C45 1_555 1_555
C46 C37 1_555 1_555
H34 C46 1_555 1_555
H35 C46 1_555 1_555
H36 C46 1_555 1_555
C47 C38 1_555 1_555
H37 C47 1_555 1_555
H38 C47 1_555 1_555
C48 N11 1_555 1_555
H39 C48 1_555 1_555
C49 N12 1_555 1_555
H40 C49 1_555 1_555
C50 N11 1_555 1_555
H41 C50 1_555 1_555
C51 C39 1_555 1_555
H42 C51 1_555 1_555
H43 C51 1_555 1_555
H44 C51 1_555 1_555
C52 C40 1_555 1_555
H45 C52 1_555 1_555
H46 C52 1_555 1_555
C53 N13 1_555 1_555
H47 C53 1_555 1_555
C54 N14 1_555 1_555
H48 C54 1_555 1_555
C55 N13 1_555 1_555
H49 C55 1_555 1_555
C56 C41 1_555 1_555
H50 C56 1_555 1_555
H51 C56 1_555 1_555
H52 C56 1_555 1_555
Co1A N6 1_555 1_555
Co1C O5 1_555 1_555
Co2_2 N14 1_555 1_555
Co2A N8 1_555 1_555
O5C Co1 1_555 1_555
O7C Co1 1_555 1_555
N1C Co1 1_555 1_555
N6A Co1 1_555 1_555
N8A Co2 1_555 1_555
N14_2 Co2 1_555 1_555
O7 Co1C 1_555 1_555
N1 Co1C 1_555 1_555
N10 C43 1_555 1_555
N12 C48 1_555 1_555
C2 C9 1_555 1_555
C8 C9 1_555 1_555
C11 C12 1_555 1_555
C13 C14 1_555 1_555
C23 C24 1_555 1_555
C28 C29 1_555 1_555
C33 C34 1_555 1_555
C44 C45 1_555 1_555
C49 C50 1_555 1_555
C54 C55 1_555 1_555

#END
