
#######################################################################
#
#                 Cambridge Crystallographic Data Centre
#                                CCDC 
#
#######################################################################
#
# If this CIF has been generated from an entry in the Cambridge 
# Structural Database, then it will include bibliographic, chemical, 
# crystal, experimental, refinement or atomic coordinate data resulting 
# from the CCDC's data processing and validation procedures.
#
#######################################################################

data_REHVEH
_symmetry_cell_setting           orthorhombic
_symmetry_space_group_name_H-M   'F d d 2'
_symmetry_Int_Tables_number      43
_space_group_name_Hall           'F 2 -2d'
loop_
_symmetry_equiv_pos_site_id
_symmetry_equiv_pos_as_xyz
1 x,y,z
2 1/4-x,1/4+y,1/4+z
3 1/4+x,1/4-y,1/4+z
4 1/2-x,-y,1/2+z
5 x,1/2+y,1/2+z
6 1/4-x,3/4+y,3/4+z
7 1/4+x,3/4-y,3/4+z
8 1/2-x,1/2-y,z
9 1/2+x,y,1/2+z
10 3/4-x,1/4+y,3/4+z
11 3/4+x,1/4-y,3/4+z
12 -x,-y,z
13 1/2+x,1/2+y,z
14 3/4-x,3/4+y,1/4+z
15 3/4+x,3/4-y,1/4+z
16 -x,1/2-y,1/2+z
_cell_length_a                   52.349(8)
_cell_length_b                   20.421(4)
_cell_length_c                   9.9111(15)
_cell_angle_alpha                90
_cell_angle_beta                 90
_cell_angle_gamma                90
_cell_volume                     10595.2
loop_
_atom_site_label
_atom_site_type_symbol
_atom_site_fract_x
_atom_site_fract_y
_atom_site_fract_z
Co1 Co 0.461795(5) 0.339565(11) 0.16536(2)
O1 O 0.45939(4) 0.41590(11) 0.30966(19)
O2 O 0.46488(4) 0.32349(11) 0.4159(3)
O3 O 0.45887(4) 0.41970(10) 1.02899(19)
O4 O 0.46125(4) 0.32708(11) 0.9258(3)
N1 N 0.46447(3) 0.73447(7) 0.6633(2)
N2 N 0.50245(3) 0.35057(8) 0.1577(2)
N3 N 0.67086(3) 0.42118(9) -0.0703(2)
C1 C 0.46417(3) 0.52428(9) 0.6659(3)
C2 C 0.46423(4) 0.48859(11) 0.5451(2)
H1 H 0.4650 0.5109 0.4612
C3 C 0.46317(4) 0.42070(12) 0.5478(3)
C4 C 0.46226(4) 0.38771(9) 0.6687(3)
H2 H 0.4618 0.3412 0.6699
C5 C 0.46204(4) 0.42282(12) 0.7900(3)
C6 C 0.46314(4) 0.49027(11) 0.7876(2)
H3 H 0.4632 0.5139 0.8702
C7 C 0.45481(6) 0.69967(11) 0.5606(3)
H4 H 0.4479 0.7226 0.4857
C8 C 0.45444(6) 0.63236(12) 0.5586(3)
H5 H 0.4471 0.6101 0.4837
C9 C 0.46458(4) 0.59674(9) 0.6645(3)
C10 C 0.47466(4) 0.63277(10) 0.7708(2)
H6 H 0.4817 0.6110 0.8469
C11 C 0.47438(4) 0.70063(10) 0.7656(2)
H7 H 0.4817 0.7242 0.8387
C12 C 0.46248(4) 0.38401(12) 0.4165(3)
C13 C 0.46058(4) 0.38675(12) 0.9219(3)
C14 C 0.58331(5) 0.38646(16) 0.1143(4)
H8 H 0.5899 0.4096 0.1949
H9 H 0.5922 0.3439 0.1079
C15 C 0.51239(5) 0.41039(10) 0.1766(3)
H10 H 0.5011 0.4451 0.1997
C16 C 0.53805(5) 0.42423(12) 0.1643(4)
H11 H 0.5441 0.4676 0.1777
C17 C 0.55503(4) 0.37428(13) 0.1322(3)
C18 C 0.54484(5) 0.31281(13) 0.1116(3)
H12 H 0.5557 0.2772 0.0892
C19 C 0.51879(4) 0.30309(11) 0.1236(3)
H13 H 0.5122 0.2605 0.1067
C20 C 0.58925(5) 0.42629(17) -0.0090(4)
H14 H 0.5830 0.4716 0.0037
H15 H 0.5803 0.4073 -0.0880
C21 C 0.66043(5) 0.45726(14) 0.0256(3)
H16 H 0.6714 0.4818 0.0827
C22 C 0.63421(5) 0.46122(17) 0.0474(4)
H17 H 0.6277 0.4872 0.1192
C23 C 0.61766(5) 0.42742(15) -0.0351(3)
C24 C 0.62842(6) 0.39156(19) -0.1360(4)
H18 H 0.6179 0.3681 -0.1971
C25 C 0.65480(5) 0.38918(16) -0.1499(4)
H19 H 0.6617 0.3632 -0.2204
Co1_2 Co 0.461795(5) 0.339565(11) 1.16536(2)
Co1D Co 0.461795(5) 0.839565(11) 0.66536(2)
Co1F Co 0.711795(5) 0.410435(11) -0.08464(2)
O3_2 O 0.45887(4) 0.41970(10) 0.02899(19)
O4_2 O 0.46125(4) 0.32708(11) -0.0742(3)
N1D N 0.46447(3) 0.23447(7) 0.1633(2)
N3N N 0.42086(3) 0.32882(9) 0.1797(2)
O6 O 0.3793(5) 0.3699(16) 0.714(2)
O7 O 0.3983(3) 0.4724(8) 0.422(2)
O8 O 0.3635(4) 0.4846(12) 0.601(2)
O5? O 0.3883(4) 0.4188(10) 0.572(2)
O9? O 0.3661(6) 0.4308(15) 0.697(3)
O10? O 0.3911(5) 0.4553(11) 0.679(3)
O11? O 0.3413(3) 0.5370(7) 0.512(2)
loop_
_geom_bond_atom_site_label_1
_geom_bond_atom_site_label_2
_geom_bond_site_symmetry_1
_geom_bond_site_symmetry_2
Co1 O1 1_555 1_555
O1 C12 1_555 1_555
O2 C12 1_555 1_555
O3 C13 1_555 1_555
O4 C13 1_555 1_555
N1 C7 1_555 1_555
N2 Co1 1_555 1_555
N3 C21 1_555 1_555
C1 C2 1_555 1_555
C2 H1 1_555 1_555
C3 C2 1_555 1_555
C4 C3 1_555 1_555
H2 C4 1_555 1_555
C5 C4 1_555 1_555
C6 C1 1_555 1_555
H3 C6 1_555 1_555
C7 H4 1_555 1_555
C8 C7 1_555 1_555
H5 C8 1_555 1_555
C9 C1 1_555 1_555
C10 C9 1_555 1_555
H6 C10 1_555 1_555
C11 N1 1_555 1_555
H7 C11 1_555 1_555
C12 C3 1_555 1_555
C13 C5 1_555 1_555
C14 H8 1_555 1_555
H9 C14 1_555 1_555
C15 N2 1_555 1_555
H10 C15 1_555 1_555
C16 C15 1_555 1_555
H11 C16 1_555 1_555
C17 C14 1_555 1_555
C18 C17 1_555 1_555
H12 C18 1_555 1_555
C19 N2 1_555 1_555
H13 C19 1_555 1_555
C20 C14 1_555 1_555
H14 C20 1_555 1_555
H15 C20 1_555 1_555
C21 H16 1_555 1_555
C22 C21 1_555 1_555
H17 C22 1_555 1_555
C23 C20 1_555 1_555
C24 C23 1_555 1_555
H18 C24 1_555 1_555
C25 N3 1_555 1_555
H19 C25 1_555 1_555
Co1_2 O3 1_555 1_555
Co1D N1 1_555 1_555
Co1F N3 1_555 1_555
O3_2 Co1 1_555 1_555
O4_2 Co1 1_555 1_555
N1D Co1 1_555 1_555
N3N Co1 1_555 1_555
O4 Co1_2 1_555 1_555
C5 C6 1_555 1_555
C8 C9 1_555 1_555
C10 C11 1_555 1_555
C16 C17 1_555 1_555
C18 C19 1_555 1_555
C22 C23 1_555 1_555
C24 C25 1_555 1_555

#END
