
#######################################################################
#
#                 Cambridge Crystallographic Data Centre
#                                CCDC 
#
#######################################################################
#
# If this CIF has been generated from an entry in the Cambridge 
# Structural Database, then it will include bibliographic, chemical, 
# crystal, experimental, refinement or atomic coordinate data resulting 
# from the CCDC's data processing and validation procedures.
#
#######################################################################

data_REJLIC
_symmetry_cell_setting           triclinic
_symmetry_space_group_name_H-M   'P -1'
_symmetry_Int_Tables_number      2
_space_group_name_Hall           '-P 1'
loop_
_symmetry_equiv_pos_site_id
_symmetry_equiv_pos_as_xyz
1 x,y,z
2 -x,-y,-z
_cell_length_a                   11.7914(12)
_cell_length_b                   17.0504(18)
_cell_length_c                   20.795(2)
_cell_angle_alpha                104.726(2)
_cell_angle_beta                 106.360(2)
_cell_angle_gamma                103.481(2)
_cell_volume                     3664.62
loop_
_atom_site_label
_atom_site_type_symbol
_atom_site_fract_x
_atom_site_fract_y
_atom_site_fract_z
Co1 Co 0.5000 -0.5000 0.5000
Co2 Co 1.0000 -0.5000 0.5000
Co3 Co 0.99993(8) -0.25188(5) 0.75165(4)
Co4 Co 1.0000 0.0000 1.0000
Co5 Co 0.5000 0.0000 0.0000
S1 S 0.5047(2) -0.25684(12) 0.24379(10)
S2 S 0.9741(2) -0.91509(13) 0.57237(12)
S3 S 1.0162(2) -0.59022(12) 0.92662(11)
O1 O 0.6198(4) -0.5585(3) 0.4635(2)
O2 O 0.8149(4) -0.5540(3) 0.4853(2)
O3 O 1.0496(4) -0.4412(3) 0.6078(2)
O4 O 1.0844(4) -0.3291(3) 0.6998(2)
O5 O 0.9157(4) -0.1743(3) 0.8026(2)
O6 O 0.9513(4) -0.0596(3) 0.8926(2)
O7 O 1.1856(4) 0.0560(3) 1.0127(2)
O8 O 1.3818(4) 0.0671(3) 1.0274(2)
N1 N 0.6717(4) -0.4232(3) 0.5764(2)
N2 N 0.8474(5) -0.3346(3) 0.6639(2)
N3 N 1.1502(5) -0.1713(3) 0.8405(2)
N4 N 1.3270(5) -0.0829(3) 0.9293(3)
N5 N 0.5188(5) -0.4115(4) 0.4405(3)
N6 N 0.5274(9) -0.1534(5) 0.3606(4)
N7 N 0.5211(9) -0.1081(5) 0.3151(4)
N8 N 0.4887(5) -0.0543(3) 0.0827(3)
N9 N 1.0296(5) -1.1598(3) 0.6934(3)
N10 N 1.1915(8) -0.8840(7) 0.6526(8)
N11 N 1.1925(9) -0.8159(8) 0.6305(8)
N12 N 1.0314(6) -0.6137(4) 0.5207(3)
N13 N 0.9669(6) -0.3443(3) 0.8089(3)
N14 N 0.7937(7) -0.6158(5) 0.8530(6)
N15 N 0.7914(7) -0.6858(5) 0.8740(6)
N16 N 0.9643(5) -0.8896(3) 0.9774(3)
C1 C 0.7242(5) -0.3549(4) 0.6352(3)
H1 H 0.6782 -0.3234 0.6550
C2 C 0.7681(5) -0.4496(4) 0.5661(3)
C3 C 0.8771(5) -0.3949(4) 0.6208(3)
C4 C 0.7349(6) -0.5255(3) 0.5009(3)
C5 C 1.0110(5) -0.3900(4) 0.6419(3)
C6 C 1.2723(6) -0.1532(4) 0.8713(3)
H2 H 1.3172 -0.1875 0.8535
C7 C 1.1221(6) -0.1073(4) 0.8825(3)
C8 C 1.2307(5) -0.0530(3) 0.9364(3)
C9 C 0.9882(5) -0.1124(4) 0.8590(3)
C10 C 1.2663(6) 0.0286(4) 0.9958(3)
C11 C 0.4937(8) -0.4373(5) 0.3715(4)
H3 H 0.4749 -0.4966 0.3467
C12 C 0.4936(8) -0.3810(5) 0.3331(4)
H4 H 0.4737 -0.4018 0.2830
C13 C 0.5228(7) -0.2945(5) 0.3693(4)
C14 C 0.5541(9) -0.2680(5) 0.4401(4)
H5 H 0.5783 -0.2088 0.4669
C15 C 0.5506(9) -0.3287(5) 0.4734(4)
H6 H 0.5727 -0.3089 0.5237
C16 C 0.5192(7) -0.2327(5) 0.3303(4)
C17 C 0.5086(7) -0.1543(5) 0.2512(4)
C18 C 0.4999(7) -0.1200(5) 0.1922(4)
C19 C 0.4907(9) -0.1705(5) 0.1269(5)
H7 H 0.4897 -0.2281 0.1187
C20 C 0.4829(9) -0.1358(5) 0.0727(4)
H8 H 0.4732 -0.1715 0.0268
C21 C 0.4941(7) -0.0080(5) 0.1455(4)
H9 H 0.4931 0.0490 0.1523
C22 C 0.5011(7) -0.0374(5) 0.2020(4)
H10 H 0.5067 -0.0011 0.2466
C23 C 0.9360(8) -1.1439(5) 0.6541(5)
H11 H 0.8541 -1.1818 0.6419
C24 C 0.9472(8) -1.0763(5) 0.6290(5)
H12 H 0.8748 -1.0678 0.6015
C25 C 1.0623(8) -1.0220(5) 0.6441(4)
C26 C 1.1599(9) -1.0422(6) 0.6798(6)
H13 H 1.2428 -1.0082 0.6891
C27 C 1.1406(8) -1.1109(6) 0.7028(5)
H14 H 1.2115 -1.1237 0.7268
C28 C 1.0853(8) -0.9423(6) 0.6258(5)
C29 C 1.0858(8) -0.8217(6) 0.5897(5)
C30 C 1.0663(8) -0.7517(5) 0.5623(5)
C31 C 0.9603(8) -0.7612(5) 0.5082(4)
H15 H 0.8963 -0.8155 0.4844
C32 C 0.9469(8) -0.6913(5) 0.4886(4)
H16 H 0.8737 -0.6994 0.4502
C33 C 1.1357(7) -0.6053(5) 0.5722(4)
H17 H 1.1988 -0.5506 0.5953
C34 C 1.1559(8) -0.6733(6) 0.5936(5)
H18 H 1.2322 -0.6650 0.6299
C35 C 0.8610(7) -0.8991(4) 0.9246(4)
H19 H 0.8003 -0.9548 0.9005
C36 C 0.8380(7) -0.8330(5) 0.9032(5)
H20 H 0.7634 -0.8432 0.8648
C37 C 0.9227(7) -0.7523(4) 0.9373(4)
C38 C 1.0290(8) -0.7416(5) 0.9921(4)
H21 H 1.0900 -0.6863 1.0175
C39 C 1.0468(7) -0.8113(5) 1.0103(4)
H22 H 1.1213 -0.8029 1.0480
C40 C 0.8990(8) -0.6822(5) 0.9110(4)
C41 C 0.9022(8) -0.5615(5) 0.8755(4)
C42 C 0.9265(8) -0.4830(5) 0.8560(4)
C43 C 0.8302(8) -0.4600(6) 0.8225(5)
H23 H 0.7468 -0.4915 0.8149
C44 C 0.8534(8) -0.3907(6) 0.7996(5)
H24 H 0.7844 -0.3759 0.7759
C45 C 1.0598(8) -0.3633(5) 0.8471(4)
H25 H 1.1430 -0.3280 0.8584
C46 C 1.0431(8) -0.4305(5) 0.8712(5)
H26 H 1.1137 -0.4407 0.8988
Co2_2 Co 0.0000 -0.5000 0.5000
Co3A Co 0.00007(8) -0.74812(5) 0.24835(4)
Co3_2 Co 0.99993(8) -1.25188(5) 0.75165(4)
Co3A_2 Co 1.00007(8) 0.25188(5) 0.24835(4)
Co3_3 Co -0.00007(8) -0.25188(5) -0.24835(4)
Co4_2 Co 1.0000 -1.0000 1.0000
Co4_3 Co 0.0000 0.0000 0.0000
Co5_2 Co 1.5000 0.0000 1.0000
Co5_3 Co 0.5000 -1.0000 1.0000
S1A S 0.4953(2) -0.74316(12) 0.75621(10)
S2A S 1.0259(2) -0.08491(13) 0.42763(12)
S3A S -0.0162(2) -0.40978(12) 0.07338(11)
O1A O 0.3802(4) -0.4415(3) 0.5365(2)
O2A O 0.1851(4) -0.4460(3) 0.5147(2)
O2A_2 O 1.1851(4) -0.4460(3) 0.5147(2)
O3A O -0.0496(4) -0.5588(3) 0.3922(2)
O3A_2 O 0.9504(4) -0.5588(3) 0.3922(2)
O4A O -0.0844(4) -0.6709(3) 0.3002(2)
O5_2 O -0.0843(4) -0.1743(3) -0.1974(2)
O5A O 0.0843(4) -0.8257(3) 0.1974(2)
O6_2 O -0.0487(4) -0.0596(3) -0.1074(2)
O6A O 1.0487(4) 0.0596(3) 1.1074(2)
O7_2 O 0.1856(4) 0.0560(3) 0.0127(2)
O7A O 0.8144(4) -0.0560(3) 0.9873(2)
O8_2 O 0.3818(4) 0.0671(3) 0.0274(2)
O8A O 0.6182(4) -0.0671(3) -0.0274(2)
N1A N 0.3283(4) -0.5768(3) 0.4236(2)
N2A N 0.1526(5) -0.6654(3) 0.3361(2)
N3_2 N 0.1502(5) -0.1713(3) -0.1595(2)
N3A N -0.1502(5) -0.8287(3) 0.1595(2)
N4_2 N 0.3270(5) -0.0829(3) -0.0707(3)
N4A N 0.6730(5) 0.0829(3) 0.0707(3)
N5A N 0.4812(5) -0.5885(4) 0.5595(3)
N6A N 0.4726(9) -0.8466(5) 0.6394(4)
N7A N 0.4789(9) -0.8919(5) 0.6849(4)
N8A N 0.5113(5) -0.9457(3) 0.9173(3)
N8A_2 N 0.5113(5) 0.0543(3) -0.0827(3)
N9A N 0.9704(5) 0.1598(3) 0.3066(3)
N9_2 N 1.0296(5) -0.1598(3) 0.6934(3)
N9A_2 N -0.0296(5) -0.8402(3) 0.3066(3)
N10A N 0.8085(8) -0.1160(7) 0.3474(8)
N11A N 0.8075(9) -0.1841(8) 0.3695(8)
N12A N 0.9686(6) -0.3863(4) 0.4793(3)
N13A N 0.0331(6) -0.6557(3) 0.1911(3)
N14A N 0.2063(7) -0.3842(5) 0.1470(6)
N15A N 0.2086(7) -0.3142(5) 0.1260(6)
N16A N 0.0357(5) -0.1104(3) 0.0226(3)
N16_2 N 0.9643(5) 0.1104(3) 0.9774(3)
N16A_2 N 1.0357(5) -0.1104(3) 1.0226(3)
C1A C 0.2758(5) -0.6451(4) 0.3648(3)
H1A H 0.3218 -0.6766 0.3450
C2A C 0.2319(5) -0.5504(4) 0.4339(3)
C3A C 0.1229(5) -0.6051(4) 0.3792(3)
C4A C 0.2651(6) -0.4745(3) 0.4991(3)
C5A C -0.0110(5) -0.6100(4) 0.3581(3)
C6_2 C 0.2723(6) -0.1532(4) -0.1287(3)
H2_2 H 0.3172 -0.1875 -0.1465
C7_2 C 0.1221(6) -0.1073(4) -0.1175(3)
C8_2 C 0.2307(5) -0.0530(3) -0.0636(3)
C9_2 C -0.0118(5) -0.1124(4) -0.1410(3)
C10_2 C 0.2663(6) 0.0286(4) -0.0042(3)
C11A C 0.5063(8) -0.5627(5) 0.6285(4)
H3A H 0.5251 -0.5034 0.6533
C12A C 0.5064(8) -0.6190(5) 0.6669(4)
H4A H 0.5263 -0.5982 0.7170
C13A C 0.4772(7) -0.7055(5) 0.6307(4)
C14A C 0.4459(9) -0.7320(5) 0.5599(4)
H5A H 0.4217 -0.7912 0.5331
C15A C 0.4494(9) -0.6713(5) 0.5266(4)
H6A H 0.4273 -0.6911 0.4763
C16A C 0.4808(7) -0.7673(5) 0.6697(4)
C17A C 0.4914(7) -0.8457(5) 0.7488(4)
C18A C 0.5001(7) -0.8800(5) 0.8078(4)
C19A C 0.5093(9) -0.8295(5) 0.8731(5)
H7A H 0.5103 -0.7719 0.8813
C20A C 0.5171(9) -0.8642(5) 0.9273(4)
H8A H 0.5268 -0.8285 0.9732
C21A C 0.5059(7) -0.9920(5) 0.8545(4)
H9A H 0.5069 -1.0490 0.8477
C22A C 0.4989(7) -0.9626(5) 0.7980(4)
H10A H 0.4933 -0.9989 0.7534
C23A C 1.0640(8) 0.1439(5) 0.3459(5)
H11A H 1.1459 0.1818 0.3581
C24A C 1.0528(8) 0.0763(5) 0.3710(5)
H12A H 1.1252 0.0678 0.3985
C25A C 0.9377(8) 0.0220(5) 0.3559(4)
C26A C 0.8401(9) 0.0422(6) 0.3202(6)
H13A H 0.7572 0.0082 0.3109
C27A C 0.8594(8) 0.1109(6) 0.2972(5)
H14A H 0.7885 0.1237 0.2732
C28A C 0.9147(8) -0.0577(6) 0.3742(5)
C29A C 0.9142(8) -0.1783(6) 0.4103(5)
C30A C 0.9337(8) -0.2483(5) 0.4377(5)
C31A C 1.0397(8) -0.2388(5) 0.4918(4)
H15A H 1.1037 -0.1845 0.5156
C32A C 1.0531(8) -0.3087(5) 0.5114(4)
H16A H 1.1263 -0.3006 0.5498
C33A C 0.8643(7) -0.3947(5) 0.4278(4)
H17A H 0.8012 -0.4494 0.4047
C34A C 0.8441(8) -0.3267(6) 0.4064(5)
H18A H 0.7678 -0.3350 0.3701
C35A C 0.1390(7) -0.1009(4) 0.0754(4)
H19A H 0.1997 -0.0452 0.0995
C36A C 0.1620(7) -0.1670(5) 0.0968(5)
H20A H 0.2366 -0.1568 0.1352
C37A C 0.0773(7) -0.2477(4) 0.0627(4)
C38A C -0.0290(8) -0.2584(5) 0.0079(4)
H21A H -0.0900 -0.3137 -0.0175
C39A C -0.0468(7) -0.1887(5) -0.0103(4)
H22A H -0.1213 -0.1971 -0.0480
C40A C 0.1010(8) -0.3178(5) 0.0890(4)
C41A C 0.0978(8) -0.4385(5) 0.1245(4)
C42A C 0.0735(8) -0.5170(5) 0.1440(4)
C43A C 0.1698(8) -0.5400(6) 0.1775(5)
H23A H 0.2532 -0.5085 0.1851
C44A C 0.1466(8) -0.6093(6) 0.2004(5)
H24A H 0.2156 -0.6241 0.2241
C45A C -0.0598(8) -0.6367(5) 0.1529(4)
H25A H -0.1430 -0.6720 0.1416
C46A C -0.0431(8) -0.5695(5) 0.1288(5)
H26A H -0.1137 -0.5593 0.1012
N17 N 1.679(3) -0.5623(17) 1.0158(11)
C47 C 1.596(3) -0.6229(17) 1.0266(15)
C48 C 1.477(3) -0.6502(17) 0.9788(13)
C49 C 1.4278(18) -0.6266(13) 0.9226(13)
C50 C 1.5217(17) -0.5662(11) 0.9196(9)
C51 C 1.6457(17) -0.5308(11) 0.9614(10)
S4 S 1.2550(10) -0.6012(8) 0.8189(7)
N18 N 1.197(2) -0.7299(14) 0.8519(13)
N19 N 1.0963(19) -0.7292(10) 0.8000(10)
C52 C 1.299(2) -0.6610(15) 0.8711(11)
C53 C 1.1076(10) -0.6619(8) 0.7728(7)
N20 N 0.7642(13) -0.7035(11) 0.6151(6)
C54 C 0.9842(12) -0.6775(10) 0.7225(6)
C55 C 0.8913(15) -0.7539(10) 0.7002(9)
C56 C 0.7858(16) -0.7620(9) 0.6471(8)
C57 C 0.8678(15) -0.6327(10) 0.6450(8)
C58 C 0.9800(15) -0.6119(10) 0.6972(8)
O9 O 0.316(3) -0.827(2) 0.1685(17)
O11 O 0.907(5) -0.845(4) 0.744(3)
O12 O 0.758(3) -0.9546(19) 0.7073(16)
O13 O 0.476(3) -0.7569(19) 0.1055(17)
O15 O 0.536(2) -0.6298(15) 0.3100(12)
O17 O 0.509(7) -0.832(5) 0.338(4)
O19 O 1.010(3) -0.9079(19) 0.8041(16)
O21 O 0.588(3) 0.171(2) 0.4643(19)
O23 O 1.302(3) -0.369(2) 0.7713(17)
O24 O 0.313(3) -0.900(2) 0.2429(19)
O25 O 0.662(2) -0.0291(17) 0.5430(15)
O26 O 0.676(2) 0.0451(17) 0.4511(14)
O27 O 0.662(3) -0.775(2) 0.2840(17)
N21? N 1.706(2) -0.4617(13) 0.9477(12)
C59? C 1.639(3) -0.4365(18) 0.8959(12)
C60? C 1.516(3) -0.4673(15) 0.8516(13)
C61? C 1.466(2) -0.5349(14) 0.8701(11)
C62? C 1.5217(17) -0.5662(11) 0.9196(9)
C63? C 1.6457(17) -0.5308(11) 0.9614(10)
S5? S 1.2179(12) -0.5675(7) 0.7809(7)
N22? N 1.283(2) -0.6604(16) 0.8511(12)
N23? N 1.159(2) -0.7025(13) 0.8139(10)
C64? C 1.3342(18) -0.5856(16) 0.8412(10)
C65? C 1.1076(10) -0.6619(8) 0.7728(7)
N24? N 0.7642(13) -0.7035(11) 0.6151(6)
C66? C 0.9842(12) -0.6775(10) 0.7225(6)
C67? C 0.8913(15) -0.7539(10) 0.7002(9)
C68? C 0.7858(16) -0.7620(9) 0.6471(8)
C69? C 0.8678(15) -0.6327(10) 0.6450(8)
C70? C 0.9800(15) -0.6119(10) 0.6972(8)
O10? O 0.326(2) -0.7306(18) 0.2038(14)
O14? O 0.463(3) -0.7868(17) 0.1456(15)
O16? O 0.675(3) -0.6543(18) 0.3343(15)
O18? O 0.397(5) -0.834(3) 0.369(3)
O20? O 1.238(2) -0.7842(17) 0.8853(14)
O22? O 0.534(4) -0.729(3) 0.366(2)
loop_
_geom_bond_atom_site_label_1
_geom_bond_atom_site_label_2
_geom_bond_site_symmetry_1
_geom_bond_site_symmetry_2
Co1 O1 1_555 1_555
Co2 O2 1_555 1_555
Co3 O4 1_555 1_555
Co4 O6 1_555 1_555
Co5 N8 1_555 1_555
S1 C16 1_555 1_555
S2 C28 1_555 1_555
S3 C40 1_555 1_555
O1 C4 1_555 1_555
O2 C4 1_555 1_555
O3 Co2 1_555 1_555
O4 C5 1_555 1_555
O5 Co3 1_555 1_555
O6 C9 1_555 1_555
O7 Co4 1_555 1_555
O8 C10 1_555 1_555
N1 Co1 1_555 1_555
N2 Co3 1_555 1_555
N3 Co3 1_555 1_555
N4 C6 1_555 1_555
N5 Co1 1_555 1_555
N6 N7 1_555 1_555
N7 C17 1_555 1_555
N8 C20 1_555 1_555
N9 C23 1_555 1_555
N10 N11 1_555 1_555
N11 C29 1_555 1_555
N12 Co2 1_555 1_555
N13 Co3 1_555 1_555
N14 N15 1_555 1_555
N15 C40 1_555 1_555
N16 C35 1_555 1_555
C1 N1 1_555 1_555
H1 C1 1_555 1_555
C2 N1 1_555 1_555
C3 N2 1_555 1_555
C4 C2 1_555 1_555
C5 O3 1_555 1_555
C6 N3 1_555 1_555
H2 C6 1_555 1_555
C7 N3 1_555 1_555
C8 N4 1_555 1_555
C9 O5 1_555 1_555
C10 O7 1_555 1_555
C11 N5 1_555 1_555
H3 C11 1_555 1_555
C12 C11 1_555 1_555
H4 C12 1_555 1_555
C13 C12 1_555 1_555
C14 C13 1_555 1_555
H5 C14 1_555 1_555
C15 N5 1_555 1_555
H6 C15 1_555 1_555
C16 N6 1_555 1_555
C17 S1 1_555 1_555
C18 C17 1_555 1_555
C19 C18 1_555 1_555
H7 C19 1_555 1_555
C20 C19 1_555 1_555
H8 C20 1_555 1_555
C21 N8 1_555 1_555
H9 C21 1_555 1_555
C22 C18 1_555 1_555
H10 C22 1_555 1_555
C23 H11 1_555 1_555
C24 C23 1_555 1_555
H12 C24 1_555 1_555
C25 C24 1_555 1_555
C26 C25 1_555 1_555
H13 C26 1_555 1_555
C27 N9 1_555 1_555
H14 C27 1_555 1_555
C28 N10 1_555 1_555
C29 S2 1_555 1_555
C30 C29 1_555 1_555
C31 C30 1_555 1_555
H15 C31 1_555 1_555
C32 N12 1_555 1_555
H16 C32 1_555 1_555
C33 N12 1_555 1_555
H17 C33 1_555 1_555
C34 C30 1_555 1_555
H18 C34 1_555 1_555
C35 H19 1_555 1_555
C36 C35 1_555 1_555
H20 C36 1_555 1_555
C37 C36 1_555 1_555
C38 C37 1_555 1_555
H21 C38 1_555 1_555
C39 N16 1_555 1_555
H22 C39 1_555 1_555
C40 C37 1_555 1_555
C41 S3 1_555 1_555
C42 C41 1_555 1_555
C43 C42 1_555 1_555
H23 C43 1_555 1_555
C44 N13 1_555 1_555
H24 C44 1_555 1_555
C45 N13 1_555 1_555
H25 C45 1_555 1_555
C46 C42 1_555 1_555
H26 C46 1_555 1_555
N17 C47 1_555 1_555
C47 C48 1_555 1_555
C48 C49 1_555 1_555
C49 C50 1_555 1_555
C50 C51 1_555 1_555
C51 N17 1_555 1_555
S4 C52 1_555 1_555
N18 N19 1_555 1_555
N19 C53 1_555 1_555
C52 C49 1_555 1_555
C53 S4 1_555 1_555
N20 C56 1_555 1_555
C54 C53 1_555 1_555
C55 C54 1_555 1_555
C56 C55 1_555 1_555
C57 N20 1_555 1_555
C58 C54 1_555 1_555
Co2_2 O2A 1_555 1_555
Co3A O4A 1_555 1_555
Co3_2 N9 1_555 1_555
Co3A_2 N9A 1_555 1_555
Co3_3 O5_2 1_555 1_555
Co4_2 N16 1_555 1_555
Co4_3 O6_2 1_555 1_555
Co5_2 O8 1_555 1_555
Co5_3 N8A 1_555 1_555
S1A C16A 1_555 1_555
S2A C28A 1_555 1_555
S3A C40A 1_555 1_555
O1A Co1 1_555 1_555
O2A C4A 1_555 1_555
O2A_2 Co2 1_555 1_555
O3A Co2_2 1_555 1_555
O3A_2 Co2 1_555 1_555
O4A C5A 1_555 1_555
O5_2 C9_2 1_555 1_555
O5A Co3A 1_555 1_555
O6_2 C9_2 1_555 1_555
O6A Co4 1_555 1_555
O7_2 Co4_3 1_555 1_555
O7A Co4 1_555 1_555
O8_2 Co5 1_555 1_555
O8A Co5 1_555 1_555
N1A Co1 1_555 1_555
N2A Co3A 1_555 1_555
N3_2 Co3_3 1_555 1_555
N3A Co3A 1_555 1_555
N4_2 Co5 1_555 1_555
N4A Co5 1_555 1_555
N5A Co1 1_555 1_555
N6A N7A 1_555 1_555
N7A C17A 1_555 1_555
N8A C20A 1_555 1_555
N8A_2 Co5 1_555 1_555
N9A C23A 1_555 1_555
N9_2 Co3 1_555 1_555
N9A_2 Co3A 1_555 1_555
N10A N11A 1_555 1_555
N11A C29A 1_555 1_555
N12A Co2 1_555 1_555
N13A Co3A 1_555 1_555
N14A N15A 1_555 1_555
N15A C40A 1_555 1_555
N16A Co4_3 1_555 1_555
N16_2 Co4 1_555 1_555
N16A_2 Co4 1_555 1_555
C1A N1A 1_555 1_555
H1A C1A 1_555 1_555
C2A N1A 1_555 1_555
C3A N2A 1_555 1_555
C4A O1A 1_555 1_555
C5A O3A 1_555 1_555
C6_2 N3_2 1_555 1_555
H2_2 C6_2 1_555 1_555
C7_2 N3_2 1_555 1_555
C8_2 N4_2 1_555 1_555
C9_2 C7_2 1_555 1_555
C10_2 O7_2 1_555 1_555
C11A N5A 1_555 1_555
H3A C11A 1_555 1_555
C12A C11A 1_555 1_555
H4A C12A 1_555 1_555
C13A C12A 1_555 1_555
C14A C13A 1_555 1_555
H5A C14A 1_555 1_555
C15A N5A 1_555 1_555
H6A C15A 1_555 1_555
C16A N6A 1_555 1_555
C17A S1A 1_555 1_555
C18A C17A 1_555 1_555
C19A C18A 1_555 1_555
H7A C19A 1_555 1_555
C20A C19A 1_555 1_555
H8A C20A 1_555 1_555
C21A N8A 1_555 1_555
H9A C21A 1_555 1_555
C22A C18A 1_555 1_555
H10A C22A 1_555 1_555
C23A H11A 1_555 1_555
C24A C23A 1_555 1_555
H12A C24A 1_555 1_555
C25A C24A 1_555 1_555
C26A C25A 1_555 1_555
H13A C26A 1_555 1_555
C27A N9A 1_555 1_555
H14A C27A 1_555 1_555
C28A N10A 1_555 1_555
C29A S2A 1_555 1_555
C30A C29A 1_555 1_555
C31A C30A 1_555 1_555
H15A C31A 1_555 1_555
C32A N12A 1_555 1_555
H16A C32A 1_555 1_555
C33A N12A 1_555 1_555
H17A C33A 1_555 1_555
C34A C30A 1_555 1_555
H18A C34A 1_555 1_555
C35A N16A 1_555 1_555
H19A C35A 1_555 1_555
C36A C35A 1_555 1_555
H20A C36A 1_555 1_555
C37A C36A 1_555 1_555
C38A C37A 1_555 1_555
H21A C38A 1_555 1_555
C39A N16A 1_555 1_555
H22A C39A 1_555 1_555
C40A C37A 1_555 1_555
C41A S3A 1_555 1_555
C42A C41A 1_555 1_555
C43A C42A 1_555 1_555
H23A C43A 1_555 1_555
C44A N13A 1_555 1_555
H24A C44A 1_555 1_555
C45A N13A 1_555 1_555
H25A C45A 1_555 1_555
C46A C42A 1_555 1_555
H26A C46A 1_555 1_555
N2 C1 1_555 1_555
N4 Co5_2 1_555 1_555
N14 C41 1_555 1_555
C2 C3 1_555 1_555
C3 C5 1_555 1_555
C7 C8 1_555 1_555
C7 C9 1_555 1_555
C8 C10 1_555 1_555
C13 C16 1_555 1_555
C14 C15 1_555 1_555
C21 C22 1_555 1_555
C25 C28 1_555 1_555
C26 C27 1_555 1_555
C31 C32 1_555 1_555
C33 C34 1_555 1_555
C38 C39 1_555 1_555
C43 C44 1_555 1_555
C45 C46 1_555 1_555
N18 C52 1_555 1_555
C57 C58 1_555 1_555
O8_2 C10_2 1_555 1_555
N2A C1A 1_555 1_555
N4_2 C6_2 1_555 1_555
N14A C41A 1_555 1_555
C2A C3A 1_555 1_555
C2A C4A 1_555 1_555
C3A C5A 1_555 1_555
C7_2 C8_2 1_555 1_555
C8_2 C10_2 1_555 1_555
C13A C16A 1_555 1_555
C14A C15A 1_555 1_555
C21A C22A 1_555 1_555
C25A C28A 1_555 1_555
C26A C27A 1_555 1_555
C31A C32A 1_555 1_555
C33A C34A 1_555 1_555
C38A C39A 1_555 1_555
C43A C44A 1_555 1_555
C45A C46A 1_555 1_555

#END
