
#######################################################################
#
#                 Cambridge Crystallographic Data Centre
#                                CCDC 
#
#######################################################################
#
# If this CIF has been generated from an entry in the Cambridge 
# Structural Database, then it will include bibliographic, chemical, 
# crystal, experimental, refinement or atomic coordinate data resulting 
# from the CCDC's data processing and validation procedures.
#
#######################################################################

data_REJLEY
_symmetry_cell_setting           triclinic
_symmetry_space_group_name_H-M   'P -1'
_symmetry_Int_Tables_number      2
_space_group_name_Hall           '-P 1'
loop_
_symmetry_equiv_pos_site_id
_symmetry_equiv_pos_as_xyz
1 x,y,z
2 -x,-y,-z
_cell_length_a                   11.4482(10)
_cell_length_b                   11.5408(10)
_cell_length_c                   11.7663(10)
_cell_angle_alpha                65.3700(10)
_cell_angle_beta                 80.5400(10)
_cell_angle_gamma                72.7590(10)
_cell_volume                     1348.15
loop_
_atom_site_label
_atom_site_type_symbol
_atom_site_fract_x
_atom_site_fract_y
_atom_site_fract_z
N6 N 0.9550(4) -0.7737(4) -0.1619(4)
C21 C 0.8571(4) -0.6803(4) -0.2324(4)
H14 H 0.7745 -0.6844 -0.2029
C22 C 0.8794(4) -0.5821(4) -0.3448(4)
H15 H 0.8123 -0.5123 -0.3885
C23 C 0.9984(4) -0.5839(4) -0.3949(4)
C24 C 1.0952(4) -0.6652(4) -0.3181(4)
H16 H 1.1765 -0.6547 -0.3457
C25 C 1.0759(4) -0.7623(4) -0.2008(4)
H17 H 1.1431 -0.8193 -0.1484
C26 C 1.0000(4) -0.5000(4) -0.5000(4)
N6A N 1.0450(4) -0.2263(4) -0.8381(4)
C21A C 1.1429(4) -0.3197(4) -0.7676(4)
H14A H 1.2255 -0.3156 -0.7971
C22A C 1.1206(4) -0.4179(4) -0.6552(4)
H15A H 1.1877 -0.4877 -0.6115
C23A C 1.0016(4) -0.4161(4) -0.6051(4)
C24A C 0.9048(4) -0.3348(4) -0.6819(4)
H16A H 0.8235 -0.3453 -0.6543
C25A C 0.9241(4) -0.2377(4) -0.7992(4)
H17A H 0.8569 -0.1807 -0.8516
O5 O 0.8880(8) -1.0696(6) -0.1386(5)
O6 O 0.6163(14) -0.8753(11) -0.0639(13)
O7 O 0.6515(11) -1.0605(12) -0.0534(11)
O8 O 0.4695(8) -0.8341(8) -0.1813(7)
O10 O 0.821(2) -0.921(2) 0.078(2)
Co1 Co 0.5000 0.0000 -0.5000
Co2 Co 0.5000 -0.5000 0.0000
Co3 Co 0.5000 -0.5000 -0.5000
O1 O 0.5851(3) -0.3505(3) -0.5469(3)
O2 O 0.5474(3) -0.1378(3) -0.5859(3)
O3 O 0.5428(3) -0.5776(3) -0.3144(3)
O4 O 0.5485(3) -0.6035(3) -0.1188(3)
N1 N 0.4942(3) -0.1707(3) -0.3480(3)
N2 N 0.4896(3) -0.3466(4) -0.1713(3)
N3 N 0.3016(3) 0.0437(3) -0.5199(3)
N4 N -0.3266(3) 0.3738(3) -0.5289(3)
N5 N 0.3111(4) -0.4985(4) -0.0078(4)
C1 C 0.4758(4) -0.2164(4) -0.2241(4)
H1 H 0.4550 -0.1618 -0.1779
C2 C 0.5222(3) -0.2787(4) -0.3781(4)
C3 C 0.5190(4) -0.3878(4) -0.2684(4)
C4 C 0.5530(3) -0.2566(4) -0.5116(4)
C5 C 0.5385(4) -0.5316(4) -0.2346(4)
C6 C 0.2481(4) 0.1141(4) -0.6292(4)
H2 H 0.2984 0.1257 -0.7039
C7 C 0.1238(4) 0.1712(4) -0.6399(4)
H3 H 0.0904 0.2201 -0.7201
C8 C 0.0479(4) 0.1562(4) -0.5318(4)
C9 C 0.1027(4) 0.0762(4) -0.4175(4)
H4 H 0.0543 0.0582 -0.3413
C10 C 0.2274(4) 0.0236(4) -0.4163(4)
H5 H 0.2631 -0.0300 -0.3377
C11 C -0.0838(4) 0.2259(4) -0.5353(4)
C12 C -0.1286(4) 0.3470(4) -0.6332(4)
H6 H -0.0767 0.3814 -0.7038
C13 C -0.2490(4) 0.4155(4) -0.6256(4)
H7 H -0.2783 0.4968 -0.6930
C14 C -0.2850(4) 0.2559(4) -0.4374(4)
H8 H -0.3397 0.2230 -0.3692
C15 C -0.1661(3) 0.1801(3) -0.4376(3)
H9 H -0.1410 0.0969 -0.3710
C16 C 0.2793(3) -0.6061(3) 0.0104(3)
H10 H 0.3424 -0.6846 0.0224
C17 C 0.1601(5) -0.6116(5) 0.0133(5)
H11 H 0.1431 -0.6919 0.0258
C18 C 0.0656(5) -0.5000(5) -0.0022(4)
C19 C 0.0993(5) -0.3863(6) -0.0243(6)
H12 H 0.0381 -0.3061 -0.0377
C20 C 0.2208(4) -0.3883(4) -0.0271(4)
H13 H 0.2412 -0.3086 -0.0433
Co2_2 Co -0.5000 -0.5000 0.0000
Co2_3 Co 0.5000 0.5000 -1.0000
Co3_2 Co -0.5000 0.5000 -0.5000
Co3_3 Co 0.5000 0.5000 -0.5000
Co3_4 Co 1.5000 -0.5000 -0.5000
O1A O 0.4149(3) -0.6495(3) -0.4531(3)
O1A_2 O 0.4149(3) 0.3505(3) -0.4531(3)
O2A O 0.4526(3) 0.1378(3) -0.4141(3)
O3A O 0.4572(3) -0.4224(3) -0.6856(3)
O3A_2 O 0.4572(3) 0.5776(3) -0.6856(3)
O4A O 0.4515(3) -0.3965(3) 0.1188(3)
O4A_2 O 0.4515(3) 0.6035(3) -0.8812(3)
N1A N 0.5058(3) 0.1707(3) -0.6520(3)
N2A N 0.5104(3) -0.6534(4) 0.1713(3)
N2A_2 N 0.5104(3) 0.3466(4) -0.8287(3)
N3A N 0.6984(3) -0.0437(3) -0.4801(3)
N4_2 N 0.6734(3) -0.6262(3) -0.5289(3)
N4A N 0.3266(3) -0.3738(3) -0.4711(3)
N4A_2 N 1.3266(3) -0.3738(3) -0.4711(3)
N5A N -0.3111(4) -0.5015(4) 0.0078(4)
N5A_2 N 0.6889(4) -0.5015(4) 0.0078(4)
C1A C 0.5242(4) 0.2164(4) -0.7759(4)
H1A H 0.5450 0.1618 -0.8221
C2A C 0.4778(3) 0.2787(4) -0.6219(4)
C3A C 0.4810(4) 0.3878(4) -0.7316(4)
C4A C 0.4470(3) 0.2566(4) -0.4884(4)
C5A C 0.4615(4) 0.5316(4) -0.7654(4)
C6A C 0.7519(4) -0.1141(4) -0.3708(4)
H2A H 0.7016 -0.1257 -0.2961
C7A C 0.8762(4) -0.1712(4) -0.3601(4)
H3A H 0.9096 -0.2201 -0.2799
C8A C 0.9521(4) -0.1562(4) -0.4682(4)
C9A C 0.8973(4) -0.0762(4) -0.5825(4)
H4A H 0.9457 -0.0582 -0.6587
C10A C 0.7726(4) -0.0236(4) -0.5837(4)
H5A H 0.7369 0.0300 -0.6623
C11A C 1.0838(4) -0.2259(4) -0.4647(4)
C12A C 1.1286(4) -0.3470(4) -0.3668(4)
H6A H 1.0767 -0.3814 -0.2962
C13A C 1.2490(4) -0.4155(4) -0.3744(4)
H7A H 1.2783 -0.4968 -0.3070
C14A C 1.2850(4) -0.2559(4) -0.5626(4)
H8A H 1.3397 -0.2230 -0.6308
C15A C 1.1661(3) -0.1801(3) -0.5624(3)
H9A H 1.1410 -0.0969 -0.6290
C16A C -0.2793(3) -0.3939(3) -0.0104(3)
H10A H -0.3424 -0.3154 -0.0224
C17A C -0.1601(5) -0.3884(5) -0.0133(5)
H11A H -0.1431 -0.3081 -0.0258
C18A C -0.0656(5) -0.5000(5) 0.0022(4)
C19A C -0.0993(5) -0.6137(6) 0.0243(6)
H12A H -0.0381 -0.6939 0.0377
C20A C -0.2208(4) -0.6117(4) 0.0271(4)
H13A H -0.2412 -0.6914 0.0433
C27? C 0.8973(4) -0.3885(4) -0.5737(4)
H18? H 0.8152 -0.3788 -0.5376
C28? C 0.9222(4) -0.2987(4) -0.6948(4)
H19? H 0.8554 -0.2304 -0.7408
C29? C 1.1390(4) -0.4231(4) -0.6899(4)
H20? H 1.2174 -0.4398 -0.7323
C30? C 1.1154(4) -0.5146(4) -0.5643(4)
H21? H 1.1810 -0.5882 -0.5228
N7? N 1.0431(4) -0.3060(4) -0.7512(4)
O9? O 0.4322(19) -0.9401(16) -0.1622(14)
O11? O 1.061(3) -1.086(3) 0.024(3)
loop_
_geom_bond_atom_site_label_1
_geom_bond_atom_site_label_2
_geom_bond_site_symmetry_1
_geom_bond_site_symmetry_2
Co1 O2 1_555 1_555
Co2 O4 1_555 1_555
Co3 O1 1_555 1_555
O1 C4 1_555 1_555
O2 C4 1_555 1_555
O3 Co3 1_555 1_555
O4 C5 1_555 1_555
N1 Co1 1_555 1_555
N2 Co2 1_555 1_555
N3 Co1 1_555 1_555
N4 C13 1_555 1_555
N5 Co2 1_555 1_555
C1 N1 1_555 1_555
H1 C1 1_555 1_555
C2 N1 1_555 1_555
C3 N2 1_555 1_555
C4 C2 1_555 1_555
C5 O3 1_555 1_555
C6 N3 1_555 1_555
H2 C6 1_555 1_555
C7 C6 1_555 1_555
H3 C7 1_555 1_555
C8 C7 1_555 1_555
C9 C8 1_555 1_555
H4 C9 1_555 1_555
C10 N3 1_555 1_555
H5 C10 1_555 1_555
C11 C8 1_555 1_555
C12 C11 1_555 1_555
H6 C12 1_555 1_555
C13 C12 1_555 1_555
H7 C13 1_555 1_555
C14 N4 1_555 1_555
H8 C14 1_555 1_555
C15 C11 1_555 1_555
H9 C15 1_555 1_555
C16 N5 1_555 1_555
H10 C16 1_555 1_555
C17 C16 1_555 1_555
H11 C17 1_555 1_555
C18 C17 1_555 1_555
C19 C18 1_555 1_555
H12 C19 1_555 1_555
C20 N5 1_555 1_555
H13 C20 1_555 1_555
N6 C21 1_555 1_555
C21 H14 1_555 1_555
C22 C21 1_555 1_555
H15 C22 1_555 1_555
C23 C22 1_555 1_555
C24 C23 1_555 1_555
H16 C24 1_555 1_555
C25 N6 1_555 1_555
H17 C25 1_555 1_555
C26 C23 1_555 1_555
Co2_2 N5A 1_555 1_555
Co2_3 O4A_2 1_555 1_555
Co3_2 N4 1_555 1_555
Co3_3 O1A_2 1_555 1_555
Co3_4 N4A_2 1_555 1_555
O1A Co3 1_555 1_555
O1A_2 C4A 1_555 1_555
O2A Co1 1_555 1_555
O3A Co3 1_555 1_555
O3A_2 Co3_3 1_555 1_555
O4A Co2 1_555 1_555
O4A_2 C5A 1_555 1_555
N1A Co1 1_555 1_555
N2A Co2 1_555 1_555
N2A_2 Co2_3 1_555 1_555
N3A Co1 1_555 1_555
N4_2 Co3 1_555 1_555
N4A Co3 1_555 1_555
N4A_2 C13A 1_555 1_555
N5A C16A 1_555 1_555
N5A_2 Co2 1_555 1_555
C1A N1A 1_555 1_555
H1A C1A 1_555 1_555
C2A N1A 1_555 1_555
C3A N2A_2 1_555 1_555
C4A O2A 1_555 1_555
C5A O3A_2 1_555 1_555
C6A N3A 1_555 1_555
H2A C6A 1_555 1_555
C7A C6A 1_555 1_555
H3A C7A 1_555 1_555
C8A C7A 1_555 1_555
C9A C8A 1_555 1_555
H4A C9A 1_555 1_555
C10A N3A 1_555 1_555
H5A C10A 1_555 1_555
C11A C8A 1_555 1_555
C12A C11A 1_555 1_555
H6A C12A 1_555 1_555
C13A C12A 1_555 1_555
H7A C13A 1_555 1_555
C14A N4A_2 1_555 1_555
H8A C14A 1_555 1_555
C15A C11A 1_555 1_555
H9A C15A 1_555 1_555
C16A H10A 1_555 1_555
C17A C16A 1_555 1_555
H11A C17A 1_555 1_555
C18A C18 1_555 1_555
C19A C18A 1_555 1_555
H12A C19A 1_555 1_555
C20A N5A 1_555 1_555
H13A C20A 1_555 1_555
N6A C21A 1_555 1_555
C21A H14A 1_555 1_555
C22A C21A 1_555 1_555
H15A C22A 1_555 1_555
C23A C26 1_555 1_555
C24A C23A 1_555 1_555
H16A C24A 1_555 1_555
C25A N6A 1_555 1_555
H17A C25A 1_555 1_555
N2 C1 1_555 1_555
C2 C3 1_555 1_555
C3 C5 1_555 1_555
C9 C10 1_555 1_555
C14 C15 1_555 1_555
C19 C20 1_555 1_555
C24 C25 1_555 1_555
N2A_2 C1A 1_555 1_555
C2A C3A 1_555 1_555
C2A C4A 1_555 1_555
C3A C5A 1_555 1_555
C9A C10A 1_555 1_555
C14A C15A 1_555 1_555
C17A C18A 1_555 1_555
C19A C20A 1_555 1_555
C22A C23A 1_555 1_555
C24A C25A 1_555 1_555

#END
