
#######################################################################
#
#                 Cambridge Crystallographic Data Centre
#                                CCDC 
#
#######################################################################
#
# If this CIF has been generated from an entry in the Cambridge 
# Structural Database, then it will include bibliographic, chemical, 
# crystal, experimental, refinement or atomic coordinate data resulting 
# from the CCDC's data processing and validation procedures.
#
#######################################################################

data_REPCIZ
_symmetry_cell_setting           rhombohedral
_symmetry_space_group_name_H-M   'R 3 c'
_symmetry_Int_Tables_number      161
_space_group_name_Hall           'R 3 -2"c'
loop_
_symmetry_equiv_pos_site_id
_symmetry_equiv_pos_as_xyz
1 x,y,z
2 -y,x-y,z
3 -x+y,-x,z
4 -y,-x,1/2+z
5 -x+y,y,1/2+z
6 x,x-y,1/2+z
7 2/3+x,1/3+y,1/3+z
8 2/3-y,1/3+x-y,1/3+z
9 2/3-x+y,1/3-x,1/3+z
10 2/3-y,1/3-x,5/6+z
11 2/3-x+y,1/3+y,5/6+z
12 2/3+x,1/3+x-y,5/6+z
13 1/3+x,2/3+y,2/3+z
14 1/3-y,2/3+x-y,2/3+z
15 1/3-x+y,2/3-x,2/3+z
16 1/3-y,2/3-x,1/6+z
17 1/3-x+y,2/3+y,1/6+z
18 1/3+x,2/3+x-y,1/6+z
_cell_length_a                   31.936(5)
_cell_length_b                   31.936(5)
_cell_length_c                   42.607(9)
_cell_angle_alpha                90
_cell_angle_beta                 90
_cell_angle_gamma                120.00
_cell_volume                     37633.3
loop_
_atom_site_label
_atom_site_type_symbol
_atom_site_fract_x
_atom_site_fract_y
_atom_site_fract_z
O1 O 0.18640(10) 0.01210(12) 0.88683(7)
O2 O 0.14579(11) -0.02606(12) 0.84211(9)
O3 O 0.50941(11) 0.25401(10) 0.73868(8)
O4 O 0.48618(12) 0.19837(12) 0.70269(8)
O5 O 0.15283(10) 0.07348(10) 0.93958(7)
O6 O 0.18242(11) 0.12468(12) 0.97852(7)
O7 O 0.47555(11) 0.31524(13) 0.79185(10)
O8 O 0.51660(11) 0.34757(14) 0.83519(8)
O9 O 0.13827(15) 0.07073(13) 1.04771(9)
O10 O 0.06863(11) 0.00745(13) 1.03884(7)
O11 O 0.08710(13) -0.04842(13) 1.30367(8)
O12 O 0.01588(13) -0.05324(11) 1.30058(8)
O13 O 0.07449(9) -0.01735(10) 0.96053(7)
O14 O 0.08852(9) 0.01095(9) 0.88295(7)
O15 O 0.06231(9) 0.05470(8) 0.85813(6)
O16 O 0.00441(9) -0.05779(9) 0.98653(7)
C1 C 0.18330(14) 0.00192(16) 0.85738(13)
C2 C 0.23051(7) 0.02828(9) 0.83837(6)
C3 C 0.27159(9) 0.06371(10) 0.85349(7)
H1 H 0.2705 0.0696 0.8748
C4 C 0.31438(8) 0.09030(12) 0.83682(9)
H2 H 0.3419 0.1140 0.8469
C5 C 0.31607(10) 0.08146(14) 0.80503(9)
C6 C 0.27499(13) 0.04603(14) 0.78991(7)
H3 H 0.2761 0.0401 0.7686
C7 C 0.23220(10) 0.01944(11) 0.80658(6)
H4 H 0.2047 -0.0043 0.7965
C8 C 0.36130(8) 0.11420(8) 0.78708(6)
C9 C 0.38965(10) 0.16242(8) 0.79570(6)
H5 H 0.3822 0.1739 0.8137
C10 C 0.42920(11) 0.19355(9) 0.77745(8)
H6 H 0.4482 0.2258 0.7832
C11 C 0.44039(11) 0.17646(12) 0.75058(8)
C12 C 0.41204(12) 0.12823(12) 0.74196(7)
H7 H 0.4195 0.1168 0.7240
C13 C 0.37250(10) 0.09711(9) 0.76020(6)
H8 H 0.3535 0.0648 0.7544
C14 C 0.48136(13) 0.21191(14) 0.72997(10)
C15 C 0.18511(13) 0.11476(14) 0.95093(10)
C16 C 0.22499(8) 0.14856(8) 0.93057(6)
C17 C 0.26122(10) 0.19193(9) 0.94294(6)
H9 H 0.2591 0.2003 0.9635
C18 C 0.30061(10) 0.22282(10) 0.92449(9)
H10 H 0.3249 0.2518 0.9328
C19 C 0.30375(12) 0.21034(13) 0.89368(9)
C20 C 0.26752(13) 0.16698(13) 0.88132(7)
H11 H 0.2696 0.1586 0.8607
C21 C 0.22813(11) 0.13609(10) 0.89976(6)
H12 H 0.2039 0.1071 0.8915
C22 C 0.34959(8) 0.24044(9) 0.87388(6)
C23 C 0.39399(9) 0.26794(12) 0.88863(7)
H13 H 0.3960 0.2681 0.9104
C24 C 0.43544(8) 0.29514(15) 0.87083(10)
H14 H 0.4652 0.3135 0.8807
C25 C 0.43248(11) 0.29485(16) 0.83828(9)
C26 C 0.38808(13) 0.26736(15) 0.82352(7)
H15 H 0.3861 0.2672 0.8017
C27 C 0.34663(10) 0.24015(12) 0.84132(6)
H16 H 0.3169 0.2218 0.8315
C28 C 0.47921(15) 0.32151(17) 0.82098(11)
C29 C 0.10154(15) 0.03451(18) 1.05690(12)
C30 C 0.09577(8) 0.01992(9) 1.09167(5)
C31 C 0.13115(9) 0.04878(11) 1.11327(6)
H17 H 0.1585 0.0769 1.1067
C32 C 0.12567(12) 0.03555(14) 1.14474(6)
H18 H 0.1493 0.0549 1.1592
C33 C 0.08481(14) -0.00654(14) 1.15459(5)
C34 C 0.04943(13) -0.03540(12) 1.13299(7)
H19 H 0.0221 -0.0636 1.1396
C35 C 0.05491(10) -0.02217(10) 1.10153(6)
H20 H 0.0312 -0.0415 1.0871
C36 C 0.07730(8) -0.01896(8) 1.18948(5)
C37 C 0.11656(8) -0.00672(13) 1.20908(6)
H21 H 0.1477 0.0081 1.2008
C38 C 0.10930(12) -0.01663(15) 1.24102(6)
H22 H 0.1356 -0.0084 1.2541
C39 C 0.06279(14) -0.03878(14) 1.25335(5)
C40 C 0.02353(11) -0.05102(14) 1.23374(7)
H23 H -0.0076 -0.0658 1.2420
C41 C 0.03079(8) -0.04112(12) 1.20180(6)
H24 H 0.0045 -0.0493 1.1887
C42 C 0.05439(18) -0.04683(17) 1.28835(11)
C43 C 0.08514(13) 0.04845(14) 0.87935(10)
H25 H 0.1011 0.0733 0.8938
C44 C 0.03457(15) -0.05259(14) 0.96557(12)
H26 H 0.0253 -0.0788 0.9522
Cd1 Cd 0.132040(7) -0.002960(10) 0.922650(9)
Cd2 Cd 0.122140(9) 0.050570(10) 0.994540(6)
Cd3 Cd 0.057660(9) -0.067420(9) 1.351870(6)
Cd4 Cd 0.0000 0.0000 1.016620(17)
Cd5 Cd 0.0000 0.0000 1.325030(13)
O9A O -0.07073(13) 0.06754(20) 1.04771(9)
O10A O -0.00745(13) 0.06118(17) 1.03884(7)
O11A O 0.04842(13) 0.13552(18) 1.30367(8)
O12A O 0.05324(11) 0.06912(17) 1.30058(8)
C29A C -0.03451(18) 0.06703(23) 1.05690(12)
C30A C -0.01992(9) 0.07585(12) 1.09167(5)
C31A C -0.04878(11) 0.08237(14) 1.11327(6)
H17A H -0.0769 0.0816 1.1067
C32A C -0.03555(14) 0.09012(18) 1.14474(6)
H18A H -0.0549 0.0944 1.1592
C33A C 0.00654(14) 0.09135(20) 1.15459(5)
C34A C 0.03540(12) 0.08483(18) 1.13299(7)
H19A H 0.0636 0.0857 1.1396
C35A C 0.02217(10) 0.07708(14) 1.10153(6)
H20A H 0.0415 0.0727 1.0871
C36A C 0.01896(8) 0.09626(11) 1.18948(5)
C37A C 0.00672(13) 0.12328(15) 1.20908(6)
H21A H -0.0081 0.1396 1.2008
C38A C 0.01663(15) 0.12593(19) 1.24102(6)
H22A H 0.0084 0.1440 1.2541
C39A C 0.03878(14) 0.10157(20) 1.25335(5)
C40A C 0.05102(14) 0.07455(18) 1.23374(7)
H23A H 0.0658 0.0582 1.2420
C41A C 0.04112(12) 0.07191(14) 1.20180(6)
H24A H 0.0493 0.0538 1.1887
C42A C 0.04683(17) 0.10122(25) 1.28835(11)
O9B O -0.06754(20) -0.13827(15) 1.04771(9)
O10B O -0.06118(17) -0.06863(11) 1.03884(7)
O11B O -0.13552(18) -0.08710(13) 1.30367(8)
O12B O -0.06912(17) -0.01588(13) 1.30058(8)
C29B C -0.06703(23) -0.10154(15) 1.05690(12)
C30B C -0.07585(12) -0.09577(8) 1.09167(5)
C31B C -0.08237(14) -0.13115(9) 1.11327(6)
H17B H -0.0816 -0.1585 1.1067
C32B C -0.09012(18) -0.12567(12) 1.14474(6)
H18B H -0.0944 -0.1493 1.1592
C33B C -0.09135(20) -0.08481(14) 1.15459(5)
C34B C -0.08483(18) -0.04943(13) 1.13299(7)
H19B H -0.0857 -0.0221 1.1396
C35B C -0.07708(14) -0.05491(10) 1.10153(6)
H20B H -0.0727 -0.0312 1.0871
C36B C -0.09626(11) -0.07730(8) 1.18948(5)
C37B C -0.12328(15) -0.11656(8) 1.20908(6)
H21B H -0.1396 -0.1477 1.2008
C38B C -0.12593(19) -0.10930(12) 1.24102(6)
H22B H -0.1440 -0.1356 1.2541
C39B C -0.10157(20) -0.06279(14) 1.25335(5)
C40B C -0.07455(18) -0.02353(11) 1.23374(7)
H23B H -0.0582 0.0076 1.2420
C41B C -0.07191(14) -0.03079(8) 1.20180(6)
H24B H -0.0538 -0.0045 1.1887
C42B C -0.10122(25) -0.05439(18) 1.28835(11)
O13A O 0.01735(10) 0.09184(13) 0.96053(7)
O16A O 0.05779(9) 0.06220(13) 0.98653(7)
C44A C 0.05259(14) 0.08716(21) 0.96557(12)
H26A H 0.0788 0.1041 0.9522
O13B O -0.09184(13) -0.07449(9) 0.96053(7)
O16B O -0.06220(13) -0.00441(9) 0.98653(7)
C44B C -0.08716(21) -0.03457(15) 0.96557(12)
H26B H -0.1041 -0.0253 0.9522
Cd1A Cd 0.002960(10) 0.135000(12) 0.922650(9)
Cd1B Cd -0.135000(12) -0.132040(7) 0.922650(9)
Cd2A Cd -0.050570(10) 0.071570(13) 0.994540(6)
Cd2B Cd -0.071570(13) -0.122140(9) 0.994540(6)
Cd3A Cd 0.067420(9) 0.125080(13) 1.351870(6)
Cd3B Cd -0.125080(13) -0.057660(9) 1.351870(6)
O1P O 0.15903(16) -0.32123(12) 1.05350(7)
O2P O 0.16148(16) -0.35939(12) 1.00878(9)
O3P O 0.07793(15) -0.07932(10) 0.90535(8)
O4P O 0.04552(17) -0.13496(12) 0.86936(8)
C1P C 0.15195(21) -0.33141(16) 1.02405(13)
C2P C 0.13110(11) -0.30505(9) 1.00504(6)
C3P C 0.12545(13) -0.26962(10) 1.02016(7)
H1P H 0.1324 -0.2637 1.0415
C4P C 0.10925(14) -0.24303(12) 1.00349(9)
H2P H 0.1054 -0.2193 1.0136
C5P C 0.09872(17) -0.25187(14) 0.97170(9)
C6P C 0.10437(19) -0.28730(14) 0.95658(7)
H3P H 0.0973 -0.2932 0.9353
C7P C 0.12057(15) -0.31389(11) 0.97325(6)
H4P H 0.1243 -0.3376 0.9632
C8P C 0.08623(11) -0.21913(8) 0.95375(6)
C9P C 0.10610(13) -0.17091(8) 0.96237(6)
H5P H 0.1250 -0.1594 0.9804
C10P C 0.09768(14) -0.13978(9) 0.94412(8)
H6P H 0.1109 -0.1075 0.9499
C11P C 0.06940(16) -0.15687(12) 0.91725(8)
C12P C 0.04952(17) -0.20510(12) 0.90863(7)
H7P H 0.0306 -0.2165 0.8907
C13P C 0.05794(13) -0.23622(9) 0.92687(6)
H8P H 0.0446 -0.2685 0.9211
C14P C 0.06388(19) -0.12142(14) 0.89664(10)
O5P O 0.25398(14) -0.25985(10) 1.10625(7)
O6P O 0.27559(16) -0.20865(12) 1.14519(7)
O7P O 0.17302(17) -0.01809(13) 0.95852(10)
O8P O 0.16430(18) 0.01424(14) 1.00186(8)
C15P C 0.26298(19) -0.21857(14) 1.11760(10)
C16P C 0.25690(11) -0.18477(8) 1.09724(6)
C17P C 0.26404(13) -0.14140(9) 1.10961(6)
H9P H 0.2745 -0.1330 1.1302
C18P C 0.25554(14) -0.11051(10) 1.09116(9)
H10P H 0.2602 -0.0815 1.0995
C19P C 0.23992(18) -0.12299(13) 1.06035(9)
C20P C 0.23279(18) -0.16635(13) 1.04799(7)
H11P H 0.2223 -0.1747 1.0274
C21P C 0.24129(15) -0.19724(10) 1.06643(6)
H12P H 0.2365 -0.2262 1.0582
C22P C 0.22418(12) -0.09289(9) 1.04055(6)
C23P C 0.20728(15) -0.06539(12) 1.05530(7)
H13P H 0.2054 -0.0652 1.0771
C24P C 0.19303(17) -0.03819(15) 1.03750(10)
H14P H 0.1816 -0.0198 1.0474
C25P C 0.19570(19) -0.03848(16) 1.00495(9)
C26P C 0.21261(20) -0.06597(15) 0.99019(7)
H15P H 0.2144 -0.0661 0.9684
C27P C 0.22685(16) -0.09318(12) 1.00799(6)
H16P H 0.2382 -0.1115 0.9982
C28P C 0.17563(23) -0.01182(17) 0.98765(11)
O1C O -0.01210(12) -0.18640(10) 1.38683(7)
O2C O 0.02606(12) -0.14579(11) 1.34211(9)
O3C O -0.25401(10) -0.50941(11) 1.23868(8)
O4C O -0.19837(12) -0.48618(12) 1.20269(8)
C1C C -0.00192(16) -0.18330(14) 1.35738(13)
C2C C -0.02828(9) -0.23051(7) 1.33837(6)
C3C C -0.06371(10) -0.27159(9) 1.35349(7)
H1C H -0.0696 -0.2705 1.3748
C4C C -0.09030(12) -0.31438(8) 1.33682(9)
H2C H -0.1140 -0.3419 1.3469
C5C C -0.08146(14) -0.31607(10) 1.30503(9)
C6C C -0.04603(14) -0.27499(13) 1.28991(7)
H3C H -0.0401 -0.2761 1.2686
C7C C -0.01944(11) -0.23220(10) 1.30658(6)
H4C H 0.0043 -0.2047 1.2965
C8C C -0.11420(8) -0.36130(8) 1.28708(6)
C9C C -0.16242(8) -0.38965(10) 1.29570(6)
H5C H -0.1739 -0.3822 1.3137
C10C C -0.19355(9) -0.42920(11) 1.27745(8)
H6C H -0.2258 -0.4482 1.2832
C11C C -0.17646(12) -0.44039(11) 1.25058(8)
C12C C -0.12823(12) -0.41204(12) 1.24196(7)
H7C H -0.1168 -0.4195 1.2240
C13C C -0.09711(9) -0.37250(10) 1.26020(6)
H8C H -0.0648 -0.3535 1.2544
C14C C -0.21191(14) -0.48136(13) 1.22997(10)
O14C O -0.01095(9) -0.08852(9) 1.38295(7)
O15C O -0.05470(8) -0.06231(9) 1.35813(6)
C43C C -0.04845(14) -0.08514(13) 1.37935(10)
H25C H -0.0733 -0.1011 1.3938
O14E O 0.08852(9) 0.07757(13) 1.38295(7)
O15E O 0.06231(9) 0.00761(12) 1.35813(6)
C43E C 0.08514(13) 0.03669(19) 1.37935(10)
H25E H 0.1011 0.0278 1.3938
O5A O -0.07348(10) 0.07935(14) 0.93958(7)
O6A O -0.12468(12) 0.05774(16) 0.97852(7)
O7A O -0.31524(13) 0.16031(17) 0.79185(10)
O8A O -0.34757(14) 0.16903(18) 0.83519(8)
C15A C -0.11476(14) 0.07035(19) 0.95093(10)
C16A C -0.14856(8) 0.07643(11) 0.93057(6)
C17A C -0.19193(9) 0.06929(13) 0.94294(6)
H9A H -0.2003 0.0588 0.9635
C18A C -0.22282(10) 0.07779(14) 0.92449(9)
H10A H -0.2518 0.0731 0.9328
C19A C -0.21034(13) 0.09341(18) 0.89368(9)
C20A C -0.16698(13) 0.10054(18) 0.88132(7)
H11A H -0.1586 0.1110 0.8607
C21A C -0.13609(10) 0.09204(15) 0.89976(6)
H12A H -0.1071 0.0968 0.8915
C22A C -0.24044(9) 0.10915(12) 0.87388(6)
C23A C -0.26794(12) 0.12605(15) 0.88863(7)
H13A H -0.2681 0.1279 0.9104
C24A C -0.29514(15) 0.14030(17) 0.87083(10)
H14A H -0.3135 0.1517 0.8807
C25A C -0.29485(16) 0.13763(19) 0.83828(9)
C26A C -0.26736(15) 0.12072(20) 0.82352(7)
H15A H -0.2672 0.1189 0.8017
C27A C -0.24015(12) 0.10648(16) 0.84132(6)
H16A H -0.2218 0.0951 0.8315
C28A C -0.32151(17) 0.15770(23) 0.82098(11)
Cd3C Cd 0.067420(9) -0.057660(9) 0.851870(6)
Cd1J Cd 0.531667(12) 0.330373(10) 0.755983(9)
Cd3H Cd 0.541587(13) 0.275673(9) 0.685203(6)
Cd2J Cd 0.595097(13) 0.383903(10) 0.827873(6)
Cd3E Cd 0.057660(9) 0.125080(13) 0.851870(6)
Cd5C Cd 0.0000 0.0000 0.825030(13)
O3M O 0.07932(10) -0.07793(15) 1.40535(8)
O4M O 0.13496(12) -0.04552(17) 1.36936(8)
O15D O -0.00761(12) 0.05470(8) 1.35813(6)
O1A O -0.01210(12) 0.17430(16) 0.88683(7)
O3O O 0.07932(10) 0.15726(11) 0.90535(8)
O7O O 0.01809(13) 0.19112(11) 0.95852(10)
O14A O -0.01095(9) 0.07757(13) 0.88295(7)
O1B O -0.17430(16) -0.18640(10) 0.88683(7)
O3Q O -0.15726(11) -0.07793(15) 0.90535(8)
O5B O -0.07935(14) -0.15283(10) 0.93958(7)
O7Q O -0.19112(11) -0.17302(17) 0.95852(10)
O14B O -0.07757(13) -0.08852(9) 0.88295(7)
O8O O -0.01424(14) 0.15007(11) 1.00186(8)
O6B O -0.05774(16) -0.18242(11) 0.97852(7)
O8Q O -0.15007(11) -0.16430(18) 1.00186(8)
O2E O 0.14579(11) 0.17185(16) 1.34211(9)
O3N O 0.07793(15) 0.15726(11) 1.40535(8)
O4N O 0.04552(17) 0.18049(12) 1.36936(8)
O2D O -0.17185(16) -0.02606(12) 1.34211(9)
O3L O -0.15726(11) -0.07932(10) 1.40535(8)
O4L O -0.18049(12) -0.13496(12) 1.36936(8)
O14D O -0.07757(13) 0.01095(9) 1.38295(7)
Cd1P Cd 0.198333(12) -0.336293(10) 1.089317(9)
Cd3N Cd 0.208253(13) -0.390993(9) 1.018537(6)
Cd2P Cd 0.261763(13) -0.282763(10) 1.161207(6)
Cd1C Cd 0.002960(10) -0.132040(7) 1.422650(9)
Cd1G Cd -0.330373(10) -0.531667(12) 1.255983(9)
Cd3K Cd -0.275673(9) -0.541587(13) 1.185203(6)
Cd1E Cd 0.132040(7) 0.135000(12) 1.422650(9)
Cd1I Cd -0.330373(10) 0.201293(7) 0.755983(9)
Cd2I Cd -0.383903(10) 0.211193(9) 0.827873(6)
loop_
_geom_bond_atom_site_label_1
_geom_bond_atom_site_label_2
_geom_bond_site_symmetry_1
_geom_bond_site_symmetry_2
O1 C1 1_555 1_555
O2 C1 1_555 1_555
O3 C14 1_555 1_555
O4 C14 1_555 1_555
O5 C15 1_555 1_555
O6 C15 1_555 1_555
O7 C28 1_555 1_555
O8 C28 1_555 1_555
O9 C29 1_555 1_555
O10 C29 1_555 1_555
O11 C42 1_555 1_555
O12 C42 1_555 1_555
O13 C44 1_555 1_555
O14 C43 1_555 1_555
O15 C43 1_555 1_555
O16 C44 1_555 1_555
C1 C2 1_555 1_555
C2 C3 1_555 1_555
C3 H1 1_555 1_555
C4 C3 1_555 1_555
H2 C4 1_555 1_555
C5 C4 1_555 1_555
C6 C5 1_555 1_555
H3 C6 1_555 1_555
C7 C2 1_555 1_555
H4 C7 1_555 1_555
C8 C5 1_555 1_555
C9 C8 1_555 1_555
H5 C9 1_555 1_555
C10 C9 1_555 1_555
H6 C10 1_555 1_555
C11 C10 1_555 1_555
C12 C11 1_555 1_555
H7 C12 1_555 1_555
C13 C8 1_555 1_555
H8 C13 1_555 1_555
C14 C11 1_555 1_555
C15 C16 1_555 1_555
C16 C17 1_555 1_555
C17 H9 1_555 1_555
C18 C17 1_555 1_555
H10 C18 1_555 1_555
C19 C18 1_555 1_555
C20 C19 1_555 1_555
H11 C20 1_555 1_555
C21 C16 1_555 1_555
H12 C21 1_555 1_555
C22 C19 1_555 1_555
C23 C22 1_555 1_555
H13 C23 1_555 1_555
C24 C23 1_555 1_555
H14 C24 1_555 1_555
C25 C24 1_555 1_555
C26 C25 1_555 1_555
H15 C26 1_555 1_555
C27 C22 1_555 1_555
H16 C27 1_555 1_555
C28 C25 1_555 1_555
C29 C30 1_555 1_555
C30 C31 1_555 1_555
C31 H17 1_555 1_555
C32 C31 1_555 1_555
H18 C32 1_555 1_555
C33 C32 1_555 1_555
C34 C33 1_555 1_555
H19 C34 1_555 1_555
C35 C30 1_555 1_555
H20 C35 1_555 1_555
C36 C33 1_555 1_555
C37 C36 1_555 1_555
H21 C37 1_555 1_555
C38 C37 1_555 1_555
H22 C38 1_555 1_555
C39 C38 1_555 1_555
C40 C39 1_555 1_555
H23 C40 1_555 1_555
C41 C36 1_555 1_555
H24 C41 1_555 1_555
C42 C39 1_555 1_555
C43 H25 1_555 1_555
C44 H26 1_555 1_555
Cd1 O1 1_555 1_555
Cd2 O6 1_555 1_555
Cd3 O11 1_555 1_555
Cd4 O10 1_555 1_555
Cd5 O12 1_555 1_555
O9A C29A 1_555 1_555
O10A Cd4 1_555 1_555
O11A C42A 1_555 1_555
O12A Cd5 1_555 1_555
C29A O10A 1_555 1_555
C30A C29A 1_555 1_555
C31A C30A 1_555 1_555
H17A C31A 1_555 1_555
C32A C31A 1_555 1_555
H18A C32A 1_555 1_555
C33A C32A 1_555 1_555
C34A C33A 1_555 1_555
H19A C34A 1_555 1_555
C35A C30A 1_555 1_555
H20A C35A 1_555 1_555
C36A C33A 1_555 1_555
C37A C36A 1_555 1_555
H21A C37A 1_555 1_555
C38A C37A 1_555 1_555
H22A C38A 1_555 1_555
C39A C38A 1_555 1_555
C40A C39A 1_555 1_555
H23A C40A 1_555 1_555
C41A C36A 1_555 1_555
H24A C41A 1_555 1_555
C42A O12A 1_555 1_555
O9B C29B 1_555 1_555
O10B Cd4 1_555 1_555
O11B C42B 1_555 1_555
O12B Cd5 1_555 1_555
C29B O10B 1_555 1_555
C30B C29B 1_555 1_555
C31B C30B 1_555 1_555
H17B C31B 1_555 1_555
C32B C31B 1_555 1_555
H18B C32B 1_555 1_555
C33B C32B 1_555 1_555
C34B C33B 1_555 1_555
H19B C34B 1_555 1_555
C35B C30B 1_555 1_555
H20B C35B 1_555 1_555
C36B C33B 1_555 1_555
C37B C36B 1_555 1_555
H21B C37B 1_555 1_555
C38B C37B 1_555 1_555
H22B C38B 1_555 1_555
C39B C38B 1_555 1_555
C40B C39B 1_555 1_555
H23B C40B 1_555 1_555
C41B C36B 1_555 1_555
H24B C41B 1_555 1_555
C42B O12B 1_555 1_555
O13A C44A 1_555 1_555
O16A Cd2 1_555 1_555
C44A O16A 1_555 1_555
H26A C44A 1_555 1_555
O13B C44B 1_555 1_555
O16B Cd4 1_555 1_555
C44B O16B 1_555 1_555
H26B C44B 1_555 1_555
Cd1A O13A 1_555 1_555
Cd1B O13B 1_555 1_555
Cd2A O9A 1_555 1_555
Cd2B O16 1_555 1_555
Cd3A O11A 1_555 1_555
Cd3B O11B 1_555 1_555
O1P C1P 1_555 1_555
O2P C1P 1_555 1_555
O3P Cd1 1_555 1_555
O4P C14P 1_555 1_555
C1P C2P 1_555 1_555
C2P C3P 1_555 1_555
C3P H1P 1_555 1_555
C4P C3P 1_555 1_555
H2P C4P 1_555 1_555
C5P C4P 1_555 1_555
C6P C5P 1_555 1_555
H3P C6P 1_555 1_555
C7P C2P 1_555 1_555
H4P C7P 1_555 1_555
C8P C5P 1_555 1_555
C9P C8P 1_555 1_555
H5P C9P 1_555 1_555
C10P C9P 1_555 1_555
H6P C10P 1_555 1_555
C11P C10P 1_555 1_555
C12P C11P 1_555 1_555
H7P C12P 1_555 1_555
C13P C8P 1_555 1_555
H8P C13P 1_555 1_555
C14P O3P 1_555 1_555
O5P C15P 1_555 1_555
O6P C15P 1_555 1_555
O7P Cd1 1_555 1_555
O8P Cd2 1_555 1_555
C15P C16P 1_555 1_555
C16P C17P 1_555 1_555
C17P H9P 1_555 1_555
C18P C17P 1_555 1_555
H10P C18P 1_555 1_555
C19P C18P 1_555 1_555
C20P C19P 1_555 1_555
H11P C20P 1_555 1_555
C21P C16P 1_555 1_555
H12P C21P 1_555 1_555
C22P C19P 1_555 1_555
C23P C22P 1_555 1_555
H13P C23P 1_555 1_555
C24P C23P 1_555 1_555
H14P C24P 1_555 1_555
C25P C24P 1_555 1_555
C26P C25P 1_555 1_555
H15P C26P 1_555 1_555
C27P C22P 1_555 1_555
H16P C27P 1_555 1_555
C28P O7P 1_555 1_555
O1C C1C 1_555 1_555
O2C Cd3 1_555 1_555
O3C C14C 1_555 1_555
O4C C14C 1_555 1_555
C1C O2C 1_555 1_555
C2C C1C 1_555 1_555
C3C C2C 1_555 1_555
H1C C3C 1_555 1_555
C4C C3C 1_555 1_555
H2C C4C 1_555 1_555
C5C C4C 1_555 1_555
C6C C5C 1_555 1_555
H3C C6C 1_555 1_555
C7C C2C 1_555 1_555
H4C C7C 1_555 1_555
C8C C5C 1_555 1_555
C9C C8C 1_555 1_555
H5C C9C 1_555 1_555
C10C C9C 1_555 1_555
H6C C10C 1_555 1_555
C11C C10C 1_555 1_555
C12C C11C 1_555 1_555
H7C C12C 1_555 1_555
C13C C8C 1_555 1_555
H8C C13C 1_555 1_555
C14C C11C 1_555 1_555
O14C Cd3 1_555 1_555
O15C Cd5 1_555 1_555
C43C O14C 1_555 1_555
H25C C43C 1_555 1_555
O14E Cd3A 1_555 1_555
O15E Cd3 1_555 1_555
C43E O14E 1_555 1_555
H25E C43E 1_555 1_555
O5A Cd1A 1_555 1_555
O6A Cd2A 1_555 1_555
O7A C28A 1_555 1_555
O8A C28A 1_555 1_555
C15A O5A 1_555 1_555
C16A C15A 1_555 1_555
C17A C16A 1_555 1_555
H9A C17A 1_555 1_555
C18A C17A 1_555 1_555
H10A C18A 1_555 1_555
C19A C18A 1_555 1_555
C20A C19A 1_555 1_555
H11A C20A 1_555 1_555
C21A C16A 1_555 1_555
H12A C21A 1_555 1_555
C22A C19A 1_555 1_555
C23A C22A 1_555 1_555
H13A C23A 1_555 1_555
C24A C23A 1_555 1_555
H14A C24A 1_555 1_555
C25A C24A 1_555 1_555
C26A C25A 1_555 1_555
H15A C26A 1_555 1_555
C27A C22A 1_555 1_555
H16A C27A 1_555 1_555
C28A C25A 1_555 1_555
Cd3C O2 1_555 1_555
Cd1J O3 1_555 1_555
Cd3H O3 1_555 1_555
Cd2J O8 1_555 1_555
Cd3E O15 1_555 1_555
Cd5C O15 1_555 1_555
O3M Cd3 1_555 1_555
O4M Cd3 1_555 1_555
O15D Cd5 1_555 1_555
O1A Cd1A 1_555 1_555
O3O Cd1A 1_555 1_555
O7O Cd1A 1_555 1_555
O14A Cd1A 1_555 1_555
O1B Cd1B 1_555 1_555
O3Q Cd1B 1_555 1_555
O5B Cd1B 1_555 1_555
O7Q Cd1B 1_555 1_555
O14B Cd1B 1_555 1_555
O8O Cd2A 1_555 1_555
O6B Cd2B 1_555 1_555
O8Q Cd2B 1_555 1_555
O2E Cd3A 1_555 1_555
O3N Cd3A 1_555 1_555
O4N Cd3A 1_555 1_555
O2D Cd3B 1_555 1_555
O3L Cd3B 1_555 1_555
O4L Cd3B 1_555 1_555
O14D Cd3B 1_555 1_555
Cd1P O1P 1_555 1_555
Cd3N O2P 1_555 1_555
Cd2P O6P 1_555 1_555
Cd1C O1C 1_555 1_555
Cd1G O3C 1_555 1_555
Cd3K O3C 1_555 1_555
Cd1E O14E 1_555 1_555
Cd1I O7A 1_555 1_555
Cd2I O8A 1_555 1_555
O4 Cd3H 1_555 1_555
O5 Cd1 1_555 1_555
O7 Cd1J 1_555 1_555
O9 Cd2 1_555 1_555
O10 Cd2 1_555 1_555
O13 Cd1 1_555 1_555
O13 Cd2 1_555 1_555
O14 Cd1 1_555 1_555
O14 Cd3C 1_555 1_555
O16 Cd4 1_555 1_555
C6 C7 1_555 1_555
C12 C13 1_555 1_555
C20 C21 1_555 1_555
C26 C27 1_555 1_555
C34 C35 1_555 1_555
C40 C41 1_555 1_555
Cd4 O16A 1_555 1_555
Cd5 O15E 1_555 1_555
O10A Cd2A 1_555 1_555
C34A C35A 1_555 1_555
C39A C42A 1_555 1_555
C40A C41A 1_555 1_555
O9B Cd2B 1_555 1_555
O10B Cd2B 1_555 1_555
C34B C35B 1_555 1_555
C39B C42B 1_555 1_555
C40B C41B 1_555 1_555
O13A Cd2A 1_555 1_555
O13B Cd2B 1_555 1_555
O16B Cd2A 1_555 1_555
Cd3A O15D 1_555 1_555
Cd3B O15C 1_555 1_555
O3P Cd3C 1_555 1_555
O4P Cd3C 1_555 1_555
C6P C7P 1_555 1_555
C11P C14P 1_555 1_555
C12P C13P 1_555 1_555
O5P Cd1P 1_555 1_555
O8P C28P 1_555 1_555
C20P C21P 1_555 1_555
C25P C28P 1_555 1_555
C26P C27P 1_555 1_555
O4C Cd3K 1_555 1_555
C6C C7C 1_555 1_555
C12C C13C 1_555 1_555
O14C Cd1C 1_555 1_555
O15C C43C 1_555 1_555
O15E C43E 1_555 1_555
O6A C15A 1_555 1_555
C20A C21A 1_555 1_555
C26A C27A 1_555 1_555
Cd3E O3O 1_555 1_555
Cd3E O14A 1_555 1_555
O3M Cd1C 1_555 1_555
O3N Cd1E 1_555 1_555

#END
