
#######################################################################
#
#                 Cambridge Crystallographic Data Centre
#                                CCDC 
#
#######################################################################
#
# If this CIF has been generated from an entry in the Cambridge 
# Structural Database, then it will include bibliographic, chemical, 
# crystal, experimental, refinement or atomic coordinate data resulting 
# from the CCDC's data processing and validation procedures.
#
#######################################################################

data_RETBEZ
_symmetry_cell_setting           orthorhombic
_symmetry_space_group_name_H-M   'P c c a'
_symmetry_Int_Tables_number      54
_space_group_name_Hall           '-P 2a 2ac'
loop_
_symmetry_equiv_pos_site_id
_symmetry_equiv_pos_as_xyz
1 x,y,z
2 1/2-x,-y,z
3 1/2+x,-y,1/2-z
4 -x,y,1/2-z
5 -x,-y,-z
6 1/2+x,y,-z
7 1/2-x,y,1/2+z
8 x,-y,1/2+z
_cell_length_a                   25.161(3)
_cell_length_b                   11.253(2)
_cell_length_c                   18.172(3)
_cell_angle_alpha                90
_cell_angle_beta                 90
_cell_angle_gamma                90
_cell_volume                     5145.16
loop_
_atom_site_label
_atom_site_type_symbol
_atom_site_fract_x
_atom_site_fract_y
_atom_site_fract_z
Zn1 Zn -0.02537(2) 0.37973(4) 0.07359(3)
Zn2 Zn 0.2500 1.0000 0.29015(4)
C1 C 0.0636(2) 0.5636(4) 0.0708(3)
C2 C 0.0911(2) 0.6023(4) 0.1393(2)
C3 C 0.0764(2) 0.5506(4) 0.2063(2)
H1 H 0.0513 0.4899 0.2072
C4 C 0.0989(2) 0.5894(4) 0.2706(3)
C5 C 0.1369(2) 0.6786(4) 0.2691(3)
H2 H 0.1520 0.7049 0.3129
C6 C 0.1527(2) 0.7288(4) 0.2031(3)
C7 C 0.1293(2) 0.6909(4) 0.1385(3)
H3 H 0.1392 0.7252 0.0940
C8 C 0.1933(2) 0.8273(4) 0.2037(4)
C9 C 0.0820(3) 0.5362(5) 0.3423(3)
C10 C 0.0313(2) 0.1442(4) 0.0677(2)
C11 C 0.0747(2) 0.1849(4) 0.0278(3)
H4 H 0.0781 0.2645 0.0149
C12 C 0.1128(2) 0.1022(5) 0.0080(3)
H5 H 0.1430 0.1269 -0.0171
C13 C 0.1063(3) -0.0191(5) 0.0254(3)
H6 H 0.1325 -0.0727 0.0111
C14 C 0.0632(2) -0.0601(4) 0.0622(3)
H7 H 0.0589 -0.1406 0.0720
C15 C 0.0256(2) 0.0239(4) 0.0850(2)
C16 C -0.04081(19) 0.1259(4) 0.1334(2)
C17 C -0.0871(2) 0.1508(4) 0.1809(3)
C18 C -0.1355(2) 0.0963(4) 0.1713(3)
H8 H -0.1402 0.0474 0.1306
C19 C -0.0811(2) 0.2261(4) 0.2416(3)
H9 H -0.0492 0.2655 0.2498
C20 C -0.1228(2) 0.2406(5) 0.2885(3)
H10 H -0.1198 0.2908 0.3289
C21 C -0.1696(2) 0.1805(5) 0.2755(3)
H11 H -0.1975 0.1897 0.3086
C22 C -0.0407(2) -0.0962(4) 0.1588(3)
H12 H -0.0243 -0.1635 0.1345
H13 H -0.0788 -0.1015 0.1510
C23 C -0.0292(2) -0.1028(4) 0.2411(2)
H14 H -0.0458 -0.0356 0.2653
H15 H -0.0451 -0.1746 0.2608
N1 N -0.01081(16) 0.2062(3) 0.09902(19)
N2 N -0.02083(17) 0.0144(3) 0.12540(19)
N3 N -0.17639(18) 0.1104(4) 0.2182(2)
O1 O 0.04409(14) 0.4612(3) 0.06675(18)
O2 O 0.06125(15) 0.6394(3) 0.01967(17)
O3 O 0.20621(16) 0.8629(3) 0.2670(2)
O4 O 0.21173(19) 0.8649(4) 0.1450(3)
O5 O 0.0962(3) 0.5796(5) 0.4008(3)
O6 O 0.05223(17) 0.4476(3) 0.33804(19)
O7 O 0.2500 1.0000 0.4014(3)
H16 H 0.2322(18) 0.941(3) 0.4201(7)
C10C C -0.0313(2) 0.1442(4) 0.4323(2)
C11C C -0.0747(2) 0.1849(4) 0.4722(3)
H4C H -0.0781 0.2645 0.4851
C12C C -0.1128(2) 0.1022(5) 0.4920(3)
H5C H -0.1430 0.1269 0.5171
C13C C -0.1063(3) -0.0191(5) 0.4746(3)
H6C H -0.1325 -0.0727 0.4889
C14C C -0.0632(2) -0.0601(4) 0.4378(3)
H7C H -0.0589 -0.1406 0.4280
C15C C -0.0256(2) 0.0239(4) 0.4150(2)
C16C C 0.04081(19) 0.1259(4) 0.3666(2)
C17C C 0.0871(2) 0.1508(4) 0.3191(3)
C18C C 0.1355(2) 0.0963(4) 0.3287(3)
H8C H 0.1402 0.0474 0.3694
C19C C 0.0811(2) 0.2261(4) 0.2584(3)
H9C H 0.0492 0.2655 0.2502
C20C C 0.1228(2) 0.2406(5) 0.2115(3)
H10C H 0.1198 0.2908 0.1711
C21C C 0.1696(2) 0.1805(5) 0.2245(3)
H11C H 0.1975 0.1897 0.1914
C22C C 0.0407(2) -0.0962(4) 0.3412(3)
H12C H 0.0243 -0.1635 0.3655
H13C H 0.0788 -0.1015 0.3490
C23C C 0.0292(2) -0.1028(4) 0.2589(2)
H14C H 0.0458 -0.0356 0.2347
H15C H 0.0451 -0.1746 0.2392
N1C N 0.01081(16) 0.2062(3) 0.40098(19)
N2C N 0.02083(17) 0.0144(3) 0.37460(19)
N3C N 0.17639(18) 0.1104(4) 0.2818(2)
H16A H 0.2678(18) 1.059(3) 0.4201(7)
Zn1D Zn 0.02537(2) 0.62027(4) -0.07359(3)
C1D C -0.0636(2) 0.4364(4) -0.0708(3)
C2D C -0.0911(2) 0.3977(4) -0.1393(2)
C3D C -0.0764(2) 0.4494(4) -0.2063(2)
H1D H -0.0513 0.5101 -0.2072
C4D C -0.0989(2) 0.4106(4) -0.2706(3)
C5D C -0.1369(2) 0.3214(4) -0.2691(3)
H2D H -0.1520 0.2951 -0.3129
C6D C -0.1527(2) 0.2712(4) -0.2031(3)
C7D C -0.1293(2) 0.3091(4) -0.1385(3)
H3D H -0.1392 0.2748 -0.0940
C8D C -0.1933(2) 0.1727(4) -0.2037(4)
C9D C -0.0820(3) 0.4638(5) -0.3423(3)
O1D O -0.04409(14) 0.5388(3) -0.06675(18)
O2D O -0.06125(15) 0.3606(3) -0.01967(17)
O3D O -0.20621(16) 0.1371(3) -0.2670(2)
O4D O -0.21173(19) 0.1351(4) -0.1450(3)
O5D O -0.0962(3) 0.4204(5) -0.4008(3)
O6D O -0.05223(17) 0.5524(3) -0.33804(19)
Zn1C Zn 0.02537(2) 0.37973(4) 0.42641(3)
Zn1G Zn -0.02537(2) 0.62027(4) -0.42641(3)
Zn2_2 Zn 0.2500 0.0000 0.29015(4)
Zn2B Zn -0.2500 0.0000 0.20985(4)
Zn2D Zn -0.2500 0.0000 -0.29015(4)
N1D N 0.01081(16) 0.7938(3) -0.09902(19)
N3B N 0.32361(18) 0.8896(4) 0.2818(2)
N3C_2 N 0.17639(18) 1.1104(4) 0.2818(2)
O3A O 0.29379(16) 1.1371(3) 0.2670(2)
O6C O -0.05223(17) 0.4476(3) 0.16196(19)
O6G O 0.05223(17) 0.5524(3) -0.16196(19)
O8 O 0.2643(4) 0.8198(7) 0.4977(4)
H17 H 0.2913(19) 0.791(6) 0.479(3)
loop_
_geom_bond_atom_site_label_1
_geom_bond_atom_site_label_2
_geom_bond_site_symmetry_1
_geom_bond_site_symmetry_2
Zn1 N1 1_555 1_555
Zn2 O3 1_555 1_555
C1 C2 1_555 1_555
C2 C3 1_555 1_555
C3 H1 1_555 1_555
C4 C3 1_555 1_555
C5 C4 1_555 1_555
H2 C5 1_555 1_555
C6 C5 1_555 1_555
C7 C2 1_555 1_555
H3 C7 1_555 1_555
C8 C6 1_555 1_555
C9 C4 1_555 1_555
C10 C11 1_555 1_555
C11 H4 1_555 1_555
C12 C11 1_555 1_555
H5 C12 1_555 1_555
C13 C12 1_555 1_555
H6 C13 1_555 1_555
C14 C13 1_555 1_555
H7 C14 1_555 1_555
C15 C10 1_555 1_555
C16 C17 1_555 1_555
C17 C18 1_555 1_555
C18 H8 1_555 1_555
C19 C17 1_555 1_555
H9 C19 1_555 1_555
C20 C19 1_555 1_555
H10 C20 1_555 1_555
C21 C20 1_555 1_555
H11 C21 1_555 1_555
C22 H12 1_555 1_555
H13 C22 1_555 1_555
C23 C22 1_555 1_555
H14 C23 1_555 1_555
H15 C23 1_555 1_555
N1 C10 1_555 1_555
N2 C15 1_555 1_555
N3 C18 1_555 1_555
O1 Zn1 1_555 1_555
O2 C1 1_555 1_555
O3 C8 1_555 1_555
O4 C8 1_555 1_555
O5 C9 1_555 1_555
O6 C9 1_555 1_555
O7 Zn2 1_555 1_555
H16 O7 1_555 1_555
O8 H17 1_555 1_555
C10C C11C 1_555 1_555
C11C H4C 1_555 1_555
C12C C11C 1_555 1_555
H5C C12C 1_555 1_555
C13C C12C 1_555 1_555
H6C C13C 1_555 1_555
C14C C13C 1_555 1_555
H7C C14C 1_555 1_555
C15C C10C 1_555 1_555
C16C C17C 1_555 1_555
C17C C18C 1_555 1_555
C18C H8C 1_555 1_555
C19C C17C 1_555 1_555
H9C C19C 1_555 1_555
C20C C19C 1_555 1_555
H10C C20C 1_555 1_555
C21C C20C 1_555 1_555
H11C C21C 1_555 1_555
C22C H12C 1_555 1_555
H13C C22C 1_555 1_555
C23C C23 1_555 1_555
H14C C23C 1_555 1_555
H15C C23C 1_555 1_555
N1C C10C 1_555 1_555
N2C C15C 1_555 1_555
N3C C18C 1_555 1_555
H16A O7 1_555 1_555
Zn1D O2 1_555 1_555
C1D C2D 1_555 1_555
C2D C3D 1_555 1_555
C3D H1D 1_555 1_555
C4D C3D 1_555 1_555
C5D C4D 1_555 1_555
H2D C5D 1_555 1_555
C6D C5D 1_555 1_555
C7D C2D 1_555 1_555
H3D C7D 1_555 1_555
C8D C6D 1_555 1_555
C9D C4D 1_555 1_555
O1D Zn1D 1_555 1_555
O2D Zn1 1_555 1_555
O3D C8D 1_555 1_555
O4D C8D 1_555 1_555
O5D C9D 1_555 1_555
O6D C9D 1_555 1_555
Zn1C O6 1_555 1_555
Zn1G O6D 1_555 1_555
Zn2_2 N3C 1_555 1_555
Zn2B N3 1_555 1_555
Zn2D O3D 1_555 1_555
N1D Zn1D 1_555 1_555
N3B Zn2 1_555 1_555
N3C_2 Zn2 1_555 1_555
O3A Zn2 1_555 1_555
O6C Zn1 1_555 1_555
O6G Zn1D 1_555 1_555
C1 O1 1_555 1_555
C6 C7 1_555 1_555
C14 C15 1_555 1_555
C16 N1 1_555 1_555
C16 N2 1_555 1_555
C21 N3 1_555 1_555
C22 N2 1_555 1_555
C14C C15C 1_555 1_555
C16C N1C 1_555 1_555
C16C N2C 1_555 1_555
C21C N3C 1_555 1_555
C22C C23C 1_555 1_555
C22C N2C 1_555 1_555
N1C Zn1C 1_555 1_555
C1D O1D 1_555 1_555
C1D O2D 1_555 1_555
C6D C7D 1_555 1_555

#END
