
#######################################################################
#
#                 Cambridge Crystallographic Data Centre
#                                CCDC 
#
#######################################################################
#
# If this CIF has been generated from an entry in the Cambridge 
# Structural Database, then it will include bibliographic, chemical, 
# crystal, experimental, refinement or atomic coordinate data resulting 
# from the CCDC's data processing and validation procedures.
#
#######################################################################

data_REYCOP
_symmetry_cell_setting           monoclinic
_symmetry_space_group_name_H-M   'P 21/c'
_symmetry_Int_Tables_number      14
_space_group_name_Hall           '-P 2ybc'
loop_
_symmetry_equiv_pos_site_id
_symmetry_equiv_pos_as_xyz
1 x,y,z
2 -x,1/2+y,1/2-z
3 -x,-y,-z
4 x,1/2-y,1/2+z
_cell_length_a                   9.3898(7)
_cell_length_b                   19.8601(14)
_cell_length_c                   17.9499(11)
_cell_angle_alpha                90
_cell_angle_beta                 110.534(3)
_cell_angle_gamma                90
_cell_volume                     3134.66
loop_
_atom_site_label
_atom_site_type_symbol
_atom_site_fract_x
_atom_site_fract_y
_atom_site_fract_z
C1 C 1.3929(5) 0.1575(2) 0.1880(3)
C2 C 1.4402(5) 0.1671(2) 0.1172(2)
C3 C 1.3603(5) 0.2106(2) 0.0559(2)
H1 H 1.2748 0.2330 0.0581
C4 C 1.4073(5) 0.2208(2) -0.0081(2)
C5 C 1.3203(5) 0.2685(2) -0.0727(3)
C6 C 1.5312(6) 0.1848(2) -0.0140(3)
H2 H 1.5613 0.1906 -0.0577
C7 C 1.6082(6) 0.1406(3) 0.0464(3)
C8 C 1.5649(5) 0.1324(2) 0.1122(3)
H3 H 1.6195 0.1035 0.1530
C9 C 1.7675(7) 0.1022(3) -0.0235(3)
H4 H 1.8062 0.1460 -0.0307
H5 H 1.6786 0.0922 -0.0698
C10 C 1.8876(6) 0.0490(3) -0.0126(3)
C11 C 2.0406(6) 0.0676(3) 0.0091(3)
H6 H 2.0684 0.1128 0.0151
C12 C 1.8502(6) -0.0180(3) -0.0217(3)
H7 H 1.7485 -0.0305 -0.0366
C13 C 0.9670(6) 0.2621(3) 0.1608(3)
H8 H 1.0062 0.2418 0.1254
C14 C 0.8543(7) 0.3093(3) 0.1317(4)
H9 H 0.8180 0.3197 0.0778
C15 C 0.7946(6) 0.3413(3) 0.1826(4)
C16 C 0.8487(8) 0.3213(3) 0.2601(4)
H10 H 0.8094 0.3400 0.2963
C17 C 0.9621(7) 0.2732(3) 0.2851(4)
H11 H 0.9975 0.2606 0.3384
C18 C 0.6813(7) 0.3967(3) 0.1539(5)
H12 H 0.7344 0.4388 0.1552
H13 H 0.6178 0.3879 0.0991
C19 C 0.5051(7) 0.4678(3) 0.1892(5)
H14 H 0.4433 0.4722 0.1334
H15 H 0.5787 0.5042 0.2031
C20 C 0.4064(6) 0.4725(3) 0.2385(4)
H16 H 0.4689 0.4690 0.2943
H17 H 0.3562 0.5160 0.2301
C21 C 0.3712(6) 0.3543(3) 0.2317(4)
H18 H 0.2967 0.3183 0.2170
H19 H 0.4320 0.3492 0.2876
C22 C 0.4724(7) 0.3497(3) 0.1822(4)
H20 H 0.5237 0.3065 0.1912
H21 H 0.4106 0.3528 0.1262
C23 C 0.1960(6) 0.4227(3) 0.2654(4)
H22 H 0.2596 0.4235 0.3213
H23 H 0.1357 0.3819 0.2562
C24 C 0.0901(6) 0.4821(2) 0.2489(3)
C25 C 0.0509(7) 0.5199(3) 0.1804(4)
H24 H 0.0914 0.5093 0.1414
C26 C -0.0481(7) 0.5736(3) 0.1691(3)
H25 H -0.0726 0.5982 0.1223
C27 C -0.0761(7) 0.5540(3) 0.2871(3)
H26 H -0.1205 0.5651 0.3243
C28 C 0.0206(8) 0.4997(3) 0.3027(3)
H27 H 0.0394 0.4749 0.3492
N1 N 1.0231(4) 0.2440(2) 0.2366(2)
N2 N 0.5842(5) 0.4031(2) 0.2027(3)
N3 N 0.2931(4) 0.4198(2) 0.2186(3)
N4 N -0.1097(4) 0.59137(19) 0.2223(2)
O1 O 1.2683(4) 0.18502(15) 0.18361(19)
O2 O 1.4719(5) 0.1250(2) 0.2457(2)
O3 O 1.2149(5) 0.3021(2) -0.0662(3)
O4 O 1.3578(4) 0.27085(18) -0.13423(19)
O5 O 1.7293(5) 0.1017(2) 0.0459(2)
Zn1 Zn 1.21103(5) 0.18130(2) 0.27810(3)
C1B C 2.6071(5) -0.1575(2) -0.1880(3)
C2B C 2.5598(5) -0.1671(2) -0.1172(2)
C3B C 2.6397(5) -0.2106(2) -0.0559(2)
H1B H 2.7252 -0.2330 -0.0581
C4B C 2.5927(5) -0.2208(2) 0.0081(2)
C5B C 2.6797(5) -0.2685(2) 0.0727(3)
C6B C 2.4688(6) -0.1848(2) 0.0140(3)
H2B H 2.4387 -0.1906 0.0577
C7B C 2.3918(6) -0.1406(3) -0.0464(3)
C8B C 2.4351(5) -0.1324(2) -0.1122(3)
H3B H 2.3805 -0.1035 -0.1530
C9B C 2.2325(7) -0.1022(3) 0.0235(3)
H4B H 2.1938 -0.1460 0.0307
H5B H 2.3214 -0.0922 0.0698
C10B C 2.1124(6) -0.0490(3) 0.0126(3)
C11B C 1.9594(6) -0.0676(3) -0.0091(3)
H6B H 1.9316 -0.1128 -0.0151
C12B C 2.1498(6) 0.0180(3) 0.0217(3)
H7B H 2.2515 0.0305 0.0366
O1B O 2.7317(4) -0.18502(15) -0.18361(19)
O2B O 2.5281(5) -0.1250(2) -0.2457(2)
O3B O 2.7851(5) -0.3021(2) 0.0662(3)
O4B O 2.6422(4) -0.27085(18) 0.13423(19)
O5B O 2.2707(5) -0.1017(2) -0.0459(2)
C13B C 3.0330(6) -0.2621(3) -0.1608(3)
H8B H 2.9938 -0.2418 -0.1254
C14B C 3.1457(7) -0.3093(3) -0.1317(4)
H9B H 3.1820 -0.3197 -0.0778
C15B C 3.2054(6) -0.3413(3) -0.1826(4)
C16B C 3.1513(8) -0.3213(3) -0.2601(4)
H10B H 3.1906 -0.3400 -0.2963
C17B C 3.0379(7) -0.2732(3) -0.2851(4)
H11B H 3.0025 -0.2606 -0.3384
C18B C 3.3187(7) -0.3967(3) -0.1539(5)
H12B H 3.2656 -0.4388 -0.1552
H13B H 3.3822 -0.3879 -0.0991
C19B C 3.4949(7) -0.4678(3) -0.1892(5)
H14B H 3.5567 -0.4722 -0.1334
H15B H 3.4213 -0.5042 -0.2031
C20B C 3.5936(6) -0.4725(3) -0.2385(4)
H16B H 3.5311 -0.4690 -0.2943
H17B H 3.6438 -0.5160 -0.2301
C21B C 3.6288(6) -0.3543(3) -0.2317(4)
H18B H 3.7033 -0.3183 -0.2170
H19B H 3.5680 -0.3492 -0.2876
C22B C 3.5276(7) -0.3497(3) -0.1822(4)
H20B H 3.4763 -0.3065 -0.1912
H21B H 3.5894 -0.3528 -0.1262
C23B C 3.8040(6) -0.4227(3) -0.2654(4)
H22B H 3.7404 -0.4235 -0.3213
H23B H 3.8643 -0.3819 -0.2562
C24B C 3.9099(6) -0.4821(2) -0.2489(3)
C25B C 3.9491(7) -0.5199(3) -0.1804(4)
H24B H 3.9086 -0.5093 -0.1414
C26B C 4.0481(7) -0.5736(3) -0.1691(3)
H25B H 4.0726 -0.5982 -0.1223
C27B C 4.0761(7) -0.5540(3) -0.2871(3)
H26B H 4.1205 -0.5651 -0.3243
C28B C 3.9794(8) -0.4997(3) -0.3027(3)
H27B H 3.9606 -0.4749 -0.3492
N1B N 2.9769(4) -0.2440(2) -0.2366(2)
N2B N 3.4158(5) -0.4031(2) -0.2027(3)
N3B N 3.7069(4) -0.4198(2) -0.2186(3)
N4B N 4.1097(4) -0.59137(19) -0.2223(2)
Zn1B Zn 2.78897(5) -0.18130(2) -0.27810(3)
N4A N 1.1097(4) 0.09137(19) 0.2777(2)
N4C N 2.8903(4) -0.09137(19) -0.2777(2)
O4A O 2.6422(4) -0.22915(18) -0.36577(19)
O4C O 1.3578(4) 0.22915(18) 0.36577(19)
Zn1A Zn -0.21103(5) 0.68130(2) 0.22190(3)
Zn1A_2 Zn 2.78897(5) -0.31870(2) 0.22190(3)
Zn1C Zn 1.21103(5) 0.31870(2) -0.22190(3)
Zn1C_2 Zn 4.21103(5) -0.68130(2) -0.22190(3)
O6 O 0.1152(9) 0.4034(5) 0.0465(4)
O7 O 0.1854(13) 0.5482(6) 0.0084(6)
O8 O 0.0487(9) 0.7361(6) 0.0265(4)
loop_
_geom_bond_atom_site_label_1
_geom_bond_atom_site_label_2
_geom_bond_site_symmetry_1
_geom_bond_site_symmetry_2
C1 C2 1_555 1_555
C2 C3 1_555 1_555
C3 H1 1_555 1_555
C4 C3 1_555 1_555
C5 C4 1_555 1_555
C6 C4 1_555 1_555
H2 C6 1_555 1_555
C7 C6 1_555 1_555
C8 C2 1_555 1_555
H3 C8 1_555 1_555
C9 H4 1_555 1_555
H5 C9 1_555 1_555
C10 C9 1_555 1_555
C11 C10 1_555 1_555
H6 C11 1_555 1_555
C12 C10 1_555 1_555
H7 C12 1_555 1_555
C13 H8 1_555 1_555
C14 C13 1_555 1_555
H9 C14 1_555 1_555
C15 C14 1_555 1_555
C16 C15 1_555 1_555
H10 C16 1_555 1_555
C17 C16 1_555 1_555
H11 C17 1_555 1_555
C18 C15 1_555 1_555
H12 C18 1_555 1_555
H13 C18 1_555 1_555
C19 H14 1_555 1_555
H15 C19 1_555 1_555
C20 C19 1_555 1_555
H16 C20 1_555 1_555
H17 C20 1_555 1_555
C21 H18 1_555 1_555
H19 C21 1_555 1_555
C22 C21 1_555 1_555
H20 C22 1_555 1_555
H21 C22 1_555 1_555
C23 H22 1_555 1_555
H23 C23 1_555 1_555
C24 C23 1_555 1_555
C25 C24 1_555 1_555
H24 C25 1_555 1_555
C26 C25 1_555 1_555
H25 C26 1_555 1_555
C27 H26 1_555 1_555
C28 C24 1_555 1_555
H27 C28 1_555 1_555
N1 C13 1_555 1_555
N2 C18 1_555 1_555
N3 C20 1_555 1_555
N4 C26 1_555 1_555
O1 C1 1_555 1_555
O2 C1 1_555 1_555
O3 C5 1_555 1_555
O4 C5 1_555 1_555
O5 C7 1_555 1_555
Zn1 N1 1_555 1_555
C1B C2B 1_555 1_555
C2B C3B 1_555 1_555
C3B H1B 1_555 1_555
C4B C3B 1_555 1_555
C5B C4B 1_555 1_555
C6B C4B 1_555 1_555
H2B C6B 1_555 1_555
C7B C6B 1_555 1_555
C8B C2B 1_555 1_555
H3B C8B 1_555 1_555
C9B H4B 1_555 1_555
H5B C9B 1_555 1_555
C10B C9B 1_555 1_555
C11B C12 1_555 1_555
H6B C11B 1_555 1_555
C12B C11 1_555 1_555
H7B C12B 1_555 1_555
O1B C1B 1_555 1_555
O2B C1B 1_555 1_555
O3B C5B 1_555 1_555
O4B C5B 1_555 1_555
O5B C7B 1_555 1_555
C13B H8B 1_555 1_555
C14B C13B 1_555 1_555
H9B C14B 1_555 1_555
C15B C14B 1_555 1_555
C16B C15B 1_555 1_555
H10B C16B 1_555 1_555
C17B C16B 1_555 1_555
H11B C17B 1_555 1_555
C18B C15B 1_555 1_555
H12B C18B 1_555 1_555
H13B C18B 1_555 1_555
C19B H14B 1_555 1_555
H15B C19B 1_555 1_555
C20B C19B 1_555 1_555
H16B C20B 1_555 1_555
H17B C20B 1_555 1_555
C21B H18B 1_555 1_555
H19B C21B 1_555 1_555
C22B C21B 1_555 1_555
H20B C22B 1_555 1_555
H21B C22B 1_555 1_555
C23B H22B 1_555 1_555
H23B C23B 1_555 1_555
C24B C23B 1_555 1_555
C25B C24B 1_555 1_555
H24B C25B 1_555 1_555
C26B C25B 1_555 1_555
H25B C26B 1_555 1_555
C27B H26B 1_555 1_555
C28B C24B 1_555 1_555
H27B C28B 1_555 1_555
N1B C13B 1_555 1_555
N2B C18B 1_555 1_555
N3B C20B 1_555 1_555
N4B C26B 1_555 1_555
Zn1B O1B 1_555 1_555
N4A Zn1 1_555 1_555
N4C Zn1B 1_555 1_555
O4A Zn1B 1_555 1_555
O4C Zn1 1_555 1_555
Zn1A N4 1_555 1_555
Zn1A_2 O4B 1_555 1_555
Zn1C O4 1_555 1_555
Zn1C_2 N4B 1_555 1_555
C7 C8 1_555 1_555
C9 O5 1_555 1_555
C17 N1 1_555 1_555
C19 N2 1_555 1_555
C21 N3 1_555 1_555
C22 N2 1_555 1_555
C23 N3 1_555 1_555
C27 C28 1_555 1_555
C27 N4 1_555 1_555
O1 Zn1 1_555 1_555
C7B C8B 1_555 1_555
C9B O5B 1_555 1_555
C10B C11B 1_555 1_555
C10B C12B 1_555 1_555
C17B N1B 1_555 1_555
C19B N2B 1_555 1_555
C21B N3B 1_555 1_555
C22B N2B 1_555 1_555
C23B N3B 1_555 1_555
C27B C28B 1_555 1_555
C27B N4B 1_555 1_555
N1B Zn1B 1_555 1_555

#END
