
#######################################################################
#
#                 Cambridge Crystallographic Data Centre
#                                CCDC 
#
#######################################################################
#
# If this CIF has been generated from an entry in the Cambridge 
# Structural Database, then it will include bibliographic, chemical, 
# crystal, experimental, refinement or atomic coordinate data resulting 
# from the CCDC's data processing and validation procedures.
#
#######################################################################

data_REZVAU
_symmetry_cell_setting           monoclinic
_symmetry_space_group_name_H-M   'P 2/c'
_symmetry_Int_Tables_number      13
_space_group_name_Hall           '-P 2yc'
loop_
_symmetry_equiv_pos_site_id
_symmetry_equiv_pos_as_xyz
1 x,y,z
2 -x,y,1/2-z
3 -x,-y,-z
4 x,-y,1/2+z
_cell_length_a                   11.4680(10)
_cell_length_b                   11.3457(10)
_cell_length_c                   20.2067(14)
_cell_angle_alpha                90
_cell_angle_beta                 116.709(4)
_cell_angle_gamma                90
_cell_volume                     2348.62
loop_
_atom_site_label
_atom_site_type_symbol
_atom_site_fract_x
_atom_site_fract_y
_atom_site_fract_z
Co1 Co 0.0000 -0.5000 0.0000
Co2 Co 0.0000 -0.24810(3) -0.2500
S1 S 0.13900(5) -0.29810(5) -0.06025(3)
O1 O 0.03780(19) -0.66512(16) -0.03539(11)
O2 O 0.06709(16) -0.40967(15) -0.06669(9)
O3 O 0.09084(17) -0.24555(14) -0.13472(9)
O4 O 0.2772(2) -0.3217(3) -0.03209(16)
O5 O 0.1110(3) -0.2161(2) -0.01333(15)
N1 N 0.19161(18) -0.23697(17) -0.24892(11)
N2 N -0.18982(17) -0.51429(18) -0.09285(10)
N3 N 0.0000 -0.4364(2) -0.2500
N4 N 0.0000 -1.0585(2) -0.2500
C1 C 0.0000 -0.8125(3) -0.2500
C2 C -0.2016(3) -0.5406(2) -0.16015(14)
H1 H -0.1261 -0.5545 -0.1652
C3 C 0.1023(3) -0.61911(19) -0.19586(14)
H2 H 0.1719 -0.6582 -0.1583
C4 C -0.4356(2) -0.5270(2) -0.21704(12)
C5 C 0.4354(2) -0.2153(2) -0.24996(12)
C6 C 0.0993(2) -0.49733(18) -0.19860(14)
H3 H 0.1695 -0.4559 -0.1631
C7 C -0.3210(3) -0.5482(2) -0.22262(14)
H4 H -0.3244 -0.5675 -0.2682
C8 C 0.3014(2) -0.2197(3) -0.18664(15)
H5 H 0.2963 -0.2151 -0.1421
C9 C -0.4232(2) -0.5016(2) -0.14695(13)
H6 H -0.4972 -0.4880 -0.1403
C10 C 0.4228(2) -0.2084(4) -0.18541(15)
H7 H 0.4964 -0.1959 -0.1406
C11 C -0.3002(2) -0.4965(2) -0.08679(13)
H8 H -0.2941 -0.4799 -0.0403
C12 C 0.3211(2) -0.2307(3) -0.31441(14)
H9 H 0.3234 -0.2333 -0.3598
C13 C 0.0220(4) -0.8754(2) -0.18711(16)
H10 H 0.0377 -0.8361 -0.1435
C14 C 0.2033(2) -0.2421(3) -0.31167(15)
H11 H 0.1283 -0.2539 -0.3559
C15 C 0.0206(4) -0.9969(2) -0.18930(16)
H12 H 0.0347 -1.0379 -0.1465
C16 C 0.0000 -0.6823(2) -0.2500
H21 H 0.005(4) -0.714(4) -0.019(2)
H22 H 0.108(5) -0.695(4) -0.025(2)
Co1C Co -1.0000 -0.5000 -0.5000
Co2_2 Co 0.0000 -1.24810(3) -0.2500
Co2_3 Co 1.0000 -0.24810(3) -0.2500
Co2C Co 0.0000 -0.75190(3) 0.2500
S1B S -0.13900(5) -0.70190(5) 0.06025(3)
O1B O -0.03780(19) -0.33488(16) 0.03539(11)
O2B O -0.06709(16) -0.59033(15) 0.06669(9)
O3B O -0.09084(17) -0.75445(14) 0.13472(9)
O3A O -0.09084(17) -0.24555(14) -0.36528(9)
O4B O -0.2772(2) -0.6783(3) 0.03209(16)
O5B O -0.1110(3) -0.7839(2) 0.01333(15)
N1A N 0.80839(18) -0.23697(17) -0.25108(11)
N1A_2 N -0.19161(18) -0.23697(17) -0.25108(11)
N2A N -0.81018(17) -0.51429(18) -0.40715(10)
N2B N 0.18982(17) -0.48571(18) 0.09285(10)
N4_2 N 0.0000 -0.0585(2) -0.2500
C2A C -0.7984(3) -0.5406(2) -0.33985(14)
H1A H -0.8739 -0.5545 -0.3348
C3A C -0.1023(3) -0.61911(19) -0.30414(14)
H2A H -0.1719 -0.6582 -0.3417
C4A C -0.5644(2) -0.5270(2) -0.28296(12)
C5A C 0.5646(2) -0.2153(2) -0.25004(12)
C6A C -0.0993(2) -0.49733(18) -0.30140(14)
H3A H -0.1695 -0.4559 -0.3369
C7A C -0.6790(3) -0.5482(2) -0.27738(14)
H4A H -0.6756 -0.5675 -0.2318
C8A C 0.6986(2) -0.2197(3) -0.31336(15)
H5A H 0.7037 -0.2151 -0.3579
C9A C -0.5768(2) -0.5016(2) -0.35305(13)
H6A H -0.5028 -0.4880 -0.3597
C10A C 0.5772(2) -0.2084(4) -0.31459(15)
H7A H 0.5036 -0.1959 -0.3594
C11A C -0.6998(2) -0.4965(2) -0.41321(13)
H8A H -0.7059 -0.4799 -0.4597
C12A C 0.6789(2) -0.2307(3) -0.18559(14)
H9A H 0.6766 -0.2333 -0.1402
C13A C -0.0220(4) -0.8754(2) -0.31289(16)
H10A H -0.0377 -0.8361 -0.3565
C14A C 0.7967(2) -0.2421(3) -0.18833(15)
H11A H 0.8717 -0.2539 -0.1441
C15A C -0.0206(4) -0.9969(2) -0.31070(16)
H12A H -0.0347 -1.0379 -0.3535
H21B H -0.005(4) -0.286(4) 0.019(2)
H22B H -0.108(5) -0.305(4) 0.025(2)
N5 N 0.2679(3) -0.7894(3) -0.0060(2)
C17 C 0.3698(5) -0.7584(4) -0.0149(3)
H13 H 0.3784 -0.6790 -0.0234
C18 C 0.4497(4) -0.9564(3) -0.0021(2)
C19 C 0.3376(5) -0.9889(4) 0.0031(3)
H14 H 0.3213 -1.0678 0.0083
C20 C 0.4660(4) -0.8346(4) -0.0128(3)
H15 H 0.5379 -0.8074 -0.0180
C21 C 0.2513(4) -0.9039(5) 0.0005(3)
H16 H 0.1762 -0.9277 0.0034
N5B N 0.7321(3) -1.2106(3) 0.0060(2)
C17B C 0.6302(5) -1.2416(4) 0.0149(3)
H13B H 0.6216 -1.3210 0.0234
C18B C 0.5503(4) -1.0436(3) 0.0021(2)
C19B C 0.6624(5) -1.0111(4) -0.0031(3)
H14B H 0.6787 -0.9322 -0.0083
C20B C 0.5340(4) -1.1654(4) 0.0128(3)
H15B H 0.4621 -1.1926 0.0180
C21B C 0.7487(4) -1.0961(5) -0.0005(3)
H16B H 0.8238 -1.0723 -0.0034
C22 C 0.272(2) -1.106(2) 0.1578(13)
H17 H 0.2354 -1.1526 0.1834
H18 H 0.2035 -1.0756 0.1130
H19 H 0.3215 -1.0423 0.1888
O6 O 0.357(2) -1.179(2) 0.1399(13)
H20 H 0.3169 -1.2042 0.0975
loop_
_geom_bond_atom_site_label_1
_geom_bond_atom_site_label_2
_geom_bond_site_symmetry_1
_geom_bond_site_symmetry_2
Co1 O1 1_555 1_555
Co2 O3 1_555 1_555
S1 O2 1_555 1_555
O1 H21 1_555 1_555
O2 Co1 1_555 1_555
O3 S1 1_555 1_555
O4 S1 1_555 1_555
O5 S1 1_555 1_555
N1 Co2 1_555 1_555
N2 Co1 1_555 1_555
N3 Co2 1_555 1_555
N4 C15 1_555 1_555
C1 C13 1_555 1_555
C2 N2 1_555 1_555
H1 C2 1_555 1_555
C3 H2 1_555 1_555
C4 C7 1_555 1_555
C5 C10 1_555 1_555
C6 N3 1_555 1_555
H3 C6 1_555 1_555
C7 C2 1_555 1_555
H4 C7 1_555 1_555
C8 N1 1_555 1_555
H5 C8 1_555 1_555
C9 C4 1_555 1_555
H6 C9 1_555 1_555
C10 C8 1_555 1_555
H7 C10 1_555 1_555
C11 N2 1_555 1_555
H8 C11 1_555 1_555
C12 C5 1_555 1_555
H9 C12 1_555 1_555
C13 H10 1_555 1_555
C14 N1 1_555 1_555
H11 C14 1_555 1_555
C15 C13 1_555 1_555
H12 C15 1_555 1_555
C16 C1 1_555 1_555
N5 C17 1_555 1_555
C17 H13 1_555 1_555
C18 C19 1_555 1_555
C19 H14 1_555 1_555
C20 C17 1_555 1_555
H15 C20 1_555 1_555
C21 N5 1_555 1_555
H16 C21 1_555 1_555
C22 H17 1_555 1_555
H18 C22 1_555 1_555
H19 C22 1_555 1_555
O6 C22 1_555 1_555
H20 O6 1_555 1_555
H22 O1 1_555 1_555
Co1C N2A 1_555 1_555
Co2_2 N4 1_555 1_555
Co2_3 N1A 1_555 1_555
Co2C O3B 1_555 1_555
S1B O2B 1_555 1_555
O1B Co1 1_555 1_555
O2B Co1 1_555 1_555
O3B S1B 1_555 1_555
O3A Co2 1_555 1_555
O4B S1B 1_555 1_555
O5B S1B 1_555 1_555
N1A C8A 1_555 1_555
N1A_2 Co2 1_555 1_555
N2A C2A 1_555 1_555
N2B Co1 1_555 1_555
N4_2 Co2 1_555 1_555
C2A H1A 1_555 1_555
C3A C16 1_555 1_555
H2A C3A 1_555 1_555
C4A C4 1_555 1_555
C5A C5 1_555 1_555
C6A N3 1_555 1_555
H3A C6A 1_555 1_555
C7A C2A 1_555 1_555
H4A C7A 1_555 1_555
C8A H5A 1_555 1_555
C9A C4A 1_555 1_555
H6A C9A 1_555 1_555
C10A C5A 1_555 1_555
H7A C10A 1_555 1_555
C11A N2A 1_555 1_555
H8A C11A 1_555 1_555
C12A C5A 1_555 1_555
H9A C12A 1_555 1_555
C13A C1 1_555 1_555
H10A C13A 1_555 1_555
C14A N1A 1_555 1_555
H11A C14A 1_555 1_555
C15A N4 1_555 1_555
H12A C15A 1_555 1_555
N5B C17B 1_555 1_555
C17B H13B 1_555 1_555
C18B C18 1_555 1_555
C19B C18B 1_555 1_555
H14B C19B 1_555 1_555
C20B C17B 1_555 1_555
H15B C20B 1_555 1_555
C21B N5B 1_555 1_555
H16B C21B 1_555 1_555
H21B O1B 1_555 1_555
H22B O1B 1_555 1_555
C3 C6 1_555 1_555
C3 C16 1_555 1_555
C9 C11 1_555 1_555
C12 C14 1_555 1_555
C18 C20 1_555 1_555
C19 C21 1_555 1_555
C3A C6A 1_555 1_555
C4A C7A 1_555 1_555
C8A C10A 1_555 1_555
C9A C11A 1_555 1_555
C12A C14A 1_555 1_555
C13A C15A 1_555 1_555
C18B C20B 1_555 1_555
C19B C21B 1_555 1_555

#END
