
#######################################################################
#
#                 Cambridge Crystallographic Data Centre
#                                CCDC 
#
#######################################################################
#
# If this CIF has been generated from an entry in the Cambridge 
# Structural Database, then it will include bibliographic, chemical, 
# crystal, experimental, refinement or atomic coordinate data resulting 
# from the CCDC's data processing and validation procedures.
#
#######################################################################

data_RIFMIE
_symmetry_cell_setting           triclinic
_symmetry_space_group_name_H-M   'P -1'
_symmetry_Int_Tables_number      2
_space_group_name_Hall           '-P 1'
loop_
_symmetry_equiv_pos_site_id
_symmetry_equiv_pos_as_xyz
1 x,y,z
2 -x,-y,-z
_cell_length_a                   14.291(8)
_cell_length_b                   17.345(9)
_cell_length_c                   19.371(10)
_cell_angle_alpha                63.737(6)
_cell_angle_beta                 83.571(7)
_cell_angle_gamma                82.359(7)
_cell_volume                     4260.1
loop_
_atom_site_label
_atom_site_type_symbol
_atom_site_fract_x
_atom_site_fract_y
_atom_site_fract_z
O19 O 0.7161(7) 0.9014(7) 0.0295(6)
N15 N 0.8420(11) 0.8177(10) 0.0318(9)
C71 C 0.7562(11) 0.8334(10) 0.0265(11)
C72 C 0.8936(13) 0.8647(12) 0.0540(11)
H62 H 0.9598 0.8473 0.0499
H63 H 0.8750 0.8541 0.1064
H64 H 0.8815 0.9251 0.0209
C73 C 0.7006(12) 0.7795(11) 0.0131(10)
H65 H 0.6349 0.7996 0.0153
H66 H 0.7109 0.7212 0.0519
H67 H 0.7185 0.7815 -0.0368
C74 C 0.8709(15) 0.7375(12) 0.0266(13)
H68 H 0.9386 0.7267 0.0271
H69 H 0.8509 0.7412 -0.0206
H70 H 0.8427 0.6912 0.0696
N16 N 0.2169(12) -0.1604(12) 1.0229(9)
O20 O 0.2688(10) -0.1257(9) 1.0368(8)
O21 O 0.2458(11) -0.2272(12) 1.0188(9)
O22 O 0.134(2) -0.1076(19) 1.0048(15)
La1 La 0.17664(2) 0.54013(2) 0.77055(2)
La2 La 1.07152(2) 0.51684(2) 0.57933(2)
Ni1 Ni 0.52027(5) 0.01140(5) 0.76096(5)
O1 O 1.0139(4) 0.3729(3) 0.6271(3)
O2 O 0.9011(3) 0.5321(3) 0.5253(3)
O3 O 0.9338(5) 0.3519(4) 0.5438(4)
O4 O 0.1373(4) 0.4318(3) 0.7098(3)
O5 O 0.2382(4) 0.3801(4) 0.7989(3)
O6 O 0.6594(4) -0.5265(4) 1.1783(3)
O7 O 0.7693(3) -0.4579(4) 1.0890(3)
O8 O 0.0349(4) 0.4727(4) 0.8483(4)
O9 O 0.0772(4) 0.6110(4) 0.6445(4)
O10 O -0.0325(10) 0.7307(9) 0.6087(11)
O11 O 0.9032(4) 0.5337(5) 0.6363(4)
O12 O 0.7544(6) 0.5160(7) 0.6013(6)
O13 O 0.2084(4) -0.3039(3) 0.7184(3)
O14 O 0.1470(5) -0.3574(4) 0.8380(3)
O15 O 0.0155(6) 0.6525(6) 0.7274(5)
O16 O 0.2207(9) 0.2929(7) 0.7338(8)
N1 N 0.0212(6) 0.6633(6) 0.6526(7)
N2 N 0.8605(5) 0.5263(5) 0.5887(5)
N3 N 0.1958(5) 0.3734(4) 0.7480(4)
N4 N -0.0907(16) 0.4619(15) 0.9195(13)
O17 O 0.2445(3) 0.5289(3) 0.5621(3)
N5 N 0.6470(3) -0.0527(3) 0.8061(3)
C1 C 0.6923(4) -0.0072(4) 0.8296(4)
N6 N 0.4791(4) -0.0964(3) 0.7518(3)
N7 N 0.7858(3) -0.0334(4) 0.8355(3)
N8 N 0.5501(4) 0.0920(4) 0.8133(3)
N9 N 0.3928(4) 0.0817(4) 0.7216(3)
N10 N 0.5992(4) 0.1018(3) 0.6718(3)
N11 N 0.2355(3) 0.0823(4) 0.7370(4)
N12 N 0.6477(4) 0.2339(3) 0.6257(3)
N13 N 0.4309(4) -0.2269(4) 0.8180(4)
N14 N 0.4330(3) -0.0469(4) 0.8659(3)
C2 C 0.4718(5) -0.1303(5) 0.6991(4)
O18 O 0.2868(3) 0.5557(3) 0.6563(3)
C3 C 0.8820(4) 0.0901(4) 0.7895(4)
C4 C 0.9025(5) 0.1843(5) 0.6558(4)
H1 H 0.8974 0.1957 0.6047
C5 C 0.6856(4) 0.2001(4) 0.5733(4)
C6 C 0.3207(4) 0.0487(4) 0.7687(4)
C7 C 0.1327(5) -0.1946(5) 0.8407(4)
H2 H 0.1137 -0.2409 0.8857
C8 C 0.6116(5) -0.4352(5) 1.0495(4)
C9 C 0.3530(5) 0.1403(4) 0.6501(4)
C10 C 0.3940(4) 0.4715(4) 0.6110(4)
C11 C 0.5970(4) 0.1736(4) 0.6807(4)
C12 C 0.7164(4) -0.1121(4) 0.7954(4)
C13 C 0.4525(4) -0.1546(4) 0.8204(4)
C14 C 0.4147(5) 0.4291(5) 0.5643(4)
H3 H 0.3711 0.4345 0.5298
C15 C 0.2555(5) 0.1413(4) 0.6599(5)
C16 C 0.5000(5) 0.3786(5) 0.5683(4)
H4 H 0.5123 0.3490 0.5378
C17 C 0.1496(4) -0.0450(5) 0.7729(5)
C18 C 0.1667(5) -0.2079(5) 0.7768(5)
C19 C 0.6603(4) 0.3186(4) 0.6214(5)
H5 H 0.7006 0.3493 0.5761
H6 H 0.6916 0.3105 0.6664
C20 C 0.5664(4) 0.3725(4) 0.6175(4)
C21 C 0.8032(5) -0.1006(5) 0.8152(5)
C22 C 0.4512(5) -0.1404(5) 0.8896(4)
H7 H 0.5115 -0.1619 0.9131
H8 H 0.4019 -0.1706 0.9269
C23 C 0.1460(5) 0.0455(5) 0.7702(5)
H9 H 0.0948 0.0827 0.7394
H10 H 0.1341 0.0414 0.8220
C24 C 0.9450(5) 0.2258(5) 0.7480(5)
H11 H 0.9709 0.2646 0.7598
C25 C 0.4761(5) -0.3517(4) 0.9405(4)
C26 C 0.5459(5) 0.1806(4) 0.7495(4)
H12 H 0.5759 0.2186 0.7631
H13 H 0.4807 0.2036 0.7390
C27 C 0.7698(6) 0.1814(6) 0.4709(5)
H14 H 0.8069 0.2022 0.4250
C28 C 0.4614(5) -0.0160(5) 0.9191(4)
H15 H 0.5196 -0.0486 0.9418
H16 H 0.4128 -0.0250 0.9604
C29 C 0.4439(5) -0.2132(5) 0.7402(4)
C30 C 0.8769(5) 0.1084(5) 0.7134(4)
H17 H 0.8555 0.0680 0.7009
C31 C 0.4598(5) 0.4627(5) 0.6620(4)
H18 H 0.4468 0.4901 0.6943
C32 C 0.1264(5) -0.1141(5) 0.8386(5)
H19 H 0.1059 -0.1070 0.8829
C33 C 0.8555(5) 0.0058(5) 0.8556(4)
H20 H 0.9119 -0.0342 0.8706
H21 H 0.8305 0.0165 0.8995
C34 C 0.9363(4) 0.2452(4) 0.6729(4)
C35 C 0.3014(4) 0.5223(4) 0.6107(4)
C36 C 0.6471(4) 0.0656(5) 0.8440(4)
H22 H 0.6854 0.1139 0.8192
H23 H 0.6422 0.0492 0.8990
C37 C 0.5461(5) 0.4126(5) 0.6648(5)
H24 H 0.5899 0.4067 0.6993
C38 C 0.5702(5) -0.3489(5) 0.9186(4)
H25 H 0.5887 -0.3192 0.8667
C39 C 0.6849(5) -0.4749(5) 1.1088(4)
C40 C 0.9168(5) 0.1509(5) 0.8072(4)
H26 H 0.9207 0.1405 0.8582
C41 C 0.3973(6) 0.1893(5) 0.5809(4)
H27 H 0.4628 0.1884 0.5737
C42 C 0.1982(6) 0.1880(6) 0.6010(6)
H28 H 0.1331 0.1856 0.6068
C43 C 0.7112(5) -0.1762(5) 0.7706(5)
H29 H 0.6540 -0.1860 0.7587
C44 C 0.4758(5) 0.0779(5) 0.8773(4)
H30 H 0.4169 0.1108 0.8565
H31 H 0.4950 0.0976 0.9128
C45 C 0.7436(5) 0.2330(5) 0.5055(4)
H32 H 0.7629 0.2883 0.4855
C46 C 0.7433(7) 0.0961(6) 0.5016(5)
H33 H 0.7638 0.0622 0.4757
C47 C 0.6868(5) 0.0622(5) 0.5702(5)
H34 H 0.6704 0.0058 0.5917
C48 C 0.4899(6) -0.0966(6) 0.6214(5)
H35 H 0.5093 -0.0414 0.5933
C49 C 0.4317(6) -0.2646(6) 0.7042(6)
H36 H 0.4137 -0.3204 0.7316
C50 C 0.4007(5) -0.3061(5) 0.8833(5)
H37 H 0.3845 -0.3451 0.8638
H38 H 0.3442 -0.2914 0.9095
C51 C 0.1862(7) -0.0580(5) 0.7074(5)
H39 H 0.2040 -0.0117 0.6619
C52 C 0.3298(4) -0.0170(5) 0.8484(4)
H40 H 0.2968 -0.0660 0.8568
H41 H 0.3006 0.0067 0.8834
C53 C 0.4488(5) -0.3969(6) 1.0175(5)
H42 H 0.3849 -0.3984 1.0332
C54 C 0.7931(7) -0.2237(6) 0.7647(7)
H43 H 0.7917 -0.2656 0.7474
C55 C 0.5163(6) -0.4402(7) 1.0719(5)
H44 H 0.4974 -0.4724 1.1233
C56 C 0.8864(5) -0.1492(6) 0.8079(6)
H45 H 0.9446 -0.1401 0.8189
C57 C 0.8779(6) -0.2109(7) 0.7838(8)
H46 H 0.9317 -0.2458 0.7802
C58 C 0.3377(7) 0.2410(6) 0.5220(6)
H47 H 0.3642 0.2776 0.4744
C59 C 0.4483(8) -0.2271(7) 0.6244(6)
H48 H 0.4383 -0.2577 0.5972
C60 C 0.4779(7) -0.1491(7) 0.5861(6)
H49 H 0.4913 -0.1283 0.5332
C61 C 0.2432(8) 0.2396(7) 0.5317(6)
H50 H 0.2066 0.2747 0.4902
C62 C 0.9638(6) 0.3302(5) 0.6081(5)
C63 C -0.0461(8) 0.4460(9) 0.8700(8)
C64 C -0.0751(15) 0.5356(13) 0.9277(13)
H51 H -0.1244 0.5460 0.9614
H52 H -0.0752 0.5845 0.8781
H53 H -0.0151 0.5265 0.9493
C65 C -0.1832(16) 0.4400(16) 0.9511(14)
H54 H -0.2073 0.4722 0.9799
H55 H -0.1812 0.3793 0.9847
H56 H -0.2238 0.4536 0.9102
C66 C -0.0781(12) 0.3892(11) 0.8426(10)
H57 H -0.0281 0.3753 0.8113
H58 H -0.1320 0.4175 0.8125
H59 H -0.0953 0.3371 0.8859
C67 C 0.1738(5) -0.2960(5) 0.7792(5)
C68 C 0.1949(7) -0.1388(5) 0.7119(5)
H60 H 0.2209 -0.1475 0.6694
C69 C 0.6383(5) -0.3889(5) 0.9717(4)
H61 H 0.7021 -0.3850 0.9556
C70 C 0.6569(4) 0.1170(4) 0.6039(4)
La1_2 La 0.17664(2) -0.45987(2) 0.77055(2)
La1A La 0.82336(2) -0.54013(2) 1.22945(2)
La2_2 La 0.07152(2) 0.51684(2) 0.57933(2)
La2A La 0.92848(2) 0.48316(2) 0.42067(2)
O2A O 1.0989(3) 0.4679(3) 0.4747(3)
O3A O 1.0662(5) 0.6481(4) 0.4562(4)
O4_2 O 1.1373(4) 0.4318(3) 0.7098(3)
O6A O 0.3406(4) 0.5265(4) 0.8217(3)
O7A O 0.2307(3) 0.4579(4) 0.9110(3)
O9_2 O 1.0772(4) 0.6110(4) 0.6445(4)
O13_2 O 0.2084(4) 0.6961(3) 0.7184(3)
O14_2 O 0.1470(5) 0.6426(4) 0.8380(3)
O17_2 O 1.2445(3) 0.5289(3) 0.5621(3)
loop_
_geom_bond_atom_site_label_1
_geom_bond_atom_site_label_2
_geom_bond_site_symmetry_1
_geom_bond_site_symmetry_2
La1 O4 1_555 1_555
La2 O1 1_555 1_555
Ni1 N5 1_555 1_555
O1 C62 1_555 1_555
O2 La2 1_555 1_555
O3 C62 1_555 1_555
O4 N3 1_555 1_555
O5 La1 1_555 1_555
O6 C39 1_555 1_555
O7 C39 1_555 1_555
O8 La1 1_555 1_555
O9 La1 1_555 1_555
O10 N1 1_555 1_555
O11 La2 1_555 1_555
O12 N2 1_555 1_555
O13 C67 1_555 1_555
O14 C67 1_555 1_555
O15 La1 1_555 1_555
O16 N3 1_555 1_555
N1 O9 1_555 1_555
N2 O2 1_555 1_555
N3 O5 1_555 1_555
N4 C63 1_555 1_555
O17 C35 1_555 1_555
N5 C1 1_555 1_555
C1 N7 1_555 1_555
N6 Ni1 1_555 1_555
N7 C21 1_555 1_555
N8 Ni1 1_555 1_555
N9 Ni1 1_555 1_555
N10 Ni1 1_555 1_555
N11 C6 1_555 1_555
N12 C5 1_555 1_555
N13 C13 1_555 1_555
N14 Ni1 1_555 1_555
C2 N6 1_555 1_555
O18 La1 1_555 1_555
C3 C30 1_555 1_555
C4 H1 1_555 1_555
C5 C45 1_555 1_555
C6 N9 1_555 1_555
C7 H2 1_555 1_555
C8 C39 1_555 1_555
C9 N9 1_555 1_555
C10 C14 1_555 1_555
C11 N10 1_555 1_555
C12 N5 1_555 1_555
C13 N6 1_555 1_555
C14 H3 1_555 1_555
C15 N11 1_555 1_555
C16 C14 1_555 1_555
H4 C16 1_555 1_555
C17 C23 1_555 1_555
C18 C7 1_555 1_555
C19 N12 1_555 1_555
H5 C19 1_555 1_555
H6 C19 1_555 1_555
C20 C16 1_555 1_555
C21 C12 1_555 1_555
C22 N14 1_555 1_555
H7 C22 1_555 1_555
H8 C22 1_555 1_555
C23 N11 1_555 1_555
H9 C23 1_555 1_555
H10 C23 1_555 1_555
C24 H11 1_555 1_555
C25 C38 1_555 1_555
C26 N8 1_555 1_555
H12 C26 1_555 1_555
H13 C26 1_555 1_555
C27 H14 1_555 1_555
C28 N14 1_555 1_555
H15 C28 1_555 1_555
H16 C28 1_555 1_555
C29 N13 1_555 1_555
C30 C4 1_555 1_555
H17 C30 1_555 1_555
C31 C10 1_555 1_555
H18 C31 1_555 1_555
C32 C7 1_555 1_555
H19 C32 1_555 1_555
C33 N7 1_555 1_555
H20 C33 1_555 1_555
H21 C33 1_555 1_555
C34 C4 1_555 1_555
C35 O18 1_555 1_555
C36 C1 1_555 1_555
H22 C36 1_555 1_555
H23 C36 1_555 1_555
C37 C20 1_555 1_555
H24 C37 1_555 1_555
C38 H25 1_555 1_555
C40 C3 1_555 1_555
H26 C40 1_555 1_555
C41 C9 1_555 1_555
H27 C41 1_555 1_555
C42 C15 1_555 1_555
H28 C42 1_555 1_555
C43 C12 1_555 1_555
H29 C43 1_555 1_555
C44 N8 1_555 1_555
H30 C44 1_555 1_555
H31 C44 1_555 1_555
C45 C27 1_555 1_555
H32 C45 1_555 1_555
C46 C27 1_555 1_555
H33 C46 1_555 1_555
C47 C46 1_555 1_555
H34 C47 1_555 1_555
C48 C2 1_555 1_555
H35 C48 1_555 1_555
C49 C29 1_555 1_555
H36 C49 1_555 1_555
C50 N13 1_555 1_555
H37 C50 1_555 1_555
H38 C50 1_555 1_555
C51 C17 1_555 1_555
H39 C51 1_555 1_555
C52 N14 1_555 1_555
H40 C52 1_555 1_555
H41 C52 1_555 1_555
C53 C25 1_555 1_555
H42 C53 1_555 1_555
C54 C43 1_555 1_555
H43 C54 1_555 1_555
C55 C8 1_555 1_555
H44 C55 1_555 1_555
C56 C21 1_555 1_555
H45 C56 1_555 1_555
C57 C54 1_555 1_555
H46 C57 1_555 1_555
C58 C41 1_555 1_555
H47 C58 1_555 1_555
C59 C49 1_555 1_555
H48 C59 1_555 1_555
C60 C48 1_555 1_555
H49 C60 1_555 1_555
C61 C42 1_555 1_555
H50 C61 1_555 1_555
C62 C34 1_555 1_555
C63 O8 1_555 1_555
C64 N4 1_555 1_555
H51 C64 1_555 1_555
H52 C64 1_555 1_555
H53 C64 1_555 1_555
C65 N4 1_555 1_555
H54 C65 1_555 1_555
H55 C65 1_555 1_555
H56 C65 1_555 1_555
C66 C63 1_555 1_555
H57 C66 1_555 1_555
H58 C66 1_555 1_555
H59 C66 1_555 1_555
C67 C18 1_555 1_555
C68 C18 1_555 1_555
H60 C68 1_555 1_555
C69 C8 1_555 1_555
H61 C69 1_555 1_555
C70 N10 1_555 1_555
O19 C71 1_555 1_555
N15 C71 1_555 1_555
C71 C73 1_555 1_555
C72 N15 1_555 1_555
H62 C72 1_555 1_555
H63 C72 1_555 1_555
H64 C72 1_555 1_555
C73 H65 1_555 1_555
H66 C73 1_555 1_555
H67 C73 1_555 1_555
C74 N15 1_555 1_555
H68 C74 1_555 1_555
H69 C74 1_555 1_555
H70 C74 1_555 1_555
N16 O20 1_555 1_555
O21 N16 1_555 1_555
O22 N16 1_555 1_555
La1_2 O13 1_555 1_555
La1A O6 1_555 1_555
La2_2 O4 1_555 1_555
La2A O2 1_555 1_555
O2A La2 1_555 1_555
O3A La2 1_555 1_555
O4_2 La2 1_555 1_555
O6A La1 1_555 1_555
O7A La1 1_555 1_555
O9_2 La2 1_555 1_555
O13_2 La1 1_555 1_555
O14_2 La1 1_555 1_555
O17_2 La2 1_555 1_555
O3 La2A 1_555 1_555
O7 La1A 1_555 1_555
O9 La2_2 1_555 1_555
O11 N2 1_555 1_555
O14 La1_2 1_555 1_555
O15 N1 1_555 1_555
O17 La2_2 1_555 1_555
N8 C36 1_555 1_555
N12 C11 1_555 1_555
C2 C29 1_555 1_555
C3 C33 1_555 1_555
C5 C70 1_555 1_555
C6 C52 1_555 1_555
C9 C15 1_555 1_555
C10 C35 1_555 1_555
C11 C26 1_555 1_555
C13 C22 1_555 1_555
C17 C32 1_555 1_555
C19 C20 1_555 1_555
C24 C34 1_555 1_555
C24 C40 1_555 1_555
C25 C50 1_555 1_555
C28 C44 1_555 1_555
C31 C37 1_555 1_555
C38 C69 1_555 1_555
C47 C70 1_555 1_555
C51 C68 1_555 1_555
C53 C55 1_555 1_555
C56 C57 1_555 1_555
C58 C61 1_555 1_555
C59 C60 1_555 1_555
La2A O2A 1_555 1_555

#END
