
#######################################################################
#
#                 Cambridge Crystallographic Data Centre
#                                CCDC 
#
#######################################################################
#
# If this CIF has been generated from an entry in the Cambridge 
# Structural Database, then it will include bibliographic, chemical, 
# crystal, experimental, refinement or atomic coordinate data resulting 
# from the CCDC's data processing and validation procedures.
#
#######################################################################

data_RIGPEE
_symmetry_cell_setting           monoclinic
_symmetry_space_group_name_H-M   'P 21/c'
_symmetry_Int_Tables_number      14
_space_group_name_Hall           '-P 2ybc'
loop_
_symmetry_equiv_pos_site_id
_symmetry_equiv_pos_as_xyz
1 x,y,z
2 -x,1/2+y,1/2-z
3 -x,-y,-z
4 x,1/2-y,1/2+z
_cell_length_a                   9.930(2)
_cell_length_b                   9.3445(19)
_cell_length_c                   22.717(6)
_cell_angle_alpha                90
_cell_angle_beta                 106.94(3)
_cell_angle_gamma                90
_cell_volume                     2016.47
loop_
_atom_site_label
_atom_site_type_symbol
_atom_site_fract_x
_atom_site_fract_y
_atom_site_fract_z
O1 O 0.3458(9) 0.8644(10) 0.8688(4)
O2 O 0.5202(8) 0.7983(9) 0.8369(4)
O3 O 0.5547(8) 0.9135(9) 0.9227(4)
N1 N 0.4746(11) 0.8630(11) 0.8767(5)
Cu1 Cu 0.19384(13) 0.12252(15) -0.15267(5)
N2 N 0.3519(7) 0.2531(8) -0.1138(4)
N3 N 1.1124(9) 0.4128(9) 0.2579(4)
N4 N 1.0857(8) 1.0115(8) -0.1050(4)
N5 N 0.7823(8) 0.4737(8) 0.0388(3)
C1 C 0.3879(9) 0.3703(10) -0.1396(4)
H1 H 0.3306 0.3966 -0.1782
C2 C 0.5031(9) 0.4550(10) -0.1133(4)
H2 H 0.5245 0.5319 -0.1349
C3 C 0.5892(8) 0.4238(9) -0.0527(4)
C4 C 0.5473(9) 0.3041(10) -0.0263(4)
H3 H 0.5984 0.2781 0.0135
C5 C 0.4323(11) 0.2224(10) -0.0570(5)
H4 H 0.4100 0.1425 -0.0373
C6 C 0.7169(8) 0.5100(9) -0.0222(4)
C7 C 0.7688(9) 0.6186(9) -0.0493(4)
H5 H 0.7227 0.6448 -0.0896
C8 C 0.8915(9) 0.6909(9) -0.0165(4)
C9 C 0.9549(7) 0.6521(8) 0.0428(4)
H6 H 1.0355 0.7003 0.0652
C10 C 0.9037(9) 0.5455(9) 0.0699(4)
C11 C 0.9523(9) 0.8046(10) -0.0464(4)
C12 C 0.8812(9) 0.8683(10) -0.1023(4)
H7 H 0.7883 0.8434 -0.1220
C13 C 0.9487(10) 0.9686(10) -0.1287(4)
H8 H 0.8966 1.0102 -0.1654
C14 C 1.0904(9) 0.8512(9) -0.0210(4)
H9 H 1.1433 0.8137 0.0165
C15 C 0.9759(9) 0.4996(10) 0.1351(4)
C16 C 0.9178(9) 0.3985(10) 0.1642(4)
H10 H 0.8311 0.3579 0.1441
C17 C 0.9890(12) 0.3571(12) 0.2238(5)
H11 H 0.9486 0.2855 0.2415
C18 C 1.1634(10) 0.5126(12) 0.2280(5)
H12 H 1.2483 0.5548 0.2495
C19 C 1.1029(10) 0.5593(10) 0.1686(4)
H13 H 1.1464 0.6293 0.1514
C20 C 1.1512(9) 0.9520(11) -0.0502(5)
H14 H 1.2431 0.9804 -0.0306
Cu1_2 Cu 1.19384(13) 1.12252(15) -0.15267(5)
Cu1C Cu 1.19384(13) 0.37748(15) 0.34733(5)
N3C N 0.1124(9) 0.0872(9) -0.2421(4)
N4_2 N 0.0857(8) 0.0115(8) -0.1050(4)
O4 O 0.6795(9) 0.3544(12) 0.2589(4)
H15 H 0.6408 0.3095 0.2275
C21 C 0.5899(16) 0.3689(18) 0.2934(7)
H16 H 0.5109 0.3063 0.2780
H17 H 0.5576 0.4662 0.2914
H18 H 0.6377 0.3447 0.3354
loop_
_geom_bond_atom_site_label_1
_geom_bond_atom_site_label_2
_geom_bond_site_symmetry_1
_geom_bond_site_symmetry_2
O1 N1 1_555 1_555
O2 N1 1_555 1_555
O3 N1 1_555 1_555
Cu1 N2 1_555 1_555
N2 C1 1_555 1_555
N3 C17 1_555 1_555
N4 C13 1_555 1_555
N5 C6 1_555 1_555
C1 H1 1_555 1_555
C2 C1 1_555 1_555
H2 C2 1_555 1_555
C3 C2 1_555 1_555
C4 C3 1_555 1_555
H3 C4 1_555 1_555
C5 N2 1_555 1_555
H4 C5 1_555 1_555
C6 C3 1_555 1_555
C7 C6 1_555 1_555
H5 C7 1_555 1_555
C8 C7 1_555 1_555
C9 C8 1_555 1_555
H6 C9 1_555 1_555
C10 N5 1_555 1_555
C11 C8 1_555 1_555
C12 C11 1_555 1_555
H7 C12 1_555 1_555
C13 C12 1_555 1_555
H8 C13 1_555 1_555
C14 C11 1_555 1_555
H9 C14 1_555 1_555
C15 C10 1_555 1_555
C16 C15 1_555 1_555
H10 C16 1_555 1_555
C17 C16 1_555 1_555
H11 C17 1_555 1_555
C18 N3 1_555 1_555
H12 C18 1_555 1_555
C19 C15 1_555 1_555
H13 C19 1_555 1_555
C20 N4 1_555 1_555
H14 C20 1_555 1_555
O4 H15 1_555 1_555
C21 O4 1_555 1_555
H16 C21 1_555 1_555
H17 C21 1_555 1_555
H18 C21 1_555 1_555
Cu1_2 N4 1_555 1_555
Cu1C N3 1_555 1_555
N3C Cu1 1_555 1_555
N4_2 Cu1 1_555 1_555
C4 C5 1_555 1_555
C9 C10 1_555 1_555
C14 C20 1_555 1_555
C18 C19 1_555 1_555

#END
