
#######################################################################
#
#                 Cambridge Crystallographic Data Centre
#                                CCDC 
#
#######################################################################
#
# If this CIF has been generated from an entry in the Cambridge 
# Structural Database, then it will include bibliographic, chemical, 
# crystal, experimental, refinement or atomic coordinate data resulting 
# from the CCDC's data processing and validation procedures.
#
#######################################################################

data_RIGVOU
_symmetry_cell_setting           monoclinic
_symmetry_space_group_name_H-M   'P 21/c'
_symmetry_Int_Tables_number      14
_space_group_name_Hall           '-P 2ybc'
loop_
_symmetry_equiv_pos_site_id
_symmetry_equiv_pos_as_xyz
1 x,y,z
2 -x,1/2+y,1/2-z
3 -x,-y,-z
4 x,1/2-y,1/2+z
_cell_length_a                   7.5721(8)
_cell_length_b                   15.5950(17)
_cell_length_c                   16.7063(19)
_cell_angle_alpha                90
_cell_angle_beta                 94.433(2)
_cell_angle_gamma                90
_cell_volume                     1966.89
loop_
_atom_site_label
_atom_site_type_symbol
_atom_site_fract_x
_atom_site_fract_y
_atom_site_fract_z
C1 C 0.7416(6) 0.1925(3) 0.5494(3)
C2 C 0.5999(6) 0.2352(3) 0.5947(3)
C3 C 0.6436(7) 0.2902(3) 0.6578(3)
H1 H 0.7602 0.3069 0.6711
C4 C 0.5052(7) 0.3198(3) 0.7008(3)
C5 C 0.5447(7) 0.3672(3) 0.7790(3)
C6 C 0.3078(7) 0.2542(4) 0.6122(3)
H2 H 0.1905 0.2454 0.5932
C7 C -0.2004(6) 0.0472(3) 0.6803(3)
C8 C -0.0426(7) 0.0882(3) 0.7266(3)
C9 C -0.0619(7) 0.1523(3) 0.7818(3)
H3 H -0.1729 0.1728 0.7926
C10 C 0.0919(7) 0.1849(3) 0.8203(3)
C11 C 0.0897(7) 0.2610(3) 0.8769(3)
C12 C 0.2534(7) 0.0921(3) 0.7543(3)
H4 H 0.3641 0.0693 0.7460
N1 N 0.4324(5) 0.2154(3) 0.5718(2)
N2 N 0.3359(5) 0.3034(3) 0.6763(3)
N3 N 0.1163(5) 0.0590(3) 0.7101(3)
N4 N 0.2504(5) 0.1532(3) 0.8085(3)
O1 O 0.6869(4) 0.1406(2) 0.4935(2)
O2 O 0.8976(4) 0.2071(2) 0.5712(2)
O3 O 0.6890(5) 0.4043(2) 0.7890(2)
O4 O 0.4284(5) 0.3626(2) 0.8282(2)
O5 O -0.1648(4) -0.0086(2) 0.6270(2)
O6 O -0.3498(5) 0.0710(2) 0.6937(2)
O7 O -0.0422(5) 0.3107(2) 0.8667(2)
O8 O 0.2168(5) 0.2705(2) 0.9273(2)
O9 O 0.0924(5) 0.0755(2) 0.5130(2)
O10 O 0.4200(5) 0.0090(2) 0.5725(2)
Eu1 Eu 0.37389(3) 0.102260(15) 0.459947(15)
Eu2 Eu 0.13348(3) -0.050509(15) 0.594338(14)
H5 H 0.072(8) 0.106(4) 0.531(4)
H6 H 0.458(7) 0.033(3) 0.605(3)
O1B O 0.3131(4) -0.1406(2) 0.5065(2)
O3A O 0.3110(5) -0.0957(2) 0.7110(2)
O4C O 0.4284(5) 0.1374(2) 0.3282(2)
O5B O 0.1648(4) 0.0086(2) 0.3730(2)
O7A O 0.0422(5) -0.1893(2) 0.6333(2)
O8C O 0.2168(5) 0.2295(2) 0.4273(2)
O9B O -0.0924(5) -0.0755(2) 0.4870(2)
O10B O 0.5800(5) -0.0090(2) 0.4275(2)
Eu1B Eu -0.37389(3) -0.102260(15) 0.540053(15)
Eu1B_2 Eu 0.62611(3) -0.102260(15) 0.540053(15)
Eu1C Eu 0.37389(3) 0.397740(15) 0.959947(15)
Eu2A Eu -0.13348(3) 0.449491(15) 0.905662(14)
Eu2A_2 Eu 0.86652(3) 0.449491(15) 0.905662(14)
Eu2B Eu -0.13348(3) 0.050509(15) 0.405662(14)
Eu2B_2 Eu 0.86652(3) 0.050509(15) 0.405662(14)
O11 O -0.37(3) 0.150(11) 0.908(10)
O12 O 0.92(5) 0.43(2) 0.66(2)
O13 O -0.33(4) -0.04(2) 1.01(2)
O14 O -0.14(5) 0.04(2) 0.931(17)
O15? O -0.38(6) -0.03(2) 0.86(2)
O16? O 0.28(6) 0.20(3) 0.98(3)
loop_
_geom_bond_atom_site_label_1
_geom_bond_atom_site_label_2
_geom_bond_site_symmetry_1
_geom_bond_site_symmetry_2
C1 C2 1_555 1_555
C2 C3 1_555 1_555
C3 H1 1_555 1_555
C4 C3 1_555 1_555
C5 C4 1_555 1_555
C6 H2 1_555 1_555
C7 C8 1_555 1_555
C8 C9 1_555 1_555
C9 H3 1_555 1_555
C10 C9 1_555 1_555
C11 C10 1_555 1_555
C12 H4 1_555 1_555
N1 C2 1_555 1_555
N2 C4 1_555 1_555
N3 C8 1_555 1_555
N4 C10 1_555 1_555
O1 C1 1_555 1_555
O2 C1 1_555 1_555
O3 C5 1_555 1_555
O4 C5 1_555 1_555
O5 C7 1_555 1_555
O6 C7 1_555 1_555
O7 C11 1_555 1_555
O8 C11 1_555 1_555
O9 Eu1 1_555 1_555
O10 Eu1 1_555 1_555
Eu1 N1 1_555 1_555
Eu2 N3 1_555 1_555
H5 O9 1_555 1_555
H6 O10 1_555 1_555
O1B Eu2 1_555 1_555
O3A Eu2 1_555 1_555
O4C Eu1 1_555 1_555
O5B Eu1 1_555 1_555
O7A Eu2 1_555 1_555
O8C Eu1 1_555 1_555
O9B Eu2 1_555 1_555
O10B Eu1 1_555 1_555
Eu1B O5 1_555 1_555
Eu1B_2 O10 1_555 1_555
Eu1C O4 1_555 1_555
Eu2A O7 1_555 1_555
Eu2A_2 O3 1_555 1_555
Eu2B O9 1_555 1_555
Eu2B_2 O1 1_555 1_555
C6 N1 1_555 1_555
C6 N2 1_555 1_555
C12 N3 1_555 1_555
C12 N4 1_555 1_555
O1 Eu1 1_555 1_555
O5 Eu2 1_555 1_555
O8 Eu1C 1_555 1_555
O9 Eu2 1_555 1_555
O10 Eu2 1_555 1_555
O1B Eu1B_2 1_555 1_555
O5B Eu2B 1_555 1_555
O9B Eu1B 1_555 1_555
O9B Eu2B 1_555 1_555
O10B Eu1B_2 1_555 1_555
O10B Eu2B_2 1_555 1_555

#END
