
#######################################################################
#
#                 Cambridge Crystallographic Data Centre
#                                CCDC 
#
#######################################################################
#
# If this CIF has been generated from an entry in the Cambridge 
# Structural Database, then it will include bibliographic, chemical, 
# crystal, experimental, refinement or atomic coordinate data resulting 
# from the CCDC's data processing and validation procedures.
#
#######################################################################

data_RIWQIZ
_symmetry_cell_setting           triclinic
_symmetry_space_group_name_H-M   'P -1'
_symmetry_Int_Tables_number      2
_space_group_name_Hall           '-P 1'
loop_
_symmetry_equiv_pos_site_id
_symmetry_equiv_pos_as_xyz
1 x,y,z
2 -x,-y,-z
_cell_length_a                   7.631(2)
_cell_length_b                   9.033(3)
_cell_length_c                   14.870(4)
_cell_angle_alpha                106.822(3)
_cell_angle_beta                 96.077(3)
_cell_angle_gamma                91.721(3)
_cell_volume                     973.643
loop_
_atom_site_label
_atom_site_type_symbol
_atom_site_fract_x
_atom_site_fract_y
_atom_site_fract_z
Ni1 Ni 0.5000 0.5000 1.0000
Ni2 Ni 0.0000 0.5000 1.0000
O1 O 0.0629(2) 0.6719(2) 1.12034(12)
O2 O -0.1258(2) 0.8472(2) 1.09879(12)
O3 O 0.6366(2) 1.5546(2) 1.80665(12)
O4 O 0.4029(2) 1.4698(2) 1.86194(11)
O5 O 0.0918(2) 1.3228(2) 1.37996(12)
O6 O 0.5313(2) 1.2876(2) 1.45170(12)
O7 O 0.1044(3) 0.6299(2) 0.92044(13)
H1 H 0.183(3) 0.692(3) 0.9578(19)
H2 H 0.164(4) 0.567(3) 0.8836(19)
O8 O 0.2510(2) 0.4149(2) 1.01985(11)
H3 H 0.2388 0.3055 0.9799
H4 H 0.2645 0.4112 1.0861
C1 C -0.0007(3) 0.8036(3) 1.14479(17)
C2 C 0.0808(3) 0.9118(3) 1.23817(17)
C3 C 0.1907(3) 0.8559(3) 1.29958(18)
H5 H 0.2204 0.7508 1.2815
C4 C 0.2569(3) 0.9549(3) 1.38779(18)
H6 H 0.3300 0.9157 1.4303
C5 C 0.2192(3) 1.1100(3) 1.41547(17)
C6 C 0.1160(3) 1.1673(3) 1.35046(18)
C7 C 0.0442(3) 1.0677(3) 1.26362(17)
H7 H -0.0304 1.1060 1.2213
C8 C 0.2857(3) 1.2102(3) 1.51228(18)
C9 C 0.1942(4) 1.2117(3) 1.58848(18)
H8 H 0.0852 1.1521 1.5777
C10 C 0.2589(3) 1.2984(3) 1.67999(18)
H9 H 0.1962 1.2954 1.7314
C11 C 0.4159(3) 1.3897(3) 1.69618(17)
C12 C 0.5096(3) 1.3900(3) 1.62018(18)
H10 H 0.6167 1.4521 1.6308
C13 C 0.4462(3) 1.3000(3) 1.52985(17)
C14 C 0.4922(3) 1.4796(3) 1.79495(17)
C15 C 0.7145(4) 1.3388(3) 1.4668(2)
H11 H 0.7593 1.3236 1.4056
H12 H 0.7811 1.2789 1.5026
H13 H 0.7284 1.4490 1.5026
C16 C 0.0191(4) 1.3915(3) 1.30972(19)
H14 H 0.0074 1.5023 1.3393
H15 H -0.0974 1.3409 1.2816
H16 H 0.0975 1.3785 1.2603
C17 C 0.4781(3) 0.8302(3) 1.10981(18)
H17 H 0.5575 0.8013 1.1546
C18 C 0.3161(4) 1.0325(3) 1.0668(2)
H18 H 0.2717 0.9463 1.0110
H19 H 0.3784 1.1121 1.0470
H20 H 0.2168 1.0771 1.0998
C19 C 0.5173(4) 1.0884(3) 1.2180(2)
H21 H 0.5956 1.0360 1.2540
H22 H 0.4243 1.1345 1.2559
H23 H 0.5858 1.1699 1.2032
N1 N 0.4372(3) 0.9759(3) 1.13016(15)
O9 O 0.4190(2) 0.7268(2) 1.03498(12)
O1A O -0.0629(2) 0.3281(2) 0.87966(12)
O2A O 0.1258(2) 0.1528(2) 0.90121(12)
O3A O -0.6366(2) -0.5546(2) 0.19335(12)
O4A O -0.4029(2) -0.4698(2) 0.13806(11)
O5A O -0.0918(2) -0.3228(2) 0.62004(12)
O6A O -0.5313(2) -0.2876(2) 0.54830(12)
O7A O -0.1044(3) 0.3701(2) 1.07956(13)
H1A H -0.183(3) 0.308(3) 1.0422(19)
H2A H -0.164(4) 0.433(3) 1.1164(19)
O8A O -0.2510(2) 0.5851(2) 0.98015(11)
H3A H -0.2388 0.6945 1.0201
H4A H -0.2645 0.5888 0.9139
C1A C 0.0007(3) 0.1964(3) 0.85521(17)
C2A C -0.0808(3) 0.0882(3) 0.76183(17)
C3A C -0.1907(3) 0.1441(3) 0.70042(18)
H5A H -0.2204 0.2492 0.7185
C4A C -0.2569(3) 0.0451(3) 0.61221(18)
H6A H -0.3300 0.0843 0.5697
C5A C -0.2192(3) -0.1100(3) 0.58453(17)
C6A C -0.1160(3) -0.1673(3) 0.64954(18)
C7A C -0.0442(3) -0.0677(3) 0.73638(17)
H7A H 0.0304 -0.1060 0.7787
C8A C -0.2857(3) -0.2102(3) 0.48772(18)
C9A C -0.1942(4) -0.2117(3) 0.41152(18)
H8A H -0.0852 -0.1521 0.4223
C10A C -0.2589(3) -0.2984(3) 0.32001(18)
H9A H -0.1962 -0.2954 0.2686
C11A C -0.4159(3) -0.3897(3) 0.30382(17)
C12A C -0.5096(3) -0.3900(3) 0.37982(18)
H10A H -0.6167 -0.4521 0.3692
C13A C -0.4462(3) -0.3000(3) 0.47015(17)
C14A C -0.4922(3) -0.4796(3) 0.20505(17)
C15A C -0.7145(4) -0.3388(3) 0.5332(2)
H11A H -0.7593 -0.3236 0.5944
H12A H -0.7811 -0.2789 0.4974
H13A H -0.7284 -0.4490 0.4974
C16A C -0.0191(4) -0.3915(3) 0.69028(19)
H14A H -0.0074 -0.5023 0.6607
H15A H 0.0974 -0.3409 0.7184
H16A H -0.0975 -0.3785 0.7397
C17A C 0.5219(3) 0.1698(3) 0.89019(18)
H17A H 0.4425 0.1987 0.8454
C18A C 0.6839(4) -0.0325(3) 0.9332(2)
H18A H 0.7283 0.0537 0.9890
H19A H 0.6216 -0.1121 0.9530
H20A H 0.7832 -0.0771 0.9002
C19A C 0.4827(4) -0.0884(3) 0.7820(2)
H21A H 0.4044 -0.0360 0.7460
H22A H 0.5757 -0.1345 0.7441
H23A H 0.4142 -0.1699 0.7968
N1A N 0.5628(3) 0.0241(3) 0.86984(15)
O9A O 0.5810(2) 0.2732(2) 0.96502(12)
Ni1_2 Ni -0.5000 -0.5000 0.0000
Ni1_3 Ni -0.5000 0.5000 1.0000
Ni1_4 Ni 0.5000 1.5000 2.0000
O4_2 O 0.4029(2) 0.4698(2) 0.86194(11)
O4A_2 O 0.5971(2) 0.5302(2) 1.13806(11)
O8A_2 O 0.7490(2) 0.5851(2) 0.98015(11)
loop_
_geom_bond_atom_site_label_1
_geom_bond_atom_site_label_2
_geom_bond_site_symmetry_1
_geom_bond_site_symmetry_2
Ni1 O8 1_555 1_555
Ni2 O1 1_555 1_555
O1 C1 1_555 1_555
O2 C1 1_555 1_555
O3 C14 1_555 1_555
O4 C14 1_555 1_555
O5 C6 1_555 1_555
O6 C13 1_555 1_555
O7 Ni2 1_555 1_555
H1 O7 1_555 1_555
H2 O7 1_555 1_555
O8 Ni2 1_555 1_555
H3 O8 1_555 1_555
H4 O8 1_555 1_555
C1 C2 1_555 1_555
C2 C3 1_555 1_555
C3 H5 1_555 1_555
C4 C3 1_555 1_555
H6 C4 1_555 1_555
C5 C4 1_555 1_555
C6 C5 1_555 1_555
C7 C2 1_555 1_555
H7 C7 1_555 1_555
C8 C5 1_555 1_555
C9 C8 1_555 1_555
H8 C9 1_555 1_555
C10 C9 1_555 1_555
H9 C10 1_555 1_555
C11 C10 1_555 1_555
C12 C11 1_555 1_555
H10 C12 1_555 1_555
C13 C8 1_555 1_555
C14 C11 1_555 1_555
C15 O6 1_555 1_555
H11 C15 1_555 1_555
H12 C15 1_555 1_555
H13 C15 1_555 1_555
C16 O5 1_555 1_555
H14 C16 1_555 1_555
H15 C16 1_555 1_555
H16 C16 1_555 1_555
C17 H17 1_555 1_555
C18 H18 1_555 1_555
H19 C18 1_555 1_555
H20 C18 1_555 1_555
C19 H21 1_555 1_555
H22 C19 1_555 1_555
H23 C19 1_555 1_555
N1 C17 1_555 1_555
O9 Ni1 1_555 1_555
O1A Ni2 1_555 1_555
O2A C1A 1_555 1_555
O3A C14A 1_555 1_555
O4A C14A 1_555 1_555
O5A C6A 1_555 1_555
O6A C13A 1_555 1_555
O7A Ni2 1_555 1_555
H1A O7A 1_555 1_555
H2A O7A 1_555 1_555
O8A Ni2 1_555 1_555
H3A O8A 1_555 1_555
H4A O8A 1_555 1_555
C1A O1A 1_555 1_555
C2A C1A 1_555 1_555
C3A C2A 1_555 1_555
H5A C3A 1_555 1_555
C4A C3A 1_555 1_555
H6A C4A 1_555 1_555
C5A C4A 1_555 1_555
C6A C5A 1_555 1_555
C7A C2A 1_555 1_555
H7A C7A 1_555 1_555
C8A C5A 1_555 1_555
C9A C8A 1_555 1_555
H8A C9A 1_555 1_555
C10A C9A 1_555 1_555
H9A C10A 1_555 1_555
C11A C10A 1_555 1_555
C12A C11A 1_555 1_555
H10A C12A 1_555 1_555
C13A C8A 1_555 1_555
C14A C11A 1_555 1_555
C15A O6A 1_555 1_555
H11A C15A 1_555 1_555
H12A C15A 1_555 1_555
H13A C15A 1_555 1_555
C16A O5A 1_555 1_555
H14A C16A 1_555 1_555
H15A C16A 1_555 1_555
H16A C16A 1_555 1_555
C17A H17A 1_555 1_555
C18A H18A 1_555 1_555
H19A C18A 1_555 1_555
H20A C18A 1_555 1_555
C19A H21A 1_555 1_555
H22A C19A 1_555 1_555
H23A C19A 1_555 1_555
N1A C17A 1_555 1_555
O9A Ni1 1_555 1_555
Ni1_2 O4A 1_555 1_555
Ni1_3 O8A 1_555 1_555
Ni1_4 O4 1_555 1_555
O4_2 Ni1 1_555 1_555
O4A_2 Ni1 1_555 1_555
O8A_2 Ni1 1_555 1_555
C6 C7 1_555 1_555
C12 C13 1_555 1_555
C17 O9 1_555 1_555
C18 N1 1_555 1_555
C19 N1 1_555 1_555
C6A C7A 1_555 1_555
C12A C13A 1_555 1_555
C17A O9A 1_555 1_555
C18A N1A 1_555 1_555
C19A N1A 1_555 1_555

#END
