
#######################################################################
#
#                 Cambridge Crystallographic Data Centre
#                                CCDC 
#
#######################################################################
#
# If this CIF has been generated from an entry in the Cambridge 
# Structural Database, then it will include bibliographic, chemical, 
# crystal, experimental, refinement or atomic coordinate data resulting 
# from the CCDC's data processing and validation procedures.
#
#######################################################################

data_RIZNIY01
_symmetry_cell_setting           monoclinic
_symmetry_space_group_name_H-M   'P 21/c'
_symmetry_Int_Tables_number      14
_space_group_name_Hall           '-P 2ybc'
loop_
_symmetry_equiv_pos_site_id
_symmetry_equiv_pos_as_xyz
1 x,y,z
2 -x,1/2+y,1/2-z
3 -x,-y,-z
4 x,1/2-y,1/2+z
_cell_length_a                   13.2831(5)
_cell_length_b                   22.7439(9)
_cell_length_c                   18.6354(7)
_cell_angle_alpha                90
_cell_angle_beta                 109.050(1)
_cell_angle_gamma                90
_cell_volume                     5321.6
loop_
_atom_site_label
_atom_site_type_symbol
_atom_site_fract_x
_atom_site_fract_y
_atom_site_fract_z
Cu1 Cu 0.44727(3) 0.262610(19) 0.51299(3)
N1 N 0.4983(2) 0.25950(13) 0.42297(17)
C1 C 0.5343(3) 0.30238(18) 0.3899(2)
H1 H 0.5328 0.3411 0.4071
C2 C 0.5744(3) 0.2923(2) 0.3307(3)
H2 H 0.5989 0.3240 0.3086
C3 C 0.5782(3) 0.2364(2) 0.3047(3)
H3 H 0.6065 0.2293 0.2655
C4 C 0.5391(3) 0.18990(19) 0.3376(2)
C5 C 0.4997(3) 0.20393(17) 0.3960(2)
C6 C 0.4585(3) 0.15896(16) 0.4323(2)
C7 C 0.4564(3) 0.10046(18) 0.4082(2)
C8 C 0.4142(3) 0.05895(18) 0.4456(3)
H4 H 0.4108 0.0192 0.4313
C9 C 0.3777(3) 0.07600(18) 0.5030(3)
H5 H 0.3488 0.0483 0.5282
C10 C 0.3841(3) 0.13529(17) 0.5235(3)
H6 H 0.3601 0.1467 0.5637
N2 N 0.4225(2) 0.17626(13) 0.48886(18)
C11 C 0.5360(3) 0.1299(2) 0.3137(3)
H7 H 0.5618 0.1200 0.2739
C12 C 0.4966(3) 0.0873(2) 0.3475(3)
H8 H 0.4956 0.0482 0.3308
Cu2 Cu 0.25319(3) 0.366682(19) 0.50832(2)
N3 N 0.2300(2) 0.42915(13) 0.42833(17)
C13 C 0.2098(3) 0.42344(18) 0.3547(2)
H9 H 0.2022 0.3855 0.3336
C14 C 0.1994(3) 0.47218(19) 0.3067(2)
H10 H 0.1863 0.4666 0.2544
C15 C 0.2080(3) 0.52726(19) 0.3355(2)
H11 H 0.2011 0.5600 0.3034
C16 C 0.2275(3) 0.53517(17) 0.4136(2)
C17 C 0.2385(3) 0.48444(16) 0.4574(2)
C18 C 0.2613(3) 0.48841(16) 0.5379(2)
C19 C 0.2703(3) 0.54368(17) 0.5728(2)
C20 C 0.2908(3) 0.54360(18) 0.6514(2)
H12 H 0.2971 0.5794 0.6776
C21 C 0.3017(3) 0.49235(18) 0.6898(2)
H13 H 0.3152 0.4925 0.7425
C22 C 0.2929(3) 0.43897(18) 0.6508(2)
H14 H 0.3012 0.4036 0.6781
N4 N 0.2731(2) 0.43703(13) 0.57629(17)
C23 C 0.2376(3) 0.59093(18) 0.4502(3)
H15 H 0.2305 0.6254 0.4212
C24 C 0.2571(3) 0.59523(18) 0.5258(3)
H16 H 0.2622 0.6326 0.5482
Cu3 Cu 0.06503(4) 0.236620(19) 1.01568(3)
N5 N 0.0761(2) 0.32123(13) 1.04919(18)
C25 C 0.1026(3) 0.36809(17) 1.0171(2)
H17 H 0.1306 0.3626 0.9773
C26 C 0.0907(4) 0.42532(18) 1.0403(3)
H18 H 0.1113 0.4576 1.0169
C27 C 0.0488(3) 0.43385(18) 1.0970(3)
H19 H 0.0392 0.4722 1.1124
C28 C 0.0200(3) 0.38552(18) 1.1326(2)
C29 C 0.0344(3) 0.32994(16) 1.1054(2)
C30 C 0.0030(3) 0.27872(17) 1.1370(2)
C31 C -0.0395(3) 0.28307(19) 1.1962(2)
C32 C -0.0669(3) 0.2312(2) 1.2245(2)
H20 H -0.0969 0.2322 1.2637
C33 C -0.0499(3) 0.1788(2) 1.1950(2)
H21 H -0.0663 0.1434 1.2149
C34 C -0.0084(3) 0.17765(18) 1.1355(2)
H22 H 0.0024 0.1411 1.1156
N6 N 0.0167(2) 0.22643(13) 1.10581(17)
C35 C -0.0240(3) 0.3890(2) 1.1932(3)
H23 H -0.0333 0.4261 1.2124
C36 C -0.0521(3) 0.3410(2) 1.2230(2)
H24 H -0.0809 0.3451 1.2626
O1 O 0.3964(2) 0.25026(11) 0.59873(16)
O2 O 0.2647(2) 0.31414(11) 0.59241(14)
C37 C 0.3265(3) 0.27225(15) 0.6216(2)
C38 C 0.3150(3) 0.24519(16) 0.6908(2)
H25 H 0.3469 0.2084 0.7064
C39 C 0.2621(3) 0.27000(16) 0.7319(2)
H26 H 0.2293 0.3065 0.7161
O3 O 0.45504(19) 0.34791(10) 0.52221(14)
O4 O 0.5816(2) 0.35327(12) 0.63628(16)
C40 C 0.5195(3) 0.37599(16) 0.5785(2)
C41 C 0.5202(3) 0.44074(16) 0.5702(2)
H27 H 0.5399 0.4636 0.6147
C42 C 0.4948(3) 0.46884(15) 0.5039(2)
H28 H 0.4684 0.4464 0.4594
O5 O 0.24707(19) 0.19455(11) 0.93473(14)
O6 O 0.1186(2) 0.25860(11) 0.93467(16)
C43 C 0.1872(3) 0.23798(16) 0.9089(2)
C44 C 0.1991(3) 0.26739(16) 0.8419(2)
H29 H 0.1676 0.3045 0.8282
C45 C 0.2522(3) 0.24391(16) 0.7999(2)
H30 H 0.2860 0.2076 0.8156
O7 O 0.05834(19) 0.34715(10) 0.49335(15)
O8 O -0.0866(2) 0.34365(12) 0.38911(16)
C46 C -0.0160(3) 0.37105(16) 0.4385(2)
C47 C -0.0193(3) 0.43571(16) 0.4372(2)
H31 H -0.0410 0.4547 0.3898
C48 C 0.0070(3) 0.46865(15) 0.4996(2)
H32 H 0.0369 0.4496 0.5465
O9 O 0.6239(2) 0.24505(13) 0.59545(18)
H33 H 0.6693(18) 0.241(3) 0.5728(16)
H34 H 0.648(2) 0.2724(17) 0.627(3)
O10 O -0.1135(2) 0.26466(13) 0.93621(17)
H35 H -0.139(3) 0.2369(12) 0.905(2)
H36 H -0.110(3) 0.2942(16) 0.909(2)
Cu1B Cu 0.55273(3) 0.737390(19) 0.48701(3)
Cu1C Cu 0.44727(3) 0.237390(19) 0.01299(3)
N1B N 0.5017(2) 0.74050(13) 0.57703(17)
C1B C 0.4657(3) 0.69762(18) 0.6101(2)
H1B H 0.4672 0.6589 0.5929
C2B C 0.4256(3) 0.7077(2) 0.6693(3)
H2B H 0.4011 0.6760 0.6914
C3B C 0.4218(3) 0.7636(2) 0.6953(3)
H3B H 0.3935 0.7707 0.7345
C4B C 0.4609(3) 0.81010(19) 0.6624(2)
C5B C 0.5003(3) 0.79607(17) 0.6040(2)
C6B C 0.5415(3) 0.84104(16) 0.5677(2)
C7B C 0.5436(3) 0.89954(18) 0.5918(2)
C8B C 0.5858(3) 0.94105(18) 0.5544(3)
H4B H 0.5892 0.9808 0.5687
C9B C 0.6223(3) 0.92400(18) 0.4970(3)
H5B H 0.6512 0.9517 0.4718
C10B C 0.6159(3) 0.86471(17) 0.4765(3)
H6B H 0.6399 0.8533 0.4363
N2B N 0.5775(2) 0.82374(13) 0.51114(18)
C11B C 0.4640(3) 0.8701(2) 0.6863(3)
H7B H 0.4382 0.8800 0.7261
C12B C 0.5034(3) 0.9127(2) 0.6525(3)
H8B H 0.5044 0.9518 0.6692
Cu2B Cu 0.74681(3) 0.633318(19) 0.49168(2)
Cu2C Cu 0.25319(3) 0.133318(19) 1.00832(2)
Cu2B_2 Cu -0.25319(3) 0.633318(19) 0.49168(2)
Cu2C_2 Cu 0.25319(3) 0.133318(19) 0.00832(2)
N3B N 0.7700(2) 0.57085(13) 0.57167(17)
C13B C 0.7902(3) 0.57656(18) 0.6453(2)
H9B H 0.7978 0.6145 0.6664
C14B C 0.8006(3) 0.52782(19) 0.6933(2)
H10B H 0.8137 0.5334 0.7456
C15B C 0.7920(3) 0.47274(19) 0.6645(2)
H11B H 0.7989 0.4400 0.6966
C16B C 0.7725(3) 0.46483(17) 0.5864(2)
C17B C 0.7615(3) 0.51556(16) 0.5426(2)
C18B C 0.7387(3) 0.51159(16) 0.4621(2)
C19B C 0.7297(3) 0.45632(17) 0.4272(2)
C20B C 0.7092(3) 0.45640(18) 0.3486(2)
H12B H 0.7029 0.4206 0.3224
C21B C 0.6983(3) 0.50765(18) 0.3102(2)
H13B H 0.6848 0.5075 0.2575
C22B C 0.7071(3) 0.56103(18) 0.3492(2)
H14B H 0.6988 0.5964 0.3219
N4B N 0.7269(2) 0.56297(13) 0.42371(17)
C23B C 0.7624(3) 0.40907(18) 0.5498(3)
H15B H 0.7695 0.3746 0.5788
C24B C 0.7429(3) 0.40477(18) 0.4742(3)
H16B H 0.7378 0.3674 0.4518
Cu3C Cu 0.06503(4) 0.263380(19) 0.51568(3)
Cu3A Cu -0.06503(4) 0.736620(19) 0.48432(3)
N5C N 0.0761(2) 0.17877(13) 0.54919(18)
C25C C 0.1026(3) 0.13191(17) 0.5171(2)
H17C H 0.1306 0.1374 0.4773
C26C C 0.0907(4) 0.07468(18) 0.5403(3)
H18C H 0.1113 0.0424 0.5169
C27C C 0.0488(3) 0.06615(18) 0.5970(3)
H19C H 0.0392 0.0278 0.6124
C28C C 0.0200(3) 0.11448(18) 0.6326(2)
C29C C 0.0344(3) 0.17006(16) 0.6054(2)
C30C C 0.0030(3) 0.22128(17) 0.6370(2)
C31C C -0.0395(3) 0.21693(19) 0.6962(2)
C32C C -0.0669(3) 0.2688(2) 0.7245(2)
H20C H -0.0969 0.2678 0.7637
C33C C -0.0499(3) 0.3212(2) 0.6950(2)
H21C H -0.0663 0.3566 0.7149
C34C C -0.0084(3) 0.32235(18) 0.6355(2)
H22C H 0.0024 0.3589 0.6156
N6C N 0.0167(2) 0.27357(13) 0.60581(17)
C35C C -0.0240(3) 0.1110(2) 0.6932(3)
H23C H -0.0333 0.0739 0.7124
C36C C -0.0521(3) 0.1590(2) 0.7230(2)
H24C H -0.0809 0.1549 0.7626
O1C O 0.3964(2) 0.24974(11) 0.09873(16)
O1B O 0.6036(2) 0.74974(11) 0.40127(16)
O2C O 0.2647(2) 0.18586(11) 0.09241(14)
O2B O 0.7353(2) 0.68586(11) 0.40759(14)
C37C C 0.3265(3) 0.22775(15) 0.1216(2)
C38C C 0.3150(3) 0.25481(16) 0.1908(2)
H25C H 0.3469 0.2916 0.2064
C39C C 0.2621(3) 0.23000(16) 0.2319(2)
H26C H 0.2293 0.1935 0.2161
O3B O 0.54496(19) 0.65209(10) 0.47779(14)
O4B O 0.4184(2) 0.64673(12) 0.36372(16)
C40B C 0.4805(3) 0.62401(16) 0.4215(2)
C41B C 0.4798(3) 0.55926(16) 0.4298(2)
H27B H 0.4601 0.5364 0.3853
C42B C 0.5052(3) 0.53116(15) 0.4961(2)
H28B H 0.5316 0.5536 0.5406
O5C O 0.24707(19) 0.30545(11) 0.43473(14)
O5A O 0.75293(19) 0.69455(11) 0.56527(14)
O6C O 0.1186(2) 0.24140(11) 0.43467(16)
C43C C 0.1872(3) 0.26202(16) 0.4089(2)
C44C C 0.1991(3) 0.23261(16) 0.3419(2)
H29C H 0.1676 0.1955 0.3282
C45C C 0.2522(3) 0.25609(16) 0.2999(2)
H30C H 0.2860 0.2924 0.3156
O7B O -0.05834(19) 0.65285(10) 0.50665(15)
O7C O 0.05834(19) 0.15285(10) 0.99335(15)
O7B_2 O 0.94166(19) 0.65285(10) 0.50665(15)
O8B O 0.0866(2) 0.65635(12) 0.61089(16)
C46B C 0.0160(3) 0.62895(16) 0.5615(2)
C47B C 0.0193(3) 0.56429(16) 0.5628(2)
H31B H 0.0410 0.5453 0.6102
C48B C -0.0070(3) 0.53135(15) 0.5004(2)
H32B H -0.0369 0.5504 0.4535
O9B O 0.3761(2) 0.75495(13) 0.40455(18)
H33B H 0.3307(18) 0.759(3) 0.4272(16)
H34B H 0.352(2) 0.7276(17) 0.373(3)
O10C O -0.1135(2) 0.23534(13) 0.43621(17)
H35C H -0.139(3) 0.2631(12) 0.405(2)
H36C H -0.110(3) 0.2058(16) 0.409(2)
O11 O -0.2430(3) 0.20223(19) 0.5195(2)
H37 H -0.205(5) 0.211(3) 0.492(3)
H38 H -0.242(5) 0.1650(3) 0.522(4)
O12 O -0.2724(4) 0.08020(19) 0.5412(3)
H39 H -0.250(6) 0.067(3) 0.506(3)
H40 H -0.252(6) 0.055(2) 0.577(3)
O13 O -0.2241(3) 0.05135(15) 0.4083(3)
H41 H -0.1888(13) 0.0197(5) 0.4183(10)
H42 H -0.2826(8) 0.0425(9) 0.3747(6)
O14 O -0.1166(3) 0.13403(16) 0.3512(2)
H43 H -0.054(2) 0.120(3) 0.361(4)
H44 H -0.148(4) 0.111(2) 0.372(4)
O15 O -0.3527(3) 0.1367(2) 0.6643(4)
H45 H -0.364(5) 0.1733(7) 0.655(5)
H46 H -0.414(2) 0.122(2) 0.659(5)
Cl1 Cl 0.12718(9) 0.44814(5) 0.80006(7)
O16 O 0.1928(3) 0.40469(14) 0.7846(2)
O17 O 0.1910(3) 0.49842(14) 0.8319(2)
O18 O 0.0487(3) 0.46517(16) 0.7330(2)
O19 O 0.0811(4) 0.4263(2) 0.8516(3)
Cl2 Cl 0.40733(9) 0.06343(5) 0.73038(7)
O20 O 0.3804(10) 0.0023(3) 0.7281(7)
O21 O 0.4868(11) 0.0727(8) 0.6953(9)
O22 O 0.3156(7) 0.0980(4) 0.6919(7)
O23 O 0.4491(10) 0.0829(5) 0.8077(5)
O24? O 0.4146(16) 0.0977(8) 0.7967(8)
O25? O 0.4077(17) 0.0026(5) 0.7487(11)
O26? O 0.4972(14) 0.0761(12) 0.7065(15)
O27? O 0.3117(11) 0.0794(7) 0.6716(7)
O28? O 0.3556(18) 0.0060(6) 0.7135(14)
O29? O 0.3301(15) 0.1076(8) 0.7070(14)
O30? O 0.4842(15) 0.0655(10) 0.6913(13)
O31? O 0.4622(17) 0.0658(9) 0.8104(6)
loop_
_geom_bond_atom_site_label_1
_geom_bond_atom_site_label_2
_geom_bond_site_symmetry_1
_geom_bond_site_symmetry_2
Cu1 N1 1_555 1_555
N1 C1 1_555 1_555
C1 H1 1_555 1_555
C2 C1 1_555 1_555
H2 C2 1_555 1_555
C3 C2 1_555 1_555
H3 C3 1_555 1_555
C4 C3 1_555 1_555
C5 N1 1_555 1_555
C6 C5 1_555 1_555
C7 C6 1_555 1_555
C8 C7 1_555 1_555
H4 C8 1_555 1_555
C9 C8 1_555 1_555
H5 C9 1_555 1_555
C10 C9 1_555 1_555
H6 C10 1_555 1_555
N2 Cu1 1_555 1_555
C11 C4 1_555 1_555
H7 C11 1_555 1_555
C12 C7 1_555 1_555
H8 C12 1_555 1_555
Cu2 N3 1_555 1_555
N3 C13 1_555 1_555
C13 H9 1_555 1_555
C14 C13 1_555 1_555
H10 C14 1_555 1_555
C15 C14 1_555 1_555
H11 C15 1_555 1_555
C16 C15 1_555 1_555
C17 N3 1_555 1_555
C18 C17 1_555 1_555
C19 C18 1_555 1_555
C20 C19 1_555 1_555
H12 C20 1_555 1_555
C21 C20 1_555 1_555
H13 C21 1_555 1_555
C22 C21 1_555 1_555
H14 C22 1_555 1_555
N4 Cu2 1_555 1_555
C23 C16 1_555 1_555
H15 C23 1_555 1_555
C24 C19 1_555 1_555
H16 C24 1_555 1_555
Cu3 N5 1_555 1_555
N5 C25 1_555 1_555
C25 H17 1_555 1_555
C26 C25 1_555 1_555
H18 C26 1_555 1_555
C27 C26 1_555 1_555
H19 C27 1_555 1_555
C28 C27 1_555 1_555
C29 N5 1_555 1_555
C30 C29 1_555 1_555
C31 C30 1_555 1_555
C32 C31 1_555 1_555
H20 C32 1_555 1_555
C33 C32 1_555 1_555
H21 C33 1_555 1_555
C34 C33 1_555 1_555
H22 C34 1_555 1_555
N6 Cu3 1_555 1_555
C35 C28 1_555 1_555
H23 C35 1_555 1_555
C36 C31 1_555 1_555
H24 C36 1_555 1_555
O1 Cu1 1_555 1_555
O2 Cu2 1_555 1_555
C37 O1 1_555 1_555
C38 C37 1_555 1_555
H25 C38 1_555 1_555
C39 C38 1_555 1_555
H26 C39 1_555 1_555
O3 Cu1 1_555 1_555
O4 C40 1_555 1_555
C40 O3 1_555 1_555
C41 C40 1_555 1_555
H27 C41 1_555 1_555
C42 C41 1_555 1_555
H28 C42 1_555 1_555
O5 C43 1_555 1_555
O6 Cu3 1_555 1_555
C43 O6 1_555 1_555
C44 C43 1_555 1_555
H29 C44 1_555 1_555
C45 C39 1_555 1_555
H30 C45 1_555 1_555
O7 Cu2 1_555 1_555
O8 C46 1_555 1_555
C46 O7 1_555 1_555
C47 C46 1_555 1_555
H31 C47 1_555 1_555
C48 C47 1_555 1_555
H32 C48 1_555 1_555
O9 Cu1 1_555 1_555
H33 O9 1_555 1_555
H34 O9 1_555 1_555
O10 Cu3 1_555 1_555
H35 O10 1_555 1_555
H36 O10 1_555 1_555
O11 H37 1_555 1_555
H38 O11 1_555 1_555
O12 H39 1_555 1_555
H40 O12 1_555 1_555
O13 H41 1_555 1_555
H42 O13 1_555 1_555
O14 H43 1_555 1_555
H44 O14 1_555 1_555
O15 H45 1_555 1_555
H46 O15 1_555 1_555
Cl1 O16 1_555 1_555
O17 Cl1 1_555 1_555
O18 Cl1 1_555 1_555
O19 Cl1 1_555 1_555
Cl2 O20 1_555 1_555
O21 Cl2 1_555 1_555
O22 Cl2 1_555 1_555
O23 Cl2 1_555 1_555
Cu1B N1B 1_555 1_555
Cu1C O1C 1_555 1_555
N1B C1B 1_555 1_555
C1B H1B 1_555 1_555
C2B C1B 1_555 1_555
H2B C2B 1_555 1_555
C3B C2B 1_555 1_555
H3B C3B 1_555 1_555
C4B C3B 1_555 1_555
C5B N1B 1_555 1_555
C6B C5B 1_555 1_555
C7B C6B 1_555 1_555
C8B C7B 1_555 1_555
H4B C8B 1_555 1_555
C9B C8B 1_555 1_555
H5B C9B 1_555 1_555
C10B C9B 1_555 1_555
H6B C10B 1_555 1_555
N2B Cu1B 1_555 1_555
C11B C4B 1_555 1_555
H7B C11B 1_555 1_555
C12B C7B 1_555 1_555
H8B C12B 1_555 1_555
Cu2B N3B 1_555 1_555
Cu2C O5 1_555 1_555
Cu2B_2 O7B 1_555 1_555
Cu2C_2 O2C 1_555 1_555
N3B C13B 1_555 1_555
C13B H9B 1_555 1_555
C14B C13B 1_555 1_555
H10B C14B 1_555 1_555
C15B C14B 1_555 1_555
H11B C15B 1_555 1_555
C16B C15B 1_555 1_555
C17B N3B 1_555 1_555
C18B C17B 1_555 1_555
C19B C18B 1_555 1_555
C20B C19B 1_555 1_555
H12B C20B 1_555 1_555
C21B C20B 1_555 1_555
H13B C21B 1_555 1_555
C22B C21B 1_555 1_555
H14B C22B 1_555 1_555
N4B Cu2B 1_555 1_555
C23B C16B 1_555 1_555
H15B C23B 1_555 1_555
C24B C19B 1_555 1_555
H16B C24B 1_555 1_555
Cu3C O7 1_555 1_555
Cu3A O7B 1_555 1_555
N5C Cu3C 1_555 1_555
C25C N5C 1_555 1_555
H17C C25C 1_555 1_555
C26C C25C 1_555 1_555
H18C C26C 1_555 1_555
C27C C26C 1_555 1_555
H19C C27C 1_555 1_555
C28C C27C 1_555 1_555
C29C N5C 1_555 1_555
C30C C29C 1_555 1_555
C31C C30C 1_555 1_555
C32C C31C 1_555 1_555
H20C C32C 1_555 1_555
C33C C32C 1_555 1_555
H21C C33C 1_555 1_555
C34C C33C 1_555 1_555
H22C C34C 1_555 1_555
N6C Cu3C 1_555 1_555
C35C C28C 1_555 1_555
H23C C35C 1_555 1_555
C36C C31C 1_555 1_555
H24C C36C 1_555 1_555
O1C C37C 1_555 1_555
O1B Cu1B 1_555 1_555
O2C C37C 1_555 1_555
O2B Cu2B 1_555 1_555
C37C C38C 1_555 1_555
C38C H25C 1_555 1_555
C39C C38C 1_555 1_555
H26C C39C 1_555 1_555
O3B Cu1B 1_555 1_555
O4B C40B 1_555 1_555
C40B O3B 1_555 1_555
C41B C40B 1_555 1_555
H27B C41B 1_555 1_555
C42B C42 1_555 1_555
H28B C42B 1_555 1_555
O5C Cu2 1_555 1_555
O5A Cu2B 1_555 1_555
O6C Cu3C 1_555 1_555
C43C O5C 1_555 1_555
C44C C43C 1_555 1_555
H29C C44C 1_555 1_555
C45C C39C 1_555 1_555
H30C C45C 1_555 1_555
O7B C46B 1_555 1_555
O7C Cu3 1_555 1_555
O7B_2 Cu2B 1_555 1_555
O8B C46B 1_555 1_555
C46B C47B 1_555 1_555
C47B H31B 1_555 1_555
C48B C48 1_555 1_555
H32B C48B 1_555 1_555
O9B Cu1B 1_555 1_555
H33B O9B 1_555 1_555
H34B O9B 1_555 1_555
O10C Cu3C 1_555 1_555
H35C O10C 1_555 1_555
H36C O10C 1_555 1_555
C4 C5 1_555 1_555
C6 N2 1_555 1_555
C10 N2 1_555 1_555
C11 C12 1_555 1_555
Cu2 O3 1_555 1_555
C16 C17 1_555 1_555
C18 N4 1_555 1_555
C22 N4 1_555 1_555
C23 C24 1_555 1_555
C28 C29 1_555 1_555
C30 N6 1_555 1_555
C34 N6 1_555 1_555
C35 C36 1_555 1_555
O2 C37 1_555 1_555
C44 C45 1_555 1_555
C4B C5B 1_555 1_555
C6B N2B 1_555 1_555
C10B N2B 1_555 1_555
C11B C12B 1_555 1_555
Cu2B O3B 1_555 1_555
Cu2C O7C 1_555 1_555
C16B C17B 1_555 1_555
C18B N4B 1_555 1_555
C22B N4B 1_555 1_555
C23B C24B 1_555 1_555
C28C C29C 1_555 1_555
C30C N6C 1_555 1_555
C34C N6C 1_555 1_555
C35C C36C 1_555 1_555
C41B C42B 1_555 1_555
O6C C43C 1_555 1_555
C44C C45C 1_555 1_555
C47B C48B 1_555 1_555

#END
