
#######################################################################
#
#                 Cambridge Crystallographic Data Centre
#                                CCDC 
#
#######################################################################
#
# If this CIF has been generated from an entry in the Cambridge 
# Structural Database, then it will include bibliographic, chemical, 
# crystal, experimental, refinement or atomic coordinate data resulting 
# from the CCDC's data processing and validation procedures.
#
#######################################################################

data_ROBYOY
_symmetry_cell_setting           triclinic
_symmetry_space_group_name_H-M   'P -1'
_symmetry_Int_Tables_number      2
_space_group_name_Hall           '-P 1'
loop_
_symmetry_equiv_pos_site_id
_symmetry_equiv_pos_as_xyz
1 x,y,z
2 -x,-y,-z
_cell_length_a                   13.0126(4)
_cell_length_b                   13.1146(4)
_cell_length_c                   13.9071(4)
_cell_angle_alpha                84.9560(10)
_cell_angle_beta                 69.2730(10)
_cell_angle_gamma                84.6080(10)
_cell_volume                     2206.08
loop_
_atom_site_label
_atom_site_type_symbol
_atom_site_fract_x
_atom_site_fract_y
_atom_site_fract_z
O9 O 0.2037(5) -0.0405(5) -0.0869(5)
N3 N 0.1026(6) -0.0511(5) -0.1913(5)
C45 C 0.1974(6) -0.0369(5) -0.1708(6)
H31 H 0.2621 -0.0233 -0.2280
C46 C 0.1010(6) -0.0461(6) -0.2952(5)
H32 H 0.1765 -0.0457 -0.3445
H33 H 0.0589 0.0167 -0.3070
H34 H 0.0663 -0.1060 -0.3044
C47 C 0.0033(9) -0.0730(10) -0.1018(9)
H35 H -0.0117 -0.1452 -0.0995
H36 H -0.0596 -0.0292 -0.1079
H37 H 0.0152 -0.0594 -0.0385
N4 N 0.4113(9) -0.0069(9) 0.4204(8)
C48 C 0.3697(13) 0.0730(12) 0.4827(10)
H38 H 0.3672 0.1427 0.4577
O10 O 0.3352(9) 0.0445(8) 0.5759(8)
C49 C 0.4550(13) 0.0226(12) 0.3147(10)
H39 H 0.4587 0.0973 0.3059
H40 H 0.4075 0.0015 0.2798
H41 H 0.5291 -0.0104 0.2848
C50 C 0.4108(17) -0.1145(11) 0.4426(16)
H42 H 0.3639 -0.1290 0.5143
H43 H 0.4861 -0.1430 0.4322
H44 H 0.3821 -0.1457 0.3966
Zn1 Zn 0.20298(3) 0.32206(2) 0.16422(2)
Zn2 Zn 0.13367(2) 0.32743(2) 0.39017(2)
O1 O 0.13961(19) -0.52046(15) 0.34898(16)
O2 O 0.13954(19) 0.17424(15) 0.37276(16)
O3 O -0.02739(17) 0.33681(17) 0.40015(16)
O4 O 0.2037(2) 0.16945(15) 0.20129(16)
O5 O -0.63591(19) 0.3151(2) 0.15423(19)
O6 O 0.1935(2) -0.52438(16) 0.17756(17)
N1 N 0.1991(2) 0.32217(19) 0.01894(18)
N2 N 0.1318(2) 0.32447(18) -0.46330(18)
O7 O -0.69630(18) 0.31724(19) 0.32514(19)
O8 O 0.03173(18) 0.3262(2) 0.22994(17)
C1 C 0.1689(3) -0.4789(2) 0.2598(2)
C2 C 0.1552(3) -0.2009(2) 0.3251(2)
C3 C 0.1712(2) 0.1274(2) 0.2914(2)
C4 C 0.1495(3) -0.3085(2) 0.3342(2)
H1 H 0.1282 -0.3430 0.4005
C5 C -0.6215(3) 0.3144(2) 0.2388(2)
C6 C 0.1341(3) -0.0374(2) 0.4013(2)
H2 H 0.1147 0.0011 0.4606
C7 C 0.1288(3) -0.1419(2) 0.4120(2)
H3 H 0.1070 -0.1751 0.4790
C8 C -0.1790(2) 0.3108(2) 0.2327(2)
H4 H -0.1187 0.2998 0.1707
C9 C -0.2874(2) 0.3092(2) 0.2329(2)
C10 C -0.5050(2) 0.3112(2) 0.2372(2)
C11 C 0.1686(3) 0.0133(2) 0.3017(2)
C12 C 0.1741(3) -0.3638(2) 0.2488(2)
C13 C 0.1674(3) 0.3215(2) -0.1694(2)
C14 C -0.4153(3) 0.2930(3) 0.1453(3)
H5 H -0.4287 0.2812 0.0845
C15 C -0.3099(3) 0.2921(3) 0.1435(2)
H6 H -0.2505 0.2797 0.0811
C16 C -0.1591(2) 0.3277(3) 0.3196(2)
C17 C 0.1975(4) -0.0429(2) 0.2166(2)
H7 H 0.2225 -0.0089 0.1501
C18 C 0.1527(3) 0.3217(3) -0.2707(3)
C19 C -0.4850(3) 0.3271(3) 0.3249(2)
H8 H -0.5453 0.3386 0.3867
C20 C -0.3769(3) 0.3266(3) 0.3252(2)
C21 C 0.1074(6) 0.4046(4) -0.3088(4)
H9 H 0.0823 0.4639 -0.2701
C22 C -0.3543(3) 0.3445(4) 0.4149(3)
H10 H -0.4137 0.3566 0.4773
C23 C -0.2490(3) 0.3444(3) 0.4128(3)
H11 H -0.2354 0.3555 0.4737
C24 C 0.0972(6) 0.4036(5) -0.4051(5)
H12 H 0.0638 0.4626 -0.4299
C25 C 0.1908(3) -0.1504(2) 0.2255(2)
C26 C 0.2229(6) -0.3136(4) 0.1471(4)
H13 H 0.2469 -0.3528 0.0878
C27 C 0.2343(6) -0.2107(4) 0.1365(4)
H14 H 0.2709 -0.1789 0.0706
C28 C -0.0424(2) 0.3303(2) 0.3158(2)
C29 C 0.1272(5) 0.2367(4) -0.4051(4)
H15 H 0.1175 0.1751 -0.4312
C30 C 0.1359(5) 0.2323(5) -0.3084(5)
H16 H 0.1305 0.1692 -0.2684
C31 C 0.1220(7) 0.4045(6) -0.1036(6)
H17 H 0.0797 0.4603 -0.1227
C32 C 0.1407(7) 0.4017(5) -0.0126(6)
H18 H 0.1119 0.4576 0.0305
C33 C 0.2300(6) 0.2404(4) -0.0369(4)
H19 H 0.2639 0.1819 -0.0118
C34 C 0.2151(6) 0.2367(4) -0.1303(5)
H20 H 0.2374 0.1762 -0.1674
Zn1_2 Zn -0.79702(3) 0.32206(2) 0.16422(2)
Zn1_3 Zn 0.20298(3) -0.67794(2) 0.16422(2)
Zn2_2 Zn -0.86633(2) 0.32743(2) 0.39017(2)
Zn2_3 Zn 0.13367(2) -0.67257(2) 0.39017(2)
Zn2_4 Zn 0.13367(2) 0.32743(2) -0.60983(2)
O1_2 O 0.13961(19) 0.47954(15) 0.34898(16)
O5_2 O 0.36409(19) 0.3151(2) 0.15423(19)
O6_2 O 0.1935(2) 0.47562(16) 0.17756(17)
N2_2 N 0.1318(2) 0.32447(18) 0.53670(18)
O7_2 O 0.30370(18) 0.31724(19) 0.32514(19)
C35? C 0.2030(7) 0.2404(6) -0.3367(6)
H21? H 0.2440 0.1847 -0.3158
C36? C 0.1909(7) 0.2444(6) -0.4316(6)
H22? H 0.2243 0.1906 -0.4763
C37? C 0.1368(7) 0.4112(5) -0.4225(6)
H23? H 0.1319 0.4744 -0.4602
C38? C 0.1488(8) 0.4138(6) -0.3273(6)
H24? H 0.1542 0.4770 -0.3016
C39? C 0.1875(9) -0.2073(6) 0.1409(6)
H25? H 0.1918 -0.1722 0.0770
C40? C 0.1780(9) -0.3119(6) 0.1539(6)
H26? H 0.1742 -0.3488 0.0996
C41? C 0.1986(6) 0.4087(5) -0.0383(5)
H27? H 0.2072 0.4712 -0.0131
C42? C 0.1860(6) 0.4111(5) -0.1323(5)
H28? H 0.1899 0.4741 -0.1725
C43? C 0.1880(9) 0.2359(7) -0.0188(7)
H29? H 0.1912 0.1731 0.0201
C44? C 0.1721(9) 0.2322(7) -0.1117(7)
H30? H 0.1645 0.1684 -0.1352
loop_
_geom_bond_atom_site_label_1
_geom_bond_atom_site_label_2
_geom_bond_site_symmetry_1
_geom_bond_site_symmetry_2
Zn1 O4 1_555 1_555
Zn2 O2 1_555 1_555
O1 C1 1_555 1_555
O2 C3 1_555 1_555
O3 Zn2 1_555 1_555
O4 C3 1_555 1_555
O5 C5 1_555 1_555
O6 C1 1_555 1_555
N1 Zn1 1_555 1_555
N2 C24 1_555 1_555
O7 C5 1_555 1_555
O8 Zn1 1_555 1_555
C1 C12 1_555 1_555
C2 C4 1_555 1_555
C3 C11 1_555 1_555
C4 H1 1_555 1_555
C5 C10 1_555 1_555
C6 H2 1_555 1_555
C7 C2 1_555 1_555
H3 C7 1_555 1_555
C8 H4 1_555 1_555
C9 C8 1_555 1_555
C10 C14 1_555 1_555
C11 C6 1_555 1_555
C12 C4 1_555 1_555
C13 C18 1_555 1_555
C14 H5 1_555 1_555
C15 C9 1_555 1_555
H6 C15 1_555 1_555
C16 C8 1_555 1_555
C17 C11 1_555 1_555
H7 C17 1_555 1_555
C18 C21 1_555 1_555
C19 C10 1_555 1_555
H8 C19 1_555 1_555
C20 C9 1_555 1_555
C21 H9 1_555 1_555
C22 C20 1_555 1_555
H10 C22 1_555 1_555
C23 C16 1_555 1_555
H11 C23 1_555 1_555
C24 C21 1_555 1_555
H12 C24 1_555 1_555
C25 C2 1_555 1_555
C26 C12 1_555 1_555
H13 C26 1_555 1_555
C27 C25 1_555 1_555
H14 C27 1_555 1_555
C28 O3 1_555 1_555
C29 N2 1_555 1_555
H15 C29 1_555 1_555
C30 C18 1_555 1_555
H16 C30 1_555 1_555
C31 C13 1_555 1_555
H17 C31 1_555 1_555
C32 N1 1_555 1_555
H18 C32 1_555 1_555
C33 N1 1_555 1_555
H19 C33 1_555 1_555
C34 C13 1_555 1_555
H20 C34 1_555 1_555
O9 C45 1_555 1_555
N3 C45 1_555 1_555
C45 H31 1_555 1_555
C46 N3 1_555 1_555
H32 C46 1_555 1_555
H33 C46 1_555 1_555
H34 C46 1_555 1_555
C47 N3 1_555 1_555
H35 C47 1_555 1_555
H36 C47 1_555 1_555
H37 C47 1_555 1_555
N4 C48 1_555 1_555
C48 H38 1_555 1_555
O10 C48 1_555 1_555
C49 N4 1_555 1_555
H39 C49 1_555 1_555
H40 C49 1_555 1_555
H41 C49 1_555 1_555
C50 N4 1_555 1_555
H42 C50 1_555 1_555
H43 C50 1_555 1_555
H44 C50 1_555 1_555
Zn1_2 O5 1_555 1_555
Zn1_3 O6 1_555 1_555
Zn2_2 O7 1_555 1_555
Zn2_3 O1 1_555 1_555
Zn2_4 N2 1_555 1_555
O1_2 Zn2 1_555 1_555
O5_2 Zn1 1_555 1_555
O6_2 Zn1 1_555 1_555
N2_2 Zn2 1_555 1_555
O7_2 Zn2 1_555 1_555
O8 C28 1_555 1_555
C6 C7 1_555 1_555
C14 C15 1_555 1_555
C16 C28 1_555 1_555
C17 C25 1_555 1_555
C19 C20 1_555 1_555
C22 C23 1_555 1_555
C26 C27 1_555 1_555
C29 C30 1_555 1_555
C31 C32 1_555 1_555
C33 C34 1_555 1_555

#END
