
#######################################################################
#
#                 Cambridge Crystallographic Data Centre
#                                CCDC 
#
#######################################################################
#
# If this CIF has been generated from an entry in the Cambridge 
# Structural Database, then it will include bibliographic, chemical, 
# crystal, experimental, refinement or atomic coordinate data resulting 
# from the CCDC's data processing and validation procedures.
#
#######################################################################

data_ROCZUG
_symmetry_cell_setting           monoclinic
_symmetry_space_group_name_H-M   'P 21/c'
_symmetry_Int_Tables_number      14
_space_group_name_Hall           '-P 2ybc'
loop_
_symmetry_equiv_pos_site_id
_symmetry_equiv_pos_as_xyz
1 x,y,z
2 -x,1/2+y,1/2-z
3 -x,-y,-z
4 x,1/2-y,1/2+z
_cell_length_a                   11.0290(4)
_cell_length_b                   22.7620(7)
_cell_length_c                   14.4800(4)
_cell_angle_alpha                90
_cell_angle_beta                 97.147(3)
_cell_angle_gamma                90
_cell_volume                     3606.85
loop_
_atom_site_label
_atom_site_type_symbol
_atom_site_fract_x
_atom_site_fract_y
_atom_site_fract_z
Cd1 Cd 0.5000 0.0000 0.0000
Cd2 Cd 0.63583(2) -0.074446(12) 0.216341(17)
C1 C -0.0625(4) -0.0948(2) 0.2747(3)
H1 H -0.0854 -0.1084 0.3305
C2 C 0.0596(4) -0.0923(2) 0.2660(3)
H2 H 0.1172 -0.1042 0.3148
C3 C 0.0966(4) -0.07188(17) 0.1840(3)
C4 C 0.0055(4) -0.0566(2) 0.1134(3)
H3 H 0.0257 -0.0436 0.0564
C5 C -0.1138(4) -0.0607(2) 0.1280(3)
H4 H -0.1732 -0.0503 0.0794
C6 C 0.2250(4) -0.06430(18) 0.1693(3)
C7 C 0.5821(5) -0.2909(2) -0.2374(3)
H5 H 0.5522 -0.2917 -0.3003
C8 C 0.5773(5) -0.2391(2) -0.1908(3)
H6 H 0.5462 -0.2056 -0.2219
C9 C 0.6192(4) -0.23685(17) -0.0968(3)
C10 C 0.6658(4) -0.28795(17) -0.0547(3)
H7 H 0.6954 -0.2884 0.0083
C11 C 0.6678(4) -0.33837(17) -0.1075(3)
H8 H 0.6994 -0.3725 -0.0783
C12 C 0.6123(4) -0.18283(17) -0.0434(3)
C13 C 0.6235(5) 0.0196(2) 0.3862(3)
C14 C 0.5204(7) 0.0563(3) 0.3422(5)
H9 H 0.5352 0.0692 0.2808
H10 H 0.4443 0.0344 0.3367
C15 C 0.5160(11) 0.1067(4) 0.4055(7)
H11 H 0.5443 0.1419 0.3770
H12 H 0.4327 0.1133 0.4181
C16 C 0.5942(10) 0.0939(3) 0.4919(6)
H13 H 0.6489 0.1264 0.5100
H14 H 0.5461 0.0856 0.5420
C17 C 0.7612(9) 0.0182(4) 0.5293(5)
H15 H 0.7741 0.0411 0.5853
H16 H 0.8339 0.0189 0.4990
H17 H 0.7426 -0.0216 0.5444
N1 N -0.1507(3) -0.07878(15) 0.2076(2)
N2 N 0.2567(3) -0.03906(16) 0.0926(2)
N3 N 0.3769(3) -0.03992(15) 0.1047(2)
N4 N 0.4176(3) -0.06522(15) 0.1860(2)
N5 N 0.3220(3) -0.08104(15) 0.2284(2)
N6 N 0.6271(3) -0.34078(14) -0.1979(2)
N7 N 0.5733(3) -0.13130(15) -0.0809(2)
N8 N 0.5777(3) -0.09489(14) -0.0089(2)
N9 N 0.6167(3) -0.12339(14) 0.0691(2)
N10 N 0.6395(3) -0.17914(14) 0.0489(2)
N11 N 0.6361(3) 0.01183(14) 0.1319(2)
N12 N 0.6978(4) 0.05254(18) 0.1522(3)
N13 N 0.7572(8) 0.0928(3) 0.1731(6)
N14 N 0.6616(6) 0.0423(2) 0.4685(3)
O1 O 0.6649(3) -0.02604(14) 0.3555(2)
Cd2B Cd 0.36417(2) 0.074446(12) -0.216341(17)
C1B C 1.0625(4) 0.0948(2) -0.2747(3)
H1B H 1.0854 0.1084 -0.3305
C2B C 0.9404(4) 0.0923(2) -0.2660(3)
H2B H 0.8828 0.1042 -0.3148
C3B C 0.9034(4) 0.07188(17) -0.1840(3)
C4B C 0.9945(4) 0.0566(2) -0.1134(3)
H3B H 0.9743 0.0436 -0.0564
C5B C 1.1138(4) 0.0607(2) -0.1280(3)
H4B H 1.1732 0.0503 -0.0794
C6B C 0.7750(4) 0.06430(18) -0.1693(3)
C7B C 0.4179(5) 0.2909(2) 0.2374(3)
H5B H 0.4478 0.2917 0.3003
C8B C 0.4227(5) 0.2391(2) 0.1908(3)
H6B H 0.4538 0.2056 0.2219
C9B C 0.3808(4) 0.23685(17) 0.0968(3)
C10B C 0.3342(4) 0.28795(17) 0.0547(3)
H7B H 0.3046 0.2884 -0.0083
C11B C 0.3322(4) 0.33837(17) 0.1075(3)
H8B H 0.3006 0.3725 0.0783
C12B C 0.3877(4) 0.18283(17) 0.0434(3)
C13B C 0.3765(5) -0.0196(2) -0.3862(3)
C14B C 0.4796(7) -0.0563(3) -0.3422(5)
H9B H 0.4648 -0.0692 -0.2808
H10B H 0.5557 -0.0344 -0.3367
C15B C 0.4840(11) -0.1067(4) -0.4055(7)
H11B H 0.4557 -0.1419 -0.3770
H12B H 0.5673 -0.1133 -0.4181
C16B C 0.4058(10) -0.0939(3) -0.4919(6)
H13B H 0.3511 -0.1264 -0.5100
H14B H 0.4539 -0.0856 -0.5420
C17B C 0.2388(9) -0.0182(4) -0.5293(5)
H15B H 0.2259 -0.0411 -0.5853
H16B H 0.1661 -0.0189 -0.4990
H17B H 0.2574 0.0216 -0.5444
N1B N 1.1507(3) 0.07878(15) -0.2076(2)
N2B N 0.7433(3) 0.03906(16) -0.0926(2)
N3B N 0.6231(3) 0.03992(15) -0.1047(2)
N4B N 0.5824(3) 0.06522(15) -0.1860(2)
N5B N 0.6780(3) 0.08104(15) -0.2284(2)
N6B N 0.3729(3) 0.34078(14) 0.1979(2)
N7B N 0.4267(3) 0.13130(15) 0.0809(2)
N8B N 0.4223(3) 0.09489(14) 0.0089(2)
N9B N 0.3833(3) 0.12339(14) -0.0691(2)
N10B N 0.3605(3) 0.17914(14) -0.0489(2)
N11B N 0.3639(3) -0.01183(14) -0.1319(2)
N12B N 0.3022(4) -0.05254(18) -0.1522(3)
N13B N 0.2428(8) -0.0928(3) -0.1731(6)
N14B N 0.3384(6) -0.0423(2) -0.4685(3)
O1B O 0.3351(3) 0.02604(14) -0.3555(2)
Cd2_2 Cd -0.36417(2) -0.074446(12) 0.216341(17)
Cd2A Cd 0.36417(2) 0.425554(12) 0.283659(17)
Cd2B_2 Cd 1.36417(2) 0.074446(12) -0.216341(17)
Cd2C Cd 0.63583(2) -0.425554(12) -0.283659(17)
N1_2 N 0.8493(3) -0.07878(15) 0.2076(2)
N1B_2 N 0.1507(3) 0.07878(15) -0.2076(2)
N6A N 0.3729(3) 0.15922(14) -0.3021(2)
N6C N 0.6271(3) -0.15922(14) 0.3021(2)
C18 C 0.1654(9) 0.1463(4) 0.2805(7)
C19 C 0.1565(11) 0.0893(4) 0.2325(6)
H18 H 0.2375 0.0730 0.2308
H19 H 0.1098 0.0620 0.2654
C20 C 0.0982(9) 0.0977(4) 0.1410(6)
H20 H 0.0238 0.0747 0.1309
H21 H 0.1517 0.0856 0.0961
C21 C 0.0690(8) 0.1624(5) 0.1298(7)
H22 H 0.1103 0.1799 0.0811
H23 H -0.0183 0.1689 0.1157
C22 C 0.1078(9) 0.2487(4) 0.2448(9)
H24 H 0.0687 0.2699 0.1920
H25 H 0.1885 0.2640 0.2619
H26 H 0.0610 0.2530 0.2960
N15 N 0.1155(7) 0.1860(3) 0.2209(6)
O2 O 0.2095(8) 0.1535(4) 0.3605(5)
C23 C 0.2378(13) -0.2486(6) -0.0255(8)
C24 C 0.2887(14) -0.2056(6) 0.0455(12)
H27 H 0.3761 -0.2103 0.0620
H28 H 0.2706 -0.1654 0.0262
C25 C 0.222(2) -0.2235(9) 0.1187(13)
H29 H 0.1730 -0.1905 0.1354
H30 H 0.2791 -0.2331 0.1728
C26 C 0.138(2) -0.2757(11) 0.0958(12)
H31 H 0.1636 -0.3098 0.1333
H32 H 0.0534 -0.2664 0.1025
C27 C 0.1074(10) -0.3220(4) -0.0526(6)
H33 H 0.0497 -0.3435 -0.0212
H34 H 0.1688 -0.3484 -0.0696
H35 H 0.0658 -0.3040 -0.1076
N16 N 0.1563(12) -0.2834(7) -0.0001(12)
O3 O 0.2737(13) -0.2478(7) -0.1055(13)
O4 O -0.0684(11) -0.3928(6) 0.0127(7)
loop_
_geom_bond_atom_site_label_1
_geom_bond_atom_site_label_2
_geom_bond_site_symmetry_1
_geom_bond_site_symmetry_2
Cd1 N3 1_555 1_555
Cd2 N4 1_555 1_555
C1 H1 1_555 1_555
C2 C1 1_555 1_555
H2 C2 1_555 1_555
C3 C2 1_555 1_555
C4 C3 1_555 1_555
H3 C4 1_555 1_555
C5 C4 1_555 1_555
H4 C5 1_555 1_555
C6 C3 1_555 1_555
C7 H5 1_555 1_555
C8 C7 1_555 1_555
H6 C8 1_555 1_555
C9 C8 1_555 1_555
C10 C9 1_555 1_555
H7 C10 1_555 1_555
C11 C10 1_555 1_555
H8 C11 1_555 1_555
C12 C9 1_555 1_555
C13 C14 1_555 1_555
C14 H9 1_555 1_555
H10 C14 1_555 1_555
C15 C14 1_555 1_555
H11 C15 1_555 1_555
H12 C15 1_555 1_555
C16 C15 1_555 1_555
H13 C16 1_555 1_555
H14 C16 1_555 1_555
C17 H15 1_555 1_555
H16 C17 1_555 1_555
H17 C17 1_555 1_555
N1 C1 1_555 1_555
N2 C6 1_555 1_555
N3 N2 1_555 1_555
N4 N3 1_555 1_555
N5 C6 1_555 1_555
N6 C7 1_555 1_555
N7 C12 1_555 1_555
N8 Cd1 1_555 1_555
N9 Cd2 1_555 1_555
N10 C12 1_555 1_555
N11 Cd1 1_555 1_555
N12 N11 1_555 1_555
N13 N12 1_555 1_555
N14 C13 1_555 1_555
O1 Cd2 1_555 1_555
C18 C19 1_555 1_555
C19 H18 1_555 1_555
H19 C19 1_555 1_555
C20 C19 1_555 1_555
H20 C20 1_555 1_555
H21 C20 1_555 1_555
C21 C20 1_555 1_555
H22 C21 1_555 1_555
H23 C21 1_555 1_555
C22 H24 1_555 1_555
H25 C22 1_555 1_555
H26 C22 1_555 1_555
N15 C18 1_555 1_555
O2 C18 1_555 1_555
C23 C24 1_555 1_555
C24 H27 1_555 1_555
H28 C24 1_555 1_555
C25 C24 1_555 1_555
H29 C25 1_555 1_555
H30 C25 1_555 1_555
C26 C25 1_555 1_555
H31 C26 1_555 1_555
H32 C26 1_555 1_555
C27 H33 1_555 1_555
H34 C27 1_555 1_555
H35 C27 1_555 1_555
N16 C23 1_555 1_555
O3 C23 1_555 1_555
Cd2B N4B 1_555 1_555
C1B H1B 1_555 1_555
C2B C1B 1_555 1_555
H2B C2B 1_555 1_555
C3B C2B 1_555 1_555
C4B C3B 1_555 1_555
H3B C4B 1_555 1_555
C5B C4B 1_555 1_555
H4B C5B 1_555 1_555
C6B C3B 1_555 1_555
C7B H5B 1_555 1_555
C8B C7B 1_555 1_555
H6B C8B 1_555 1_555
C9B C8B 1_555 1_555
C10B C9B 1_555 1_555
H7B C10B 1_555 1_555
C11B C10B 1_555 1_555
H8B C11B 1_555 1_555
C12B C9B 1_555 1_555
C13B C14B 1_555 1_555
C14B H9B 1_555 1_555
H10B C14B 1_555 1_555
C15B C14B 1_555 1_555
H11B C15B 1_555 1_555
H12B C15B 1_555 1_555
C16B C15B 1_555 1_555
H13B C16B 1_555 1_555
H14B C16B 1_555 1_555
C17B H15B 1_555 1_555
H16B C17B 1_555 1_555
H17B C17B 1_555 1_555
N1B C1B 1_555 1_555
N2B C6B 1_555 1_555
N3B Cd1 1_555 1_555
N4B N3B 1_555 1_555
N5B C6B 1_555 1_555
N6B C7B 1_555 1_555
N7B C12B 1_555 1_555
N8B Cd1 1_555 1_555
N9B Cd2B 1_555 1_555
N10B C12B 1_555 1_555
N11B Cd1 1_555 1_555
N12B N11B 1_555 1_555
N13B N12B 1_555 1_555
N14B C13B 1_555 1_555
O1B Cd2B 1_555 1_555
Cd2_2 N1 1_555 1_555
Cd2A N6B 1_555 1_555
Cd2B_2 N1B 1_555 1_555
Cd2C N6 1_555 1_555
N1_2 Cd2 1_555 1_555
N1B_2 Cd2B 1_555 1_555
N6A Cd2B 1_555 1_555
N6C Cd2 1_555 1_555
Cd2 N11 1_555 1_555
C5 N1 1_555 1_555
C11 N6 1_555 1_555
C13 O1 1_555 1_555
C16 N14 1_555 1_555
C17 N14 1_555 1_555
N4 N5 1_555 1_555
N7 N8 1_555 1_555
N8 N9 1_555 1_555
N9 N10 1_555 1_555
C21 N15 1_555 1_555
C22 N15 1_555 1_555
C26 N16 1_555 1_555
C27 N16 1_555 1_555
Cd2B N11B 1_555 1_555
C5B N1B 1_555 1_555
C11B N6B 1_555 1_555
C13B O1B 1_555 1_555
C16B N14B 1_555 1_555
C17B N14B 1_555 1_555
N2B N3B 1_555 1_555
N4B N5B 1_555 1_555
N7B N8B 1_555 1_555
N8B N9B 1_555 1_555
N9B N10B 1_555 1_555

#END
