
#######################################################################
#
#                 Cambridge Crystallographic Data Centre
#                                CCDC 
#
#######################################################################
#
# If this CIF has been generated from an entry in the Cambridge 
# Structural Database, then it will include bibliographic, chemical, 
# crystal, experimental, refinement or atomic coordinate data resulting 
# from the CCDC's data processing and validation procedures.
#
#######################################################################

data_ROGLOP
_symmetry_cell_setting           monoclinic
_symmetry_space_group_name_H-M   'C 2/c'
_symmetry_Int_Tables_number      15
_space_group_name_Hall           '-C 2yn'
loop_
_symmetry_equiv_pos_site_id
_symmetry_equiv_pos_as_xyz
1 x,y,z
2 1/2+x,1/2+y,z
3 -x,y,1/2-z
4 1/2-x,1/2+y,1/2-z
5 -x,-y,-z
6 1/2-x,1/2-y,-z
7 x,-y,1/2+z
8 1/2+x,1/2-y,1/2+z
_cell_length_a                   18.502(4)
_cell_length_b                   21.177(4)
_cell_length_c                   7.4933(15)
_cell_angle_alpha                90
_cell_angle_beta                 107.39(3)
_cell_angle_gamma                90
_cell_volume                     2801.8
loop_
_atom_site_label
_atom_site_type_symbol
_atom_site_fract_x
_atom_site_fract_y
_atom_site_fract_z
Ni1 Ni 0.0000 0.41123(2) 0.2500
Ni2 Ni 0.0000 0.0000 0.5000
O1 O -0.02258(12) 0.08685(8) 0.3736(3)
N1 N 0.38119(13) 0.48736(11) 0.4413(3)
C1 C 0.26964(17) 0.42362(14) 0.3848(5)
H1 H 0.2482 0.3835 0.3690
O2 O -0.00096(16) 0.42108(12) -0.0209(4)
C2 C 0.22475(16) 0.47667(15) 0.3782(4)
C3 C 0.34668(17) 0.43127(14) 0.4153(5)
H2 H 0.3760 0.3954 0.4177
C4 C 0.14037(17) 0.47145(16) 0.3413(4)
O3 O 0.10234(13) 0.52113(12) 0.3293(4)
C5 C 0.25985(17) 0.53453(15) 0.4043(5)
H3 H 0.2317 0.5712 0.4007
C6 C 0.33757(17) 0.53796(14) 0.4362(5)
H4 H 0.3604 0.5775 0.4548
O4 O 0.11306(13) 0.41619(12) 0.3239(4)
N2 N 0.0000 0.04645(15) 0.7500
N3 N 0.0000 0.10234(18) 0.7500
N4 N 0.0000 0.1563(2) 0.7500
C7 C 0.0000 0.11314(17) 0.2500
C8 C 0.0000 0.18426(17) 0.2500
N5 N 0.0000 0.31582(15) 0.2500
C9 C 0.0430(2) 0.28302(15) 0.1679(6)
H5 H 0.072(2) 0.3089(19) 0.116(6)
H6 H 0.035(2) 0.441(2) -0.060(6)
H7 H -0.033(2) 0.430(2) -0.092(6)
C10 C 0.0441(2) 0.21804(14) 0.1632(6)
H8 H 0.0742 0.1971 0.1024
Ni2A Ni 0.5000 0.5000 0.5000
Ni2F Ni 0.0000 0.0000 1.0000
Ni2F_2 Ni 0.0000 0.0000 0.0000
Ni2G Ni -0.5000 0.5000 0.0000
O1B O 0.02258(12) 0.08685(8) 0.1264(3)
O1D O 0.02258(12) -0.08685(8) 0.6264(3)
N1B N -0.38119(13) 0.48736(11) 0.0587(3)
N1A N -0.11881(13) -0.01264(11) 0.4413(3)
N1E N 0.11881(13) 0.01264(11) 0.5587(3)
C1B C -0.26964(17) 0.42362(14) 0.1152(5)
H1B H -0.2482 0.3835 0.1310
O2B O 0.00096(16) 0.42108(12) 0.5209(4)
C2B C -0.22475(16) 0.47667(15) 0.1218(4)
C3B C -0.34668(17) 0.43127(14) 0.0847(5)
H2B H -0.3760 0.3954 0.0823
C4B C -0.14037(17) 0.47145(16) 0.1587(4)
O3B O -0.10234(13) 0.52113(12) 0.1707(4)
C5B C -0.25985(17) 0.53453(15) 0.0957(5)
H3B H -0.2317 0.5712 0.0993
C6B C -0.33757(17) 0.53796(14) 0.0638(5)
H4B H -0.3604 0.5775 0.0452
O4B O -0.11306(13) 0.41619(12) 0.1761(4)
N2F N 0.0000 -0.04645(15) 0.2500
C9B C -0.0430(2) 0.28302(15) 0.3321(6)
H5B H -0.072(2) 0.3089(19) 0.384(6)
H6B H -0.035(2) 0.441(2) 0.560(6)
H7B H 0.033(2) 0.430(2) 0.592(6)
C10B C -0.0441(2) 0.21804(14) 0.3368(6)
H8B H -0.0742 0.1971 0.3976
loop_
_geom_bond_atom_site_label_1
_geom_bond_atom_site_label_2
_geom_bond_site_symmetry_1
_geom_bond_site_symmetry_2
Ni1 O2 1_555 1_555
Ni2 O1 1_555 1_555
O1 C7 1_555 1_555
N1 C3 1_555 1_555
C1 H1 1_555 1_555
O2 H6 1_555 1_555
C2 C1 1_555 1_555
C3 C1 1_555 1_555
H2 C3 1_555 1_555
C4 C2 1_555 1_555
O3 C4 1_555 1_555
C5 C2 1_555 1_555
H3 C5 1_555 1_555
C6 N1 1_555 1_555
H4 C6 1_555 1_555
O4 Ni1 1_555 1_555
N2 Ni2 1_555 1_555
N3 N2 1_555 1_555
N4 N3 1_555 1_555
C7 C8 1_555 1_555
C8 C10 1_555 1_555
N5 Ni1 1_555 1_555
C9 N5 1_555 1_555
H5 C9 1_555 1_555
H7 O2 1_555 1_555
C10 C9 1_555 1_555
H8 C10 1_555 1_555
Ni2A N1 1_555 1_555
Ni2F N2 1_555 1_555
Ni2F_2 O1B 1_555 1_555
Ni2G N1B 1_555 1_555
O1B C7 1_555 1_555
O1D Ni2 1_555 1_555
N1B C3B 1_555 1_555
N1A Ni2 1_555 1_555
N1E Ni2 1_555 1_555
C1B H1B 1_555 1_555
O2B Ni1 1_555 1_555
C2B C1B 1_555 1_555
C3B C1B 1_555 1_555
H2B C3B 1_555 1_555
C4B C2B 1_555 1_555
O3B C4B 1_555 1_555
C5B C2B 1_555 1_555
H3B C5B 1_555 1_555
C6B N1B 1_555 1_555
H4B C6B 1_555 1_555
O4B Ni1 1_555 1_555
N2F Ni2 1_555 1_555
C9B N5 1_555 1_555
H5B C9B 1_555 1_555
H6B O2B 1_555 1_555
H7B O2B 1_555 1_555
C10B C8 1_555 1_555
H8B C10B 1_555 1_555
C4 O4 1_555 1_555
C5 C6 1_555 1_555
Ni2F_2 N2F 1_555 1_555
C4B O4B 1_555 1_555
C5B C6B 1_555 1_555
C9B C10B 1_555 1_555

#END
