
#######################################################################
#
#                 Cambridge Crystallographic Data Centre
#                                CCDC 
#
#######################################################################
#
# If this CIF has been generated from an entry in the Cambridge 
# Structural Database, then it will include bibliographic, chemical, 
# crystal, experimental, refinement or atomic coordinate data resulting 
# from the CCDC's data processing and validation procedures.
#
#######################################################################

data_ROQVIE
_symmetry_cell_setting           monoclinic
_symmetry_space_group_name_H-M   'P 21/c'
_symmetry_Int_Tables_number      14
_space_group_name_Hall           '-P 2ybc'
loop_
_symmetry_equiv_pos_site_id
_symmetry_equiv_pos_as_xyz
1 x,y,z
2 -x,1/2+y,1/2-z
3 -x,-y,-z
4 x,1/2-y,1/2+z
_cell_length_a                   7.2259(2)
_cell_length_b                   18.6983(6)
_cell_length_c                   15.1420(6)
_cell_angle_alpha                90
_cell_angle_beta                 93.144(3)
_cell_angle_gamma                90
_cell_volume                     2042.79
loop_
_atom_site_label
_atom_site_type_symbol
_atom_site_fract_x
_atom_site_fract_y
_atom_site_fract_z
Zn1 Zn 0.36247(4) 0.579672(17) 0.48077(2)
N1 N -0.3725(3) 0.92961(13) 0.9558(2)
N2 N -0.2803(3) 0.99328(14) 0.95656(17)
N3 N 0.3204(4) 0.66093(15) 0.5675(2)
C1 C -0.1081(4) 0.91325(17) 0.8897(2)
C2 C -0.1221(4) 0.98346(18) 0.9171(2)
H1 H -0.0338 1.0187 0.9091
N4 N 0.2232(3) 0.88536(15) 0.87211(18)
N5 N 0.3226(3) 0.84339(16) 0.8182(2)
N6 N 0.0186(4) 0.83319(16) 0.7782(2)
C3 C 0.2400(4) 0.7617(2) 0.6953(3)
C4 C 0.0439(4) 0.87808(17) 0.8459(2)
C5 C 0.1521(5) 0.6890(3) 0.5719(3)
H2 H 0.0597 0.6744 0.5305
C6 C -0.2702(4) 0.88220(18) 0.9150(2)
H3 H -0.3031 0.8347 0.9050
C7 C 0.1963(4) 0.81378(19) 0.7640(2)
C8 C 0.1076(5) 0.7385(3) 0.6346(3)
H4 H -0.0126 0.7561 0.6354
C9 C 0.4496(5) 0.6842(3) 0.6265(3)
H5 H 0.5689 0.6658 0.6246
C10 C 0.4154(5) 0.7340(3) 0.6900(3)
H6 H 0.5107 0.7490 0.7294
Zn1A Zn -0.36247(4) 1.079672(17) 1.01923(2)
Zn1C Zn -0.63753(4) 0.920328(17) 0.98077(2)
Zn1C_2 Zn 0.36247(4) 0.920328(17) 0.98077(2)
N1C N 0.6275(3) 0.57039(13) 0.4558(2)
N2A N 0.2803(3) 0.49328(14) 0.54344(17)
N4C N 0.2232(3) 0.61464(15) 0.37211(18)
O1 O 0.8157(15) 0.7996(5) 0.3233(8)
H7 H 0.8565 0.8417 0.3162
H8 H 0.8449 0.7734 0.2802
O2 O 0.827(2) 0.5791(6) 0.7088(8)
H9 H 0.7449 0.5690 0.7447
H10 H 0.8419 0.6242 0.7070
loop_
_geom_bond_atom_site_label_1
_geom_bond_atom_site_label_2
_geom_bond_site_symmetry_1
_geom_bond_site_symmetry_2
Zn1 N3 1_555 1_555
N1 N2 1_555 1_555
N2 C2 1_555 1_555
N3 C5 1_555 1_555
C1 C2 1_555 1_555
C2 H1 1_555 1_555
N4 N5 1_555 1_555
N5 C7 1_555 1_555
N6 C4 1_555 1_555
C3 C7 1_555 1_555
C4 C1 1_555 1_555
C5 H2 1_555 1_555
C6 N1 1_555 1_555
H3 C6 1_555 1_555
C7 N6 1_555 1_555
C8 C3 1_555 1_555
H4 C8 1_555 1_555
C9 N3 1_555 1_555
H5 C9 1_555 1_555
C10 C3 1_555 1_555
H6 C10 1_555 1_555
O1 H7 1_555 1_555
H8 O1 1_555 1_555
O2 H9 1_555 1_555
H10 O2 1_555 1_555
Zn1A N2 1_555 1_555
Zn1C N1 1_555 1_555
Zn1C_2 N4 1_555 1_555
N1C Zn1 1_555 1_555
N2A Zn1 1_555 1_555
N4C Zn1 1_555 1_555
C1 C6 1_555 1_555
N4 C4 1_555 1_555
C5 C8 1_555 1_555
C9 C10 1_555 1_555

#END
