
#######################################################################
#
#                 Cambridge Crystallographic Data Centre
#                                CCDC 
#
#######################################################################
#
# If this CIF has been generated from an entry in the Cambridge 
# Structural Database, then it will include bibliographic, chemical, 
# crystal, experimental, refinement or atomic coordinate data resulting 
# from the CCDC's data processing and validation procedures.
#
#######################################################################

data_ROYJOG
_symmetry_cell_setting           hexagonal
_symmetry_space_group_name_H-M   'P 63/m m c'
_symmetry_Int_Tables_number      194
_space_group_name_Hall           "-P 6c 2'c"
loop_
_symmetry_equiv_pos_site_id
_symmetry_equiv_pos_as_xyz
1 x,y,z
2 -y,x-y,z
3 -x+y,-x,z
4 -x,-y,1/2+z
5 y,-x+y,1/2+z
6 x-y,x,1/2+z
7 y,x,-z
8 x-y,-y,-z
9 -x,-x+y,-z
10 -y,-x,1/2-z
11 -x+y,y,1/2-z
12 x,x-y,1/2-z
13 -x,-y,-z
14 y,-x+y,-z
15 x-y,x,-z
16 x,y,1/2-z
17 -y,x-y,1/2-z
18 -x+y,-x,1/2-z
19 -y,-x,z
20 -x+y,y,z
21 x,x-y,z
22 y,x,1/2+z
23 x-y,-y,1/2+z
24 -x,-x+y,1/2+z
_cell_length_a                   16.7427(4)
_cell_length_b                   16.7427(4)
_cell_length_c                   15.3279(8)
_cell_angle_alpha                90
_cell_angle_beta                 90
_cell_angle_gamma                120
_cell_volume                     3721.04
loop_
_atom_site_label
_atom_site_type_symbol
_atom_site_fract_x
_atom_site_fract_y
_atom_site_fract_z
Ni1 Ni 0.73533(3) 0.47067(7) 0.7500
O1 O 0.8249(3) 0.4788(2) 0.6544(2)
C1 C 0.8534(2) 0.4267(2) 0.6297(4)
C2 C 0.9274(2) 0.4637(2) 0.5609(4)
C3 C 0.9621(3) 0.5508(3) 0.5281(2)
O2 O 0.9290(5) 0.6077(5) 0.5493(5)
H1 H 0.8884 0.5829 0.5862
N1 N 1.1921(2) 0.3841(5) 0.2500
O3 O 1.3334 0.6667 0.2500
C4 C 1.2355(5) 0.3359(5) 0.2500
H2 H 1.2996 0.3681 0.2500
C5 C 1.1911(5) 0.2414(5) 0.2500
C6 C 1.0962(3) 0.1923(7) 0.2500
H3 H 1.2247 0.2109 0.2500
C7 C 1.0444(3) 0.0889(7) 0.2500
N2 N 1.0943(3) 0.0472(7) 0.2500
Ni1B Ni 0.73534(8) 0.26467(3) 0.7500
O1T O 0.8249(3) 0.3461(4) 0.6544(2)
C3T C 0.9621(3) 0.4113(4) 0.5281(2)
C3H C 1.0379(3) 0.5887(4) 0.4719(2)
C3L C 1.0379(3) 0.4492(3) 0.4719(2)
O2T O 0.9290(5) 0.3213(7) 0.5493(5)
C2H C 1.0726(2) 0.5363(3) 0.4391(4)
O2H O 1.0710(5) 0.6787(7) 0.4507(5)
O2L O 1.0710(5) 0.3923(5) 0.4507(5)
H1T H 0.8884 0.3055 0.5862
C1H C 1.1466(2) 0.5733(3) 0.3703(4)
H1H H 1.1116 0.6945 0.4138
H1L H 1.1116 0.4171 0.4138
O1L O 1.1751(3) 0.5212(2) 0.3456(2)
O1H O 1.1751(3) 0.6539(4) 0.3456(2)
Ni1C Ni 1.26467(3) 0.52933(7) 0.2500
Ni1E Ni 1.26466(8) 0.73533(3) 0.2500
O1V O 1.3461(4) 0.5212(2) 0.1544(2)
O1G O 1.3461(4) 0.5212(2) 0.3456(2)
O1C O 1.1751(3) 0.5212(2) 0.1544(2)
N1B N 1.1920(5) 0.8079(2) 0.2500
O1N O 1.3461(4) 0.8249(3) 0.3456(2)
O1E O 1.3461(4) 0.8249(3) 0.1544(2)
O1W O 1.1751(3) 0.6539(4) 0.1544(2)
Ni1D Ni 0.47067(7) -0.26466(8) 0.2500
C1D C 1.4267(2) 0.5733(3) 0.1297(4)
C4J C 1.1004(7) 0.3359(5) 0.2500
Ni1D_2 Ni 1.47067(7) 0.73534(8) 0.2500
C1F C 1.4267(2) 0.8534(2) 0.3703(4)
Ni1A Ni 1.52933(7) 1.26466(8) 0.7500
N1A N 0.6159(5) -0.1920(5) 0.2500
O1D O 1.4788(2) 0.6539(4) 0.1544(2)
C2D C 1.4637(2) 0.5363(3) 0.0609(4)
C5J C 1.0503(7) 0.2414(5) 0.2500
H2J H 1.0685 0.3681 0.2500
O1F O 1.4788(2) 0.8249(3) 0.3456(2)
N1A_2 N 1.6159(5) 0.8080(5) 0.2500
O1U O 1.4788(2) 0.8249(3) 0.1544(2)
O1M O 1.4788(2) 0.6539(4) 0.3456(2)
C2F C 1.4637(2) 0.9274(2) 0.4391(4)
O1R O 1.5212(2) 1.1751(3) 0.6544(2)
C4A C 0.6641(5) -0.1004(7) 0.2500
C4I C 0.6641(5) -0.2355(5) 0.2500
C3V C 1.4113(4) 0.4492(3) 0.0281(2)
C3D C 1.5508(3) 0.5887(4) 0.0281(2)
H3J H 0.9862 0.2109 0.2500
C3N C 1.4113(4) 0.9621(3) 0.4719(2)
C3F C 1.5508(3) 0.9621(3) 0.4719(2)
C1B C 1.5733(3) 1.1466(2) 0.6297(4)
C5A C 0.7586(5) -0.0503(7) 0.2500
H2A H 0.6319 -0.0685 0.2500
C5I C 0.7586(5) -0.1911(5) 0.2500
H2I H 0.6319 -0.2996 0.2500
O2V O 1.3213(7) 0.3923(5) 0.0493(5)
C3P C 1.4492(3) 0.4113(4) -0.0281(2)
O2D O 1.6077(5) 0.6787(7) 0.0493(5)
C3J C 1.5887(4) 0.5508(3) -0.0281(2)
O2N O 1.3213(7) 0.9290(5) 0.4507(5)
C3R C 1.4492(3) 1.0379(3) 0.5281(2)
C3B C 1.5887(4) 1.0379(3) 0.5281(2)
O2F O 1.6077(5) 0.9290(5) 0.4507(5)
C2B C 1.5363(3) 1.0726(2) 0.5609(4)
O1B O 1.6539(4) 1.1751(3) 0.6544(2)
C6A C 0.8077(7) -0.0961(8) 0.2500
H3A H 0.7891 0.0138 0.2500
H3I H 0.7891 -0.2247 0.2500
H1V H 1.3055 0.4171 0.0862
O2P O 1.3923(5) 0.3213(7) -0.0493(5)
C2J C 1.5363(3) 0.4637(2) -0.0609(4)
H1D H 1.5829 0.6945 0.0862
O2J O 1.6787(7) 0.6077(5) -0.0493(5)
N2A N 0.9528(7) 0.0471(8) 0.2500
H1N H 1.3055 0.8884 0.4138
O2R O 1.3923(5) 1.0710(5) 0.5493(5)
O2B O 1.6787(7) 1.0710(5) 0.5493(5)
H1F H 1.5829 0.8884 0.4138
Ni1B_2 Ni 1.73534(8) 1.26467(3) 0.7500
C7A C 0.9111(7) -0.0445(8) 0.2500
H1P H 1.4171 0.3055 -0.0862
C1J C 1.5733(3) 0.4267(2) -0.1297(4)
H1J H 1.6945 0.5829 -0.0862
C7B C 1.0445(8) -0.0444(3) 0.2500
H1R H 1.4171 1.1116 0.5862
H1B H 1.6945 1.1116 0.5862
N2B N 0.9529(8) -0.0943(3) 0.2500
O1J O 1.6539(4) 0.4788(2) -0.1544(2)
O1P O 1.5212(2) 0.3461(4) -0.1544(2)
C6B C 1.0961(8) -0.0962(3) 0.2500
Ni1_2 Ni 1.73533(3) 0.47067(7) -0.2500
Ni1A_2 Ni 1.52933(7) 0.26466(8) -0.2500
C5K C 1.1911(5) -0.0503(7) 0.2500
C5B C 1.0503(7) -0.1911(5) 0.2500
C4K C 1.2355(5) -0.1004(7) 0.2500
H3K H 1.2247 0.0138 0.2500
C4B C 1.1004(7) -0.2355(5) 0.2500
H3B H 0.9862 -0.2247 0.2500
N1B_2 N 1.1920(5) -0.1921(2) 0.2500
H2K H 1.2996 -0.0685 0.2500
H2B H 1.0685 -0.2996 0.2500
Ni1E_2 Ni 1.26466(8) -0.26467(3) 0.2500
loop_
_geom_bond_atom_site_label_1
_geom_bond_atom_site_label_2
_geom_bond_site_symmetry_1
_geom_bond_site_symmetry_2
Ni1 O1 1_555 1_555
O1 C1 1_555 1_555
C1 C2 1_555 1_555
C2 C3 1_555 1_555
C3 O2 1_555 1_555
O2 H1 1_555 1_555
N1 C4 1_555 1_555
O3 Ni1C 1_555 1_555
C4 H2 1_555 1_555
C5 C4 1_555 1_555
C6 C5 1_555 1_555
H3 C5 1_555 1_555
C7 C6 1_555 1_555
N2 C7 1_555 1_555
Ni1B O1T 1_555 1_555
O1T C1 1_555 1_555
C3T C2 1_555 1_555
C3H C3 1_555 1_555
C3L C3T 1_555 1_555
O2T C3T 1_555 1_555
C2H C3H 1_555 1_555
O2H C3H 1_555 1_555
O2L C3L 1_555 1_555
H1T O2T 1_555 1_555
C1H C2H 1_555 1_555
H1H O2H 1_555 1_555
H1L O2L 1_555 1_555
O1L C1H 1_555 1_555
O1H C1H 1_555 1_555
Ni1C N1 1_555 1_555
Ni1E O3 1_555 1_555
O1V Ni1C 1_555 1_555
O1G Ni1C 1_555 1_555
O1C Ni1C 1_555 1_555
N1B Ni1E 1_555 1_555
O1N Ni1E 1_555 1_555
O1E Ni1E 1_555 1_555
O1W Ni1E 1_555 1_555
Ni1D N1A 1_555 1_555
C1D O1V 1_555 1_555
C4J N1 1_555 1_555
Ni1D_2 O3 1_555 1_555
C1F O1N 1_555 1_555
Ni1A O1R 1_555 1_555
N1A C4A 1_555 1_555
O1D C1D 1_555 1_555
C2D C1D 1_555 1_555
C5J C6 1_555 1_555
H2J C4J 1_555 1_555
O1F Ni1D_2 1_555 1_555
N1A_2 Ni1D_2 1_555 1_555
O1U Ni1D_2 1_555 1_555
O1M Ni1D_2 1_555 1_555
C2F C1F 1_555 1_555
O1R C1B 1_555 1_555
C4A C5A 1_555 1_555
C4I N1A 1_555 1_555
C3V C2D 1_555 1_555
C3D C2D 1_555 1_555
H3J C5J 1_555 1_555
C3N C2F 1_555 1_555
C3F C2F 1_555 1_555
C1B C2B 1_555 1_555
C5A C6A 1_555 1_555
H2A C4A 1_555 1_555
C5I C4I 1_555 1_555
H2I C4I 1_555 1_555
O2V C3V 1_555 1_555
C3P C3V 1_555 1_555
O2D C3D 1_555 1_555
C3J C3D 1_555 1_555
O2N C3N 1_555 1_555
C3R C3N 1_555 1_555
C3B C3F 1_555 1_555
O2F C3F 1_555 1_555
C2B C3R 1_555 1_555
O1B C1B 1_555 1_555
C6A C5I 1_555 1_555
H3A C5A 1_555 1_555
H3I C5I 1_555 1_555
H1V O2V 1_555 1_555
O2P C3P 1_555 1_555
C2J C3P 1_555 1_555
H1D O2D 1_555 1_555
O2J C3J 1_555 1_555
N2A C7 1_555 1_555
H1N O2N 1_555 1_555
O2R C3R 1_555 1_555
O2B C3B 1_555 1_555
H1F O2F 1_555 1_555
Ni1B_2 O1B 1_555 1_555
C7A C6A 1_555 1_555
H1P O2P 1_555 1_555
C1J C2J 1_555 1_555
H1J O2J 1_555 1_555
C7B N2 1_555 1_555
H1R O2R 1_555 1_555
H1B O2B 1_555 1_555
N2B C7A 1_555 1_555
O1J C1J 1_555 1_555
O1P C1J 1_555 1_555
C6B C7B 1_555 1_555
Ni1_2 O1J 1_555 1_555
Ni1A_2 O1P 1_555 1_555
C5K C6B 1_555 1_555
C5B C6B 1_555 1_555
C4K C5K 1_555 1_555
H3K C5K 1_555 1_555
C4B C5B 1_555 1_555
H3B C5B 1_555 1_555
N1B_2 C4K 1_555 1_555
H2K C4K 1_555 1_555
H2B C4B 1_555 1_555
Ni1E_2 N1B_2 1_555 1_555
C3L C2H 1_555 1_555
O1L Ni1C 1_555 1_555
O1H Ni1E 1_555 1_555
C4J C5J 1_555 1_555
Ni1D_2 O1D 1_555 1_555
C1F O1F 1_555 1_555
C3J C2J 1_555 1_555
C3B C2B 1_555 1_555
N2A C7A 1_555 1_555
C7B N2B 1_555 1_555
C4B N1B_2 1_555 1_555

#END
