
#######################################################################
#
#                 Cambridge Crystallographic Data Centre
#                                CCDC 
#
#######################################################################
#
# If this CIF has been generated from an entry in the Cambridge 
# Structural Database, then it will include bibliographic, chemical, 
# crystal, experimental, refinement or atomic coordinate data resulting 
# from the CCDC's data processing and validation procedures.
#
#######################################################################

data_ROYMEZ
_symmetry_cell_setting           hexagonal
_symmetry_space_group_name_H-M   'P 65'
_symmetry_Int_Tables_number      170
_space_group_name_Hall           'P 65'
loop_
_symmetry_equiv_pos_site_id
_symmetry_equiv_pos_as_xyz
1 x,y,z
2 -y,x-y,2/3+z
3 -x+y,-x,1/3+z
4 -x,-y,1/2+z
5 y,-x+y,1/6+z
6 x-y,x,5/6+z
_cell_length_a                   19.4690(7)
_cell_length_b                   19.4690(7)
_cell_length_c                   20.6804(8)
_cell_angle_alpha                90
_cell_angle_beta                 90
_cell_angle_gamma                120
_cell_volume                     6788.55
loop_
_atom_site_label
_atom_site_type_symbol
_atom_site_fract_x
_atom_site_fract_y
_atom_site_fract_z
C1 C -0.09031(11) -0.06660(12) 0.00555(10)
C2 C -0.09200(12) 0.00031(12) -0.00273(10)
S1 S -0.18076(3) 0.00328(3) -0.00561(3)
S2 S -0.00624(3) 0.09281(3) -0.01428(3)
S3 S -0.00157(3) -0.06887(3) 0.01056(2)
S4 S -0.17609(3) -0.16010(3) 0.01225(3)
C3 C -0.13460(11) 0.10754(11) -0.00896(10)
C4 C -0.05503(11) 0.14817(11) -0.01341(9)
C5 C -0.04626(11) -0.17007(11) 0.02947(9)
C6 C -0.12624(11) -0.21287(11) 0.02841(9)
C7 C -0.29256(11) 0.19955(11) -0.00089(9)
C8 C -0.23073(11) 0.22999(11) -0.04553(9)
H1 H -0.2237 0.2713 -0.0740
C9 C -0.17953(11) 0.20029(11) -0.04864(9)
H2 H -0.1378 0.2210 -0.0795
C10 C -0.18885(11) 0.13996(11) -0.00665(10)
C11 C -0.25113(13) 0.10899(13) 0.03780(11)
H3 H -0.2584 0.0674 0.0660
C12 C -0.30239(13) 0.13896(13) 0.04078(10)
H4 H -0.3444 0.1181 0.0714
C13 C -0.34830(11) 0.23051(11) 0.00370(9)
O1 O -0.39843(9) 0.20771(9) 0.04892(7)
O2 O -0.34461(8) 0.28110(8) -0.03734(7)
C14 C 0.10964(11) 0.39706(11) -0.02249(9)
C15 C 0.11471(12) 0.34544(12) -0.06607(10)
H5 H 0.1559 0.3652 -0.0974
C16 C 0.05947(12) 0.26478(12) -0.06377(10)
H6 H 0.0630 0.2297 -0.0937
C17 C -0.00136(11) 0.23493(11) -0.01766(10)
C18 C -0.00698(11) 0.28734(11) 0.02488(10)
H7 H -0.0486 0.2679 0.0558
C19 C 0.04817(11) 0.36829(11) 0.02242(10)
H8 H 0.0438 0.4038 0.0514
C20 C 0.17327(11) 0.48258(11) -0.02281(10)
O3 O 0.23187(9) 0.50115(9) -0.05983(7)
O4 O 0.16752(8) 0.53065(8) 0.01405(7)
C21 C 0.12411(12) -0.24166(11) 0.06930(9)
C22 C 0.06398(11) -0.28363(11) 0.02459(10)
H9 H 0.0613 -0.3280 0.0030
C23 C 0.00798(11) -0.26142(11) 0.01115(9)
H10 H -0.0329 -0.2906 -0.0194
C24 C 0.01166(12) -0.19644(11) 0.04243(9)
C25 C 0.07331(13) -0.15290(13) 0.08596(11)
H11 H 0.0773 -0.1073 0.1063
C26 C 0.12872(13) -0.17566(13) 0.09961(10)
H12 H 0.1700 -0.1461 0.1298
C27 C 0.18370(12) -0.26651(12) 0.08487(10)
O5 O 0.18527(9) -0.31755(9) 0.04907(7)
O6 O 0.22699(9) -0.23492(9) 0.13382(7)
C28 C -0.27919(12) -0.46458(12) 0.04559(10)
C29 C -0.29713(13) -0.41990(12) 0.00331(11)
H13 H -0.3438 -0.4453 -0.0223
C30 C -0.24711(13) -0.33865(12) -0.00139(11)
H14 H -0.2597 -0.3089 -0.0305
C31 C -0.17828(12) -0.29987(11) 0.03620(9)
C32 C -0.16146(12) -0.34473(12) 0.07933(9)
H15 H -0.1156 -0.3193 0.1059
C33 C -0.21125(12) -0.42613(11) 0.08369(9)
H16 H -0.1989 -0.4560 0.1130
C34 C -0.33274(12) -0.55260(12) 0.04831(10)
O7 O -0.38862(9) -0.58463(8) 0.00705(7)
O8 O -0.32116(9) -0.59359(8) 0.08951(7)
Mn1 Mn 0.269540(17) 0.647391(17) 0.024488(14)
Mn2 Mn -0.437457(17) -0.707810(17) 0.021273(15)
O9 O 0.36611(10) 0.76973(9) 0.04197(8)
H17 H 0.3537(17) 0.8038(15) 0.0401(14)
H18 H 0.3940(16) 0.7731(17) 0.0733(11)
O10 O 0.36829(9) 0.62466(10) 0.01297(8)
H19 H 0.3724(18) 0.6117(18) -0.0247(10)
H20 H 0.4150(12) 0.6646(13) 0.0239(14)
O1_2 O -0.39843(9) -0.79229(9) 0.04892(7)
O2_2 O -0.34461(8) -0.71890(8) -0.03734(7)
O2D O 0.28110(8) 0.62571(11) 0.12933(7)
O3D O -0.49885(9) -0.73072(13) 0.10684(7)
O5_2 O 0.18527(9) 0.68245(9) 0.04907(7)
O6E O -0.53809(13) -0.77301(9) -0.03285(7)
O8E O 0.27243(12) 0.67884(9) -0.07716(7)
Mn1_2 Mn 0.269540(17) -0.352609(17) 0.024488(14)
Mn1D Mn -0.352609(17) -0.622149(24) 0.191155(14)
Mn1E Mn -0.377851(24) 0.269540(17) -0.142179(14)
Mn2_2 Mn -0.437457(17) 0.292190(17) 0.021273(15)
Mn2D Mn 0.292190(17) -0.270353(24) 0.187940(15)
Mn2E Mn 0.270353(24) 0.562543(17) -0.145394(15)
O11 O 0.35269(13) 0.90092(11) 0.03887(10)
C35 C 0.37742(17) 0.93498(15) 0.09098(14)
H21 H 0.3937 0.9100 0.1219
N1 N 0.38330(18) 1.00289(14) 0.10771(13)
C36 C 0.3571(4) 1.0440(3) 0.0651(3)
H22 H 0.3352 1.0130 0.0254
H23 H 0.4021 1.0961 0.0542
H24 H 0.3161 1.0508 0.0867
C37 C 0.4136(3) 1.0387(2) 0.1703(2)
H25 H 0.4287 1.0053 0.1951
H26 H 0.3725 1.0435 0.1938
H27 H 0.4602 1.0914 0.1644
O12 O -0.09311(15) 0.34639(18) 0.18096(14)
C38 C -0.0532(2) 0.4110(3) 0.15615(18)
H28 H -0.0052 0.4468 0.1776
N2 N -0.06973(15) 0.43694(15) 0.10182(12)
C39 C -0.1432(2) 0.3850(3) 0.06759(18)
H29 H -0.1735 0.3354 0.0918
H30 H -0.1308 0.3732 0.0245
H31 H -0.1747 0.4112 0.0634
C40 C -0.0198(3) 0.5136(2) 0.0770(2)
H32 H 0.0273 0.5414 0.1045
H33 H -0.0484 0.5431 0.0763
H34 H -0.0036 0.5096 0.0329
O13 O 0.51508(12) 0.74975(13) 0.03943(12)
H35 H 0.5320 0.7972 0.0287
C41 C 0.58062(19) 0.7385(2) 0.05390(18)
H36 H 0.6089 0.7699 0.0926
H37 H 0.6183 0.7572 0.0172
C42 C 0.5520(3) 0.6539(3) 0.0660(2)
H38 H 0.5207 0.6374 0.1059
H39 H 0.5975 0.6455 0.0704
H40 H 0.5189 0.6223 0.0297
loop_
_geom_bond_atom_site_label_1
_geom_bond_atom_site_label_2
_geom_bond_site_symmetry_1
_geom_bond_site_symmetry_2
C1 C2 1_555 1_555
C2 S1 1_555 1_555
S1 C3 1_555 1_555
S2 C2 1_555 1_555
S3 C1 1_555 1_555
S4 C1 1_555 1_555
C3 C4 1_555 1_555
C4 S2 1_555 1_555
C5 S3 1_555 1_555
C6 S4 1_555 1_555
C7 C8 1_555 1_555
C8 H1 1_555 1_555
C9 C8 1_555 1_555
H2 C9 1_555 1_555
C10 C3 1_555 1_555
C11 C10 1_555 1_555
H3 C11 1_555 1_555
C12 C7 1_555 1_555
H4 C12 1_555 1_555
C13 C7 1_555 1_555
O1 C13 1_555 1_555
O2 C13 1_555 1_555
C14 C15 1_555 1_555
C15 H5 1_555 1_555
C16 C15 1_555 1_555
H6 C16 1_555 1_555
C17 C4 1_555 1_555
C18 C17 1_555 1_555
H7 C18 1_555 1_555
C19 C14 1_555 1_555
H8 C19 1_555 1_555
C20 C14 1_555 1_555
O3 C20 1_555 1_555
O4 C20 1_555 1_555
C21 C22 1_555 1_555
C22 H9 1_555 1_555
C23 C22 1_555 1_555
H10 C23 1_555 1_555
C24 C5 1_555 1_555
C25 C24 1_555 1_555
H11 C25 1_555 1_555
C26 C21 1_555 1_555
H12 C26 1_555 1_555
C27 C21 1_555 1_555
O5 C27 1_555 1_555
O6 C27 1_555 1_555
C28 C29 1_555 1_555
C29 H13 1_555 1_555
C30 C29 1_555 1_555
H14 C30 1_555 1_555
C31 C6 1_555 1_555
C32 C31 1_555 1_555
H15 C32 1_555 1_555
C33 C28 1_555 1_555
H16 C33 1_555 1_555
C34 C28 1_555 1_555
O7 C34 1_555 1_555
O8 C34 1_555 1_555
Mn1 O4 1_555 1_555
Mn2 O7 1_555 1_555
O9 Mn1 1_555 1_555
H17 O9 1_555 1_555
H18 O9 1_555 1_555
O10 Mn1 1_555 1_555
H19 O10 1_555 1_555
H20 O10 1_555 1_555
O11 C35 1_555 1_555
C35 H21 1_555 1_555
N1 C35 1_555 1_555
C36 N1 1_555 1_555
H22 C36 1_555 1_555
H23 C36 1_555 1_555
H24 C36 1_555 1_555
C37 N1 1_555 1_555
H25 C37 1_555 1_555
H26 C37 1_555 1_555
H27 C37 1_555 1_555
O12 C38 1_555 1_555
C38 H28 1_555 1_555
N2 C38 1_555 1_555
C39 N2 1_555 1_555
H29 C39 1_555 1_555
H30 C39 1_555 1_555
H31 C39 1_555 1_555
C40 N2 1_555 1_555
H32 C40 1_555 1_555
H33 C40 1_555 1_555
H34 C40 1_555 1_555
O13 H35 1_555 1_555
C41 O13 1_555 1_555
H36 C41 1_555 1_555
H37 C41 1_555 1_555
C42 C41 1_555 1_555
H38 C42 1_555 1_555
H39 C42 1_555 1_555
H40 C42 1_555 1_555
O1_2 Mn2 1_555 1_555
O2_2 Mn2 1_555 1_555
O2D Mn1 1_555 1_555
O3D Mn2 1_555 1_555
O5_2 Mn1 1_555 1_555
O6E Mn2 1_555 1_555
O8E Mn1 1_555 1_555
Mn1_2 O5 1_555 1_555
Mn1D O8 1_555 1_555
Mn1E O2 1_555 1_555
Mn2_2 O1 1_555 1_555
Mn2D O6 1_555 1_555
Mn2E O3 1_555 1_555
C5 C6 1_555 1_555
C9 C10 1_555 1_555
C11 C12 1_555 1_555
O2 Mn2_2 1_555 1_555
C16 C17 1_555 1_555
C18 C19 1_555 1_555
C23 C24 1_555 1_555
C25 C26 1_555 1_555
C30 C31 1_555 1_555
C32 C33 1_555 1_555

#END
