
#######################################################################
#
#                 Cambridge Crystallographic Data Centre
#                                CCDC 
#
#######################################################################
#
# If this CIF has been generated from an entry in the Cambridge 
# Structural Database, then it will include bibliographic, chemical, 
# crystal, experimental, refinement or atomic coordinate data resulting 
# from the CCDC's data processing and validation procedures.
#
#######################################################################

data_ROYRII
_symmetry_cell_setting           orthorhombic
_symmetry_space_group_name_H-M   'P n a 21'
_symmetry_Int_Tables_number      33
_space_group_name_Hall           'P 2c -2n'
loop_
_symmetry_equiv_pos_site_id
_symmetry_equiv_pos_as_xyz
1 x,y,z
2 -x,-y,1/2+z
3 1/2-x,1/2+y,1/2+z
4 1/2+x,1/2-y,z
_cell_length_a                   19.0983(3)
_cell_length_b                   14.4221(3)
_cell_length_c                   30.5560(10)
_cell_angle_alpha                90
_cell_angle_beta                 90
_cell_angle_gamma                90
_cell_volume                     8416.27
loop_
_atom_site_label
_atom_site_type_symbol
_atom_site_fract_x
_atom_site_fract_y
_atom_site_fract_z
Er1 Er 0.141263(11) 0.462202(15) 0.747513(9)
O1 O 0.12024(19) 0.3404(3) 0.69900(14)
O2 O 0.1678(2) 0.6167(3) 0.73385(14)
O3 O 0.2166(2) 0.3410(3) 0.77101(15)
O4 O 0.0694(2) 0.3580(3) 0.78526(16)
O5 O 0.08212(19) 0.5531(3) 0.80315(15)
O6 O 0.1906(2) 0.5082(3) 0.81640(16)
O7 O -0.26340(18) 0.0298(3) 0.70156(15)
O8 O 0.52714(19) 1.0017(3) 0.72169(15)
C1 C 0.1355(3) 0.3171(4) 0.6602(2)
C2 C 0.1936(3) 0.6706(4) 0.7077(2)
H1 H 0.2289 0.3001 0.7489
H2 H 0.2582 0.3629 0.7820
C3 C 0.0080(4) 0.3684(6) 0.7945(3)
C4 C 0.1351(3) 0.5564(4) 0.8270(2)
Er2 Er 0.187847(12) 0.524188(15) 0.623267(10)
O9 O 0.1659(2) 0.3689(2) 0.63210(14)
C5 C 0.1165(3) 0.2199(4) 0.6458(2)
O10 O 0.2085(2) 0.6503(3) 0.66744(15)
C6 C 0.2119(3) 0.7677(4) 0.7230(2)
N1 N -0.0368(4) 0.3058(6) 0.80493(16)
H3 H -0.0086 0.4291 0.7940
C7 C 0.1385(3) 0.6170(4) 0.8659(2)
O11 O 0.3390(3) 0.9670(3) 1.05599(16)
O12 O 0.1262(2) 0.6468(3) 0.59038(16)
O13 O 0.2683(2) 0.5941(4) 0.5781(2)
O14 O -0.1973(2) 0.0210(3) 0.64316(15)
C8 C 0.1184(3) 0.1972(4) 0.6021(2)
C9 C 0.0954(3) 0.1506(4) 0.6762(2)
C10 C 0.2035(3) 0.7864(4) 0.7664(2)
C11 C 0.2329(3) 0.8394(4) 0.6927(2)
C12 C -0.0188(6) 0.2099(9) 0.8049(4)
C13 C -0.1076(5) 0.3238(10) 0.8158(3)
C14 C 0.0818(3) 0.6745(5) 0.8738(2)
C15 C 0.1990(3) 0.6211(4) 0.8942(2)
C16 C 0.3623(4) 0.9952(5) 1.0191(3)
H4 H 0.0912 0.6678 0.6074
H5 H 0.1067 0.6288 0.5651
C17 C 0.2942(4) 0.6661(6) 0.5689(3)
H6 H 0.1302 0.2429 0.5820
C18 C 0.1034(3) 0.1100(4) 0.5872(2)
O15 O 0.0904(2) 0.1690(3) 0.71935(14)
C19 C 0.0797(3) 0.0620(4) 0.6619(2)
H7 H 0.1887 0.7399 0.7854
C20 C 0.2175(3) 0.8778(4) 0.7830(2)
O16 O 0.2391(2) 0.8222(3) 0.64908(15)
C21 C 0.2475(2) 0.9282(4) 0.7074(2)
H8 H -0.0099 0.1899 0.8343
H9 H 0.0225 0.2006 0.7875
H10 H -0.0568 0.1745 0.7928
H11 H -0.1369 0.2762 0.8036
H12 H -0.1212 0.3829 0.8041
H13 H -0.1128 0.3246 0.8471
H14 H 0.0438 0.6747 0.8549
C22 C 0.0823(3) 0.7337(4) 0.9116(2)
C23 C 0.2036(3) 0.6836(4) 0.9281(2)
O17 O 0.2522(2) 0.5615(3) 0.88661(17)
O18 O 0.3889(3) 1.0707(4) 1.01329(19)
C24 C 0.3524(3) 0.9294(5) 0.9810(2)
N2 N 0.3534(4) 0.6788(5) 0.5482(3)
H15 H 0.2699 0.7192 0.5772
C25 C 0.1072(3) 0.0892(5) 0.5418(2)
C26 C 0.0857(3) 0.0391(3) 0.6177(2)
H16 H 0.0975 0.2244 0.7236
C27 C 0.0593(3) -0.0100(4) 0.6969(2)
C28 C 0.2078(3) 0.8966(5) 0.8270(2)
C29 C 0.2377(3) 0.9486(4) 0.7534(2)
H17 H 0.2506 0.7681 0.6453
C30 C 0.2665(3) 1.0005(4) 0.6739(2)
C31 C 0.1439(3) 0.7386(4) 0.9378(2)
C32 C 0.0238(4) 0.7870(5) 0.9220(3)
C33 C 0.2704(3) 0.6924(4) 0.9548(2)
H18 H 0.2417 0.5270 0.8663
C34 C 0.3791(4) 0.9555(5) 0.9413(2)
C35 C 0.3187(3) 0.8420(5) 0.9852(2)
C36 C 0.3876(6) 0.7712(8) 0.5414(4)
C37 C 0.3905(7) 0.5988(11) 0.5336(5)
H19 H 0.1172 0.1364 0.5220
C38 C 0.0967(4) 0.0032(5) 0.5270(3)
C39 C 0.0757(3) -0.0516(5) 0.6004(3)
H20 H 0.0602 -0.0707 0.6832
H21 H 0.0953 -0.0097 0.7193
C40 C -0.0107(3) 0.0013(4) 0.7192(2)
H22 H 0.1953 0.8490 0.8460
C41 C 0.2164(4) 0.9849(6) 0.8427(3)
C42 C 0.2452(4) 1.0392(5) 0.7713(3)
H23 H 0.2657 1.0603 0.6884
H24 H 0.2297 1.0012 0.6521
C43 C 0.3365(3) 0.9924(4) 0.6497(2)
C44 C 0.1410(4) 0.7973(5) 0.9751(3)
C45 C 0.0240(4) 0.8440(6) 0.9577(3)
H25 H -0.0159 0.7839 0.9044
C46 C 0.3109(3) 0.7834(4) 0.9488(2)
H26 H 0.2586 0.6859 0.9855
H27 H 0.3012 0.6414 0.9472
H28 H 0.4010 1.0128 0.9387
C47 C 0.3741(3) 0.8971(5) 0.9040(2)
O19 O 0.2926(2) 0.8145(3) 1.02424(15)
H29 H 0.3525 0.8188 0.5410
H30 H 0.4124 0.7710 0.5141
H31 H 0.4199 0.7829 0.5649
H32 H 0.4317 0.5905 0.5511
H33 H 0.4037 0.6068 0.5035
H34 H 0.3610 0.5452 0.5363
H35 H 0.0986 -0.0092 0.4971
C48 C 0.0824(3) -0.0697(5) 0.5575(3)
H36 H 0.0642 -0.0997 0.6193
C49 C -0.0189(3) -0.0058(4) 0.7651(2)
C50 C -0.0709(3) 0.0085(4) 0.6925(2)
H37 H 0.2105 0.9978 0.8723
C51 C 0.2343(4) 1.0553(6) 0.8132(3)
H38 H 0.2580 1.0880 0.7531
C52 C 0.3421(3) 0.9951(5) 0.6042(2)
C53 C 0.3981(3) 0.9917(4) 0.6740(2)
C54 C 0.0807(4) 0.8480(5) 0.9843(3)
H39 H 0.1797 0.8019 0.9934
H40 H -0.0151 0.8802 0.9639
C55 C 0.3397(3) 0.8102(5) 0.9087(2)
C56 C 0.4029(4) 0.9226(6) 0.8631(3)
H41 H 0.2838 0.8602 1.0392
H42 H 0.0777 -0.1302 0.5476
C57 C 0.0381(3) -0.0171(5) 0.7939(3)
C58 C -0.0871(3) -0.0009(5) 0.7834(2)
O20 O -0.0639(2) 0.0069(3) 0.64921(15)
C59 C -0.1395(3) 0.0173(4) 0.7123(2)
H43 H 0.2387 1.1156 0.8236
C60 C 0.2831(4) 0.9985(6) 0.5749(3)
C61 C 0.4088(3) 0.9988(5) 0.5833(3)
O21 O 0.39151(19) 0.9941(3) 0.71860(15)
C62 C 0.4645(3) 0.9904(4) 0.6543(2)
H44 H 0.0794 0.8853 1.0091
C63 C 0.3399(3) 0.7514(5) 0.8710(2)
H45 H 0.4251 0.9797 0.8604
C64 C 0.3990(4) 0.8670(6) 0.8282(3)
H46 H 0.0835 -0.0198 0.7831
C65 C 0.0264(4) -0.0240(7) 0.8380(3)
C66 C -0.0950(4) -0.0084(6) 0.8299(3)
C67 C -0.1459(3) 0.0101(4) 0.7557(2)
H47 H -0.1026 0.0107 0.6377
C68 C -0.2020(3) 0.0248(4) 0.6849(2)
H48 H 0.2383 0.9929 0.5866
C69 C 0.2899(4) 1.0093(6) 0.5317(3)
C70 C 0.4144(4) 1.0067(6) 0.5382(3)
C71 C 0.4685(3) 0.9941(4) 0.6097(2)
H49 H 0.4304 0.9995 0.7297
C72 C 0.5303(3) 0.9900(4) 0.6810(2)
C73 C 0.3683(3) 0.7807(6) 0.8329(3)
H50 H 0.3204 0.6924 0.8727
H51 H 0.4166 0.8859 0.8012
H52 H 0.0647 -0.0313 0.8564
C74 C -0.0398(4) -0.0205(6) 0.8563(3)
H53 H -0.1396 -0.0048 0.8420
H54 H -0.1904 0.0125 0.7681
H55 H 0.2497 1.0134 0.5146
C75 C 0.3561(5) 1.0146(7) 0.5109(3)
H56 H 0.4587 1.0069 0.5256
H57 H 0.5123 0.9934 0.5965
O22 O 0.58852(19) 0.9789(3) 0.66244(17)
H58 H 0.3671 0.7412 0.8088
H59 H -0.0458 -0.0265 0.8864
H60 H 0.3604 1.0228 0.4808
Er1C Er -0.358737(11) 0.037798(15) 0.747513(9)
Er1C_2 Er 0.641263(11) 1.037798(15) 0.747513(9)
O7C O 0.23660(18) 0.4702(3) 0.70156(15)
O8C O 0.02714(19) 0.4983(3) 0.72169(15)
Er2B Er 0.312153(12) 1.024188(15) 1.123267(10)
Er2C Er -0.312153(12) -0.024188(15) 0.623267(10)
Er2C_2 Er 0.687847(12) 0.975812(15) 0.623267(10)
O11B O 0.1610(3) 0.4670(3) 0.55599(16)
O14C O 0.3027(2) 0.4790(3) 0.64316(15)
O22C O 0.08852(19) 0.5211(3) 0.66244(17)
O23 O 0.5141(3) 0.7647(5) 0.6270(3)
N3 N 0.4730(3) 0.7529(5) 0.69402(18)
C76 C 0.5276(4) 0.7643(7) 0.6649(3)
H61 H 0.5734 0.7714 0.6746
C77 C 0.5042(5) 0.7511(8) 0.7397(3)
H62 H 0.5542 0.7576 0.7378
H63 H 0.4930 0.6933 0.7536
H64 H 0.4853 0.8013 0.7566
C78 C 0.3999(4) 0.7413(9) 0.7069(4)
H65 H 0.3710 0.7392 0.6813
H66 H 0.3859 0.7924 0.7250
H67 H 0.3948 0.6845 0.7230
O24 O 0.3023(3) 0.2479(5) 0.7144(3)
N4 N 0.3629(3) 0.2461(5) 0.65237(19)
C79 C 0.3075(5) 0.2492(7) 0.6768(4)
H68 H 0.2654 0.2531 0.6617
C80 C 0.3710(8) 0.2540(12) 0.6036(3)
H69 H 0.4190 0.2429 0.5958
H70 H 0.3577 0.3152 0.5944
H71 H 0.3416 0.2091 0.5895
C81 C 0.4312(4) 0.2433(9) 0.6742(4)
H72 H 0.4561 0.2998 0.6683
H73 H 0.4576 0.1916 0.6633
H74 H 0.4245 0.2368 0.7052
O25 O 0.7576(5) 0.7133(7) 0.3552(3)
N5 N 0.7158(5) 0.7222(5) 0.4274(3)
C82 C 0.7313(6) 0.6862(10) 0.3887(5)
H75 H 0.7187 0.6241 0.3869
C83 C 0.7261(8) 0.8248(6) 0.4360(6)
H76 H 0.7036 0.8414 0.4629
H77 H 0.7060 0.8599 0.4124
H78 H 0.7753 0.8381 0.4380
C84 C 0.6884(9) 0.6765(12) 0.4675(4)
H79 H 0.6389 0.6664 0.4644
H80 H 0.6969 0.7155 0.4924
H81 H 0.7115 0.6181 0.4716
O26 O 0.4515(9) 0.7913(14) 0.4160(7)
loop_
_geom_bond_atom_site_label_1
_geom_bond_atom_site_label_2
_geom_bond_site_symmetry_1
_geom_bond_site_symmetry_2
Er1 O1 1_555 1_555
O1 C1 1_555 1_555
O2 Er1 1_555 1_555
O3 Er1 1_555 1_555
O4 Er1 1_555 1_555
O5 Er1 1_555 1_555
O6 Er1 1_555 1_555
O7 C68 1_555 1_555
O8 C72 1_555 1_555
C1 O9 1_555 1_555
C2 O2 1_555 1_555
H1 O3 1_555 1_555
H2 O3 1_555 1_555
C3 O4 1_555 1_555
C4 O5 1_555 1_555
Er2 O9 1_555 1_555
C5 C1 1_555 1_555
O10 C2 1_555 1_555
C6 C2 1_555 1_555
N1 C3 1_555 1_555
H3 C3 1_555 1_555
C7 C4 1_555 1_555
O11 C16 1_555 1_555
O12 Er2 1_555 1_555
O13 Er2 1_555 1_555
O14 C68 1_555 1_555
C8 C5 1_555 1_555
C9 C5 1_555 1_555
C10 C6 1_555 1_555
C11 C6 1_555 1_555
C12 N1 1_555 1_555
C13 N1 1_555 1_555
C14 C7 1_555 1_555
C15 C7 1_555 1_555
C16 O18 1_555 1_555
H4 O12 1_555 1_555
H5 O12 1_555 1_555
C17 O13 1_555 1_555
H6 C8 1_555 1_555
C18 C8 1_555 1_555
O15 C9 1_555 1_555
C19 C9 1_555 1_555
H7 C10 1_555 1_555
C20 C10 1_555 1_555
O16 C11 1_555 1_555
C21 C11 1_555 1_555
H8 C12 1_555 1_555
H9 C12 1_555 1_555
H10 C12 1_555 1_555
H11 C13 1_555 1_555
H12 C13 1_555 1_555
H13 C13 1_555 1_555
H14 C14 1_555 1_555
C22 C14 1_555 1_555
C23 C15 1_555 1_555
O17 C15 1_555 1_555
C24 C16 1_555 1_555
N2 C17 1_555 1_555
H15 C17 1_555 1_555
C25 C18 1_555 1_555
C26 C18 1_555 1_555
H16 O15 1_555 1_555
C27 C19 1_555 1_555
C28 C20 1_555 1_555
C29 C20 1_555 1_555
H17 O16 1_555 1_555
C30 C21 1_555 1_555
C31 C22 1_555 1_555
C32 C22 1_555 1_555
C33 C23 1_555 1_555
H18 O17 1_555 1_555
C34 C24 1_555 1_555
C35 C24 1_555 1_555
C36 N2 1_555 1_555
C37 N2 1_555 1_555
H19 C25 1_555 1_555
C38 C25 1_555 1_555
C39 C26 1_555 1_555
H20 C27 1_555 1_555
H21 C27 1_555 1_555
C40 C27 1_555 1_555
H22 C28 1_555 1_555
C41 C28 1_555 1_555
C42 C29 1_555 1_555
H23 C30 1_555 1_555
H24 C30 1_555 1_555
C43 C30 1_555 1_555
C44 C31 1_555 1_555
C45 C32 1_555 1_555
H25 C32 1_555 1_555
C46 C33 1_555 1_555
H26 C33 1_555 1_555
H27 C33 1_555 1_555
H28 C34 1_555 1_555
C47 C34 1_555 1_555
O19 C35 1_555 1_555
H29 C36 1_555 1_555
H30 C36 1_555 1_555
H31 C36 1_555 1_555
H32 C37 1_555 1_555
H33 C37 1_555 1_555
H34 C37 1_555 1_555
H35 C38 1_555 1_555
C48 C38 1_555 1_555
H36 C39 1_555 1_555
C49 C40 1_555 1_555
C50 C40 1_555 1_555
H37 C41 1_555 1_555
C51 C41 1_555 1_555
H38 C42 1_555 1_555
C52 C43 1_555 1_555
C53 C43 1_555 1_555
C54 C44 1_555 1_555
H39 C44 1_555 1_555
H40 C45 1_555 1_555
C55 C46 1_555 1_555
C56 C47 1_555 1_555
H41 O19 1_555 1_555
H42 C48 1_555 1_555
C57 C49 1_555 1_555
C58 C49 1_555 1_555
O20 C50 1_555 1_555
C59 C50 1_555 1_555
H43 C51 1_555 1_555
C60 C52 1_555 1_555
C61 C52 1_555 1_555
O21 C53 1_555 1_555
C62 C53 1_555 1_555
H44 C54 1_555 1_555
C63 C55 1_555 1_555
H45 C56 1_555 1_555
C64 C56 1_555 1_555
H46 C57 1_555 1_555
C65 C57 1_555 1_555
C66 C58 1_555 1_555
C67 C58 1_555 1_555
H47 O20 1_555 1_555
C68 C59 1_555 1_555
H48 C60 1_555 1_555
C69 C60 1_555 1_555
C70 C61 1_555 1_555
C71 C61 1_555 1_555
H49 O21 1_555 1_555
C72 C62 1_555 1_555
C73 C63 1_555 1_555
H50 C63 1_555 1_555
H51 C64 1_555 1_555
H52 C65 1_555 1_555
C74 C65 1_555 1_555
H53 C66 1_555 1_555
H54 C67 1_555 1_555
H55 C69 1_555 1_555
C75 C69 1_555 1_555
H56 C70 1_555 1_555
H57 C71 1_555 1_555
O22 C72 1_555 1_555
H58 C73 1_555 1_555
H59 C74 1_555 1_555
H60 C75 1_555 1_555
O23 C76 1_555 1_555
N3 C76 1_555 1_555
C76 H61 1_555 1_555
C77 N3 1_555 1_555
H62 C77 1_555 1_555
H63 C77 1_555 1_555
H64 C77 1_555 1_555
C78 N3 1_555 1_555
H65 C78 1_555 1_555
H66 C78 1_555 1_555
H67 C78 1_555 1_555
O24 C79 1_555 1_555
N4 C79 1_555 1_555
C79 H68 1_555 1_555
C80 N4 1_555 1_555
H69 C80 1_555 1_555
H70 C80 1_555 1_555
H71 C80 1_555 1_555
C81 N4 1_555 1_555
H72 C81 1_555 1_555
H73 C81 1_555 1_555
H74 C81 1_555 1_555
O25 C82 1_555 1_555
N5 C82 1_555 1_555
C82 H75 1_555 1_555
C83 N5 1_555 1_555
H76 C83 1_555 1_555
H77 C83 1_555 1_555
H78 C83 1_555 1_555
C84 N5 1_555 1_555
H79 C84 1_555 1_555
H80 C84 1_555 1_555
H81 C84 1_555 1_555
Er1C O7 1_555 1_555
Er1C_2 O8 1_555 1_555
O7C Er1 1_555 1_555
O8C Er1 1_555 1_555
Er2B O11 1_555 1_555
Er2C O7 1_555 1_555
Er2C_2 O22 1_555 1_555
O11B Er2 1_555 1_555
O14C Er2 1_555 1_555
O22C Er2 1_555 1_555
O6 C4 1_555 1_555
Er2 O10 1_555 1_555
Er2 O7C 1_555 1_555
O14 Er2C 1_555 1_555
C19 C26 1_555 1_555
C21 C29 1_555 1_555
C23 C31 1_555 1_555
C35 C46 1_555 1_555
C39 C48 1_555 1_555
C42 C51 1_555 1_555
C45 C54 1_555 1_555
C47 C55 1_555 1_555
C59 C67 1_555 1_555
C62 C71 1_555 1_555
C64 C73 1_555 1_555
C66 C74 1_555 1_555
C70 C75 1_555 1_555

#END
