
#######################################################################
#
#                 Cambridge Crystallographic Data Centre
#                                CCDC 
#
#######################################################################
#
# If this CIF has been generated from an entry in the Cambridge 
# Structural Database, then it will include bibliographic, chemical, 
# crystal, experimental, refinement or atomic coordinate data resulting 
# from the CCDC's data processing and validation procedures.
#
#######################################################################

data_ROYROO
_symmetry_cell_setting           orthorhombic
_symmetry_space_group_name_H-M   'P n a 21'
_symmetry_Int_Tables_number      33
_space_group_name_Hall           'P 2c -2n'
loop_
_symmetry_equiv_pos_site_id
_symmetry_equiv_pos_as_xyz
1 x,y,z
2 -x,-y,1/2+z
3 1/2-x,1/2+y,1/2+z
4 1/2+x,1/2-y,z
_cell_length_a                   19.08923(19)
_cell_length_b                   14.38724(17)
_cell_length_c                   30.5462(4)
_cell_angle_alpha                90
_cell_angle_beta                 90
_cell_angle_gamma                90
_cell_volume                     8389.25
loop_
_atom_site_label
_atom_site_type_symbol
_atom_site_fract_x
_atom_site_fract_y
_atom_site_fract_z
Yb1 Yb 0.141348(9) 0.462687(12) 0.370201(6)
O1 O 0.23722(16) 0.4693(2) 0.41451(12)
O2 O 0.2160(2) 0.3423(3) 0.34652(12)
O3 O 0.16678(18) 0.6161(2) 0.38426(11)
O4 O 0.0690(2) 0.3599(3) 0.33288(12)
O5 O 0.02943(17) 0.4995(3) 0.39746(11)
O6 O 0.19032(19) 0.5091(3) 0.30225(12)
O7 O 0.08231(18) 0.5531(3) 0.31451(11)
O8 O 0.12145(17) 0.3420(2) 0.41896(11)
Yb2 Yb 0.189107(9) 0.524192(12) 0.494440(7)
H1 H 0.2319 0.3082 0.3692
H2 H 0.1942 0.3026 0.3281
C1 C 0.1951(2) 0.6703(3) 0.41049(16)
C2 C 0.0086(4) 0.3658(6) 0.3241(2)
C3 C 0.1357(3) 0.5563(3) 0.29143(17)
C4 C 0.1366(2) 0.3183(3) 0.45722(16)
O9 O 0.1616(2) 0.4668(3) 0.56149(12)
O10 O 0.30208(18) 0.4779(3) 0.47338(12)
O11 O 0.1283(2) 0.6471(3) 0.52721(12)
O12 O 0.21057(18) 0.6485(2) 0.45031(11)
O13 O 0.2698(2) 0.5925(4) 0.53909(14)
O14 O 0.08936(17) 0.5211(2) 0.45781(13)
O15 O 0.16718(18) 0.3700(2) 0.48522(10)
C5 C 0.2119(2) 0.7660(3) 0.39520(16)
H3 H -0.0113 0.4236 0.3296
N1 N -0.0333(3) 0.3053(4) 0.3084(3)
C6 C 0.1386(2) 0.6179(3) 0.25214(16)
C7 C 0.1168(2) 0.2220(3) 0.47132(15)
H4 H 0.0974 0.6686 0.5093
H5 H 0.1570 0.6912 0.5339
C8 C 0.2970(4) 0.6643(6) 0.5496(2)
C9 C 0.2333(2) 0.8380(3) 0.42473(17)
C10 C 0.2038(3) 0.7863(4) 0.35160(17)
C11 C -0.1078(4) 0.3165(9) 0.3003(4)
C12 C -0.0125(6) 0.2073(6) 0.3095(4)
C13 C 0.0820(3) 0.6731(4) 0.24328(17)
C14 C 0.1991(3) 0.6209(4) 0.22374(16)
C15 C 0.0959(2) 0.1523(3) 0.44195(15)
C16 C 0.1196(2) 0.2002(3) 0.51556(15)
N2 N 0.3543(4) 0.6767(5) 0.5701(3)
H6 H 0.2731 0.7180 0.5418
O16 O 0.2406(2) 0.8208(3) 0.46896(11)
C17 C 0.2481(2) 0.9271(3) 0.41073(17)
H7 H 0.1889 0.7401 0.3325
C18 C 0.2176(2) 0.8764(3) 0.33530(17)
H8 H -0.1260 0.3645 0.3190
H9 H -0.1315 0.2591 0.3064
H10 H -0.1152 0.3334 0.2703
H11 H -0.0008 0.1871 0.2804
H12 H -0.0505 0.1706 0.3205
H13 H 0.0275 0.2001 0.3282
C19 C 0.0824(3) 0.7348(4) 0.20673(18)
H14 H 0.0428 0.6704 0.2613
O17 O 0.2525(2) 0.5623(3) 0.23193(12)
C20 C 0.2035(3) 0.6840(4) 0.19017(15)
C21 C 0.0799(2) 0.0647(3) 0.45521(15)
O18 O 0.09097(19) 0.1707(2) 0.39825(10)
H15 H 0.1323 0.2458 0.5356
C22 C 0.1037(2) 0.1111(3) 0.53048(16)
C23 C 0.3924(6) 0.5955(8) 0.5844(4)
C24 C 0.3868(6) 0.7653(8) 0.5775(4)
H16 H 0.2580 0.7693 0.4725
C25 C 0.2384(2) 0.9476(3) 0.36493(19)
C26 C 0.2681(3) 0.9999(3) 0.44411(17)
C27 C 0.2081(3) 0.8943(4) 0.29045(18)
C28 C 0.0227(4) 0.7846(5) 0.1956(2)
C29 C 0.1435(3) 0.7389(4) 0.17974(17)
H17 H 0.2453 0.5349 0.2550
C30 C 0.2712(3) 0.6930(4) 0.16358(17)
C31 C 0.0854(2) 0.0400(3) 0.50026(18)
C32 C 0.0610(2) -0.0094(3) 0.42019(17)
H18 H 0.0975 0.2263 0.3940
C33 C 0.1074(3) 0.0887(4) 0.57585(17)
H19 H 0.3607 0.5440 0.5871
H20 H 0.4136 0.6078 0.6123
H21 H 0.4281 0.5807 0.5635
H22 H 0.3996 0.7925 0.5500
H23 H 0.4280 0.7571 0.5951
H24 H 0.3546 0.8055 0.5925
C34 C 0.2473(3) 1.0387(4) 0.3466(2)
C35 C 0.3367(3) 0.9906(3) 0.46767(18)
H25 H 0.2680 1.0597 0.4294
H26 H 0.2313 1.0018 0.4660
H27 H 0.1947 0.8470 0.2715
C36 C 0.2188(3) 0.9822(5) 0.2753(2)
C37 C 0.0215(4) 0.8407(5) 0.1593(2)
H28 H -0.0171 0.7799 0.2131
C38 C 0.1395(3) 0.7976(5) 0.14240(18)
C39 C 0.3099(3) 0.7831(4) 0.16891(16)
H29 H 0.2599 0.6851 0.1328
H30 H 0.3023 0.6427 0.1718
C40 C 0.0758(3) -0.0520(4) 0.5165(2)
C41 C -0.0111(2) 0.0018(3) 0.39840(17)
H31 H 0.0965 -0.0079 0.3975
H32 H 0.0629 -0.0702 0.4338
C42 C 0.0969(3) 0.0022(5) 0.5906(2)
H33 H 0.1174 0.1356 0.5958
H34 H 0.2610 1.0873 0.3648
C43 C 0.2364(4) 1.0549(5) 0.3046(2)
C44 C 0.3988(2) 0.9897(3) 0.44395(16)
C45 C 0.3423(2) 0.9945(4) 0.51431(18)
H35 H 0.2145 0.9946 0.2455
C46 C 0.0805(4) 0.8470(5) 0.1339(2)
H36 H -0.0187 0.8739 0.1521
H37 H 0.1777 0.8021 0.1236
C47 C 0.3187(3) 0.8427(4) 0.13247(16)
C48 C 0.3402(3) 0.8115(4) 0.20833(17)
C49 C 0.0820(3) -0.0690(4) 0.5604(2)
H38 H 0.0654 -0.1002 0.4973
C50 C -0.0712(2) 0.0091(3) 0.42383(17)
C51 C -0.0186(3) -0.0043(4) 0.35223(16)
H39 H 0.0994 -0.0107 0.6204
H40 H 0.2403 1.1153 0.2941
O19 O 0.39317(18) 0.9923(3) 0.39920(12)
C52 C 0.4659(3) 0.9892(3) 0.46441(17)
C53 C 0.4098(3) 0.9965(4) 0.53489(15)
C54 C 0.2825(3) 0.9987(5) 0.5430(2)
H41 H 0.0800 0.8867 0.1099
C55 C 0.3523(3) 0.9301(4) 0.13583(15)
O20 O 0.2916(2) 0.8142(3) 0.09310(11)
C56 C 0.3396(3) 0.7520(4) 0.24669(17)
C57 C 0.3745(3) 0.8992(4) 0.21289(16)
H42 H 0.0763 -0.1294 0.5706
O21 O -0.06338(19) 0.0076(3) 0.46778(12)
C58 C -0.1386(2) 0.0177(3) 0.40447(18)
C59 C -0.0865(3) 0.0017(4) 0.33355(18)
C60 C 0.0394(3) -0.0153(5) 0.3228(2)
H43 H 0.4319 0.9844 0.3882
C61 C 0.5316(2) 0.9883(3) 0.43796(17)
C62 C 0.4687(3) 0.9931(4) 0.50935(16)
C63 C 0.4138(4) 1.0054(6) 0.58136(18)
H44 H 0.2377 0.9956 0.5311
C64 C 0.2896(4) 1.0070(6) 0.5861(3)
C65 C 0.3790(3) 0.9553(4) 0.17583(18)
C66 C 0.3615(4) 0.9958(4) 0.09818(18)
H45 H 0.2924 0.8577 0.0757
H46 H 0.3190 0.6935 0.2452
C67 C 0.3688(3) 0.7814(5) 0.2845(2)
C68 C 0.4034(4) 0.9257(5) 0.2540(2)
H47 H -0.1019 0.0111 0.4795
C69 C -0.1451(2) 0.0121(4) 0.35999(17)
C70 C -0.2027(2) 0.0259(3) 0.43186(19)
C71 C -0.0942(3) -0.0060(5) 0.2862(2)
C72 C 0.0278(4) -0.0243(6) 0.2783(2)
H48 H 0.0849 -0.0164 0.3337
H49 H 0.5123 0.9935 0.5229
H50 H 0.4574 1.0074 0.5948
C73 C 0.3546(4) 1.0111(6) 0.6065(2)
H51 H 0.2494 1.0101 0.6033
H52 H 0.4012 1.0126 0.1783
O22 O 0.3895(3) 1.0703(3) 0.10354(14)
H53 H 0.3678 0.7417 0.3085
C74 C 0.4005(4) 0.8682(6) 0.2894(2)
H54 H 0.4248 0.9834 0.2567
H55 H -0.1893 0.0154 0.3473
C75 C -0.0390(3) -0.0193(5) 0.2602(2)
H56 H -0.1386 -0.0015 0.2739
H57 H 0.0658 -0.0341 0.2598
H58 H 0.3578 1.0177 0.6367
H59 H 0.4191 0.8864 0.3162
H60 H -0.0451 -0.0252 0.2301
O14C O 0.58936(17) 0.9789(2) 0.45781(13)
O5C O 0.52943(17) 1.0005(3) 0.39746(11)
O9B O 0.3384(2) 0.9668(3) 0.06149(12)
O1C O -0.26278(16) 0.0307(2) 0.41451(12)
O10C O -0.19792(18) 0.0221(3) 0.47338(12)
Yb2C Yb 0.689107(9) 0.975808(12) 0.494440(7)
Yb1C Yb 0.641348(9) 1.037313(12) 0.370201(6)
Yb2B Yb 0.310893(9) 1.024192(12) -0.005560(7)
Yb2C_2 Yb -0.310893(9) -0.024192(12) 0.494440(7)
Yb1C_2 Yb -0.358652(9) 0.037313(12) 0.370201(6)
O23 O 0.5166(4) 0.7644(5) 0.4897(2)
N3 N 0.4726(2) 0.7511(5) 0.42125(16)
C76 C 0.5203(4) 0.7639(8) 0.4540(2)
H61 H 0.5655 0.7742 0.4438
C77 C 0.5067(5) 0.7494(8) 0.37736(19)
H62 H 0.5116 0.8118 0.3666
H63 H 0.4783 0.7141 0.3574
H64 H 0.5521 0.7211 0.3797
C78 C 0.4011(3) 0.7399(11) 0.4283(4)
H65 H 0.3937 0.7096 0.4559
H66 H 0.3815 0.7027 0.4053
H67 H 0.3788 0.7996 0.4286
N4 N 0.3646(3) 0.2474(5) 0.4652(2)
O24 O 0.2994(3) 0.2473(5) 0.4054(2)
C79 C 0.4354(4) 0.2430(8) 0.4514(3)
H68 H 0.4372 0.2398 0.4201
H69 H 0.4571 0.1887 0.4636
H70 H 0.4598 0.2974 0.4612
C80 C 0.3075(6) 0.2504(7) 0.4452(3)
H71 H 0.2673 0.2554 0.4622
C81 C 0.3693(8) 0.2526(12) 0.5117(5)
H72 H 0.3893 0.1961 0.5229
H73 H 0.3233 0.2608 0.5238
H74 H 0.3983 0.3042 0.5198
N5 N 0.7148(6) 0.7252(6) 0.6913(4)
O25 O 0.7617(5) 0.7120(7) 0.7608(3)
C82 C 0.7314(8) 0.6792(12) 0.7298(5)
C83 C 0.7295(10) 0.8234(7) 0.6807(6)
C84 C 0.6910(10) 0.6802(15) 0.6504(7)
O26 O 0.4486(13) 0.7903(19) 0.7026(8)
O27? O 0.5262(17) 0.761(2) 0.6683(10)
loop_
_geom_bond_atom_site_label_1
_geom_bond_atom_site_label_2
_geom_bond_site_symmetry_1
_geom_bond_site_symmetry_2
Yb1 O1 1_555 1_555
O1 Yb2 1_555 1_555
O2 Yb1 1_555 1_555
O3 Yb1 1_555 1_555
O4 Yb1 1_555 1_555
O5 Yb1 1_555 1_555
O6 Yb1 1_555 1_555
O7 Yb1 1_555 1_555
O8 Yb1 1_555 1_555
Yb2 O9 1_555 1_555
H1 O2 1_555 1_555
H2 O2 1_555 1_555
C1 O3 1_555 1_555
C2 O4 1_555 1_555
C3 O6 1_555 1_555
C4 O8 1_555 1_555
O10 Yb2 1_555 1_555
O11 Yb2 1_555 1_555
O12 Yb2 1_555 1_555
O13 Yb2 1_555 1_555
O14 Yb2 1_555 1_555
O15 Yb2 1_555 1_555
C5 C1 1_555 1_555
H3 C2 1_555 1_555
N1 C2 1_555 1_555
C6 C3 1_555 1_555
C7 C4 1_555 1_555
H4 O11 1_555 1_555
H5 O11 1_555 1_555
C8 O13 1_555 1_555
C9 C5 1_555 1_555
C10 C5 1_555 1_555
C11 N1 1_555 1_555
C12 N1 1_555 1_555
C13 C6 1_555 1_555
C14 C6 1_555 1_555
C15 C7 1_555 1_555
C16 C7 1_555 1_555
N2 C8 1_555 1_555
H6 C8 1_555 1_555
O16 C9 1_555 1_555
C17 C9 1_555 1_555
H7 C10 1_555 1_555
C18 C10 1_555 1_555
H8 C11 1_555 1_555
H9 C11 1_555 1_555
H10 C11 1_555 1_555
H11 C12 1_555 1_555
H12 C12 1_555 1_555
H13 C12 1_555 1_555
C19 C13 1_555 1_555
H14 C13 1_555 1_555
O17 C14 1_555 1_555
C20 C14 1_555 1_555
C21 C15 1_555 1_555
O18 C15 1_555 1_555
H15 C16 1_555 1_555
C22 C16 1_555 1_555
C23 N2 1_555 1_555
C24 N2 1_555 1_555
H16 O16 1_555 1_555
C25 C17 1_555 1_555
C26 C17 1_555 1_555
C27 C18 1_555 1_555
C28 C19 1_555 1_555
C29 C19 1_555 1_555
H17 O17 1_555 1_555
C30 C20 1_555 1_555
C31 C21 1_555 1_555
C32 C21 1_555 1_555
H18 O18 1_555 1_555
C33 C22 1_555 1_555
H19 C23 1_555 1_555
H20 C23 1_555 1_555
H21 C23 1_555 1_555
H22 C24 1_555 1_555
H23 C24 1_555 1_555
H24 C24 1_555 1_555
C34 C25 1_555 1_555
C35 C26 1_555 1_555
H25 C26 1_555 1_555
H26 C26 1_555 1_555
H27 C27 1_555 1_555
C36 C27 1_555 1_555
C37 C28 1_555 1_555
H28 C28 1_555 1_555
C38 C29 1_555 1_555
C39 C30 1_555 1_555
H29 C30 1_555 1_555
H30 C30 1_555 1_555
C40 C31 1_555 1_555
C41 C32 1_555 1_555
H31 C32 1_555 1_555
H32 C32 1_555 1_555
C42 C33 1_555 1_555
H33 C33 1_555 1_555
H34 C34 1_555 1_555
C43 C34 1_555 1_555
C44 C35 1_555 1_555
C45 C35 1_555 1_555
H35 C36 1_555 1_555
C46 C37 1_555 1_555
H36 C37 1_555 1_555
H37 C38 1_555 1_555
C47 C39 1_555 1_555
C48 C39 1_555 1_555
C49 C40 1_555 1_555
H38 C40 1_555 1_555
C50 C41 1_555 1_555
C51 C41 1_555 1_555
H39 C42 1_555 1_555
H40 C43 1_555 1_555
O19 C44 1_555 1_555
C52 C44 1_555 1_555
C53 C45 1_555 1_555
C54 C45 1_555 1_555
H41 C46 1_555 1_555
C55 C47 1_555 1_555
O20 C47 1_555 1_555
C56 C48 1_555 1_555
C57 C48 1_555 1_555
H42 C49 1_555 1_555
O21 C50 1_555 1_555
C58 C50 1_555 1_555
C59 C51 1_555 1_555
C60 C51 1_555 1_555
H43 O19 1_555 1_555
C61 C52 1_555 1_555
C62 C52 1_555 1_555
C63 C53 1_555 1_555
H44 C54 1_555 1_555
C64 C54 1_555 1_555
C65 C55 1_555 1_555
C66 C55 1_555 1_555
H45 O20 1_555 1_555
H46 C56 1_555 1_555
C67 C56 1_555 1_555
C68 C57 1_555 1_555
H47 O21 1_555 1_555
C69 C58 1_555 1_555
C70 C58 1_555 1_555
C71 C59 1_555 1_555
C72 C60 1_555 1_555
H48 C60 1_555 1_555
H49 C62 1_555 1_555
H50 C63 1_555 1_555
C73 C63 1_555 1_555
H51 C64 1_555 1_555
H52 C65 1_555 1_555
O22 C66 1_555 1_555
H53 C67 1_555 1_555
C74 C67 1_555 1_555
H54 C68 1_555 1_555
H55 C69 1_555 1_555
C75 C71 1_555 1_555
H56 C71 1_555 1_555
H57 C72 1_555 1_555
H58 C73 1_555 1_555
H59 C74 1_555 1_555
H60 C75 1_555 1_555
O23 C76 1_555 1_555
N3 C76 1_555 1_555
C76 H61 1_555 1_555
C77 N3 1_555 1_555
H62 C77 1_555 1_555
H63 C77 1_555 1_555
H64 C77 1_555 1_555
C78 N3 1_555 1_555
H65 C78 1_555 1_555
H66 C78 1_555 1_555
H67 C78 1_555 1_555
N4 C79 1_555 1_555
O24 C80 1_555 1_555
C79 H68 1_555 1_555
H69 C79 1_555 1_555
H70 C79 1_555 1_555
C80 N4 1_555 1_555
H71 C80 1_555 1_555
C81 N4 1_555 1_555
H72 C81 1_555 1_555
H73 C81 1_555 1_555
H74 C81 1_555 1_555
N5 C82 1_555 1_555
O25 C82 1_555 1_555
C83 N5 1_555 1_555
C84 N5 1_555 1_555
O14C C61 1_555 1_555
O5C C61 1_555 1_555
O9B C66 1_555 1_555
O1C C70 1_555 1_555
O10C C70 1_555 1_555
Yb2C O14C 1_555 1_555
Yb1C O5C 1_555 1_555
Yb2B O9B 1_555 1_555
Yb2C_2 O1C 1_555 1_555
Yb1C_2 O1C 1_555 1_555
O7 C3 1_555 1_555
C1 O12 1_555 1_555
C4 O15 1_555 1_555
C18 C25 1_555 1_555
C20 C29 1_555 1_555
C22 C31 1_555 1_555
C36 C43 1_555 1_555
C38 C46 1_555 1_555
C42 C49 1_555 1_555
C53 C62 1_555 1_555
C57 C65 1_555 1_555
C59 C69 1_555 1_555
C64 C73 1_555 1_555
C68 C74 1_555 1_555
C72 C75 1_555 1_555
O10C Yb2C_2 1_555 1_555

#END
