
#######################################################################
#
#                 Cambridge Crystallographic Data Centre
#                                CCDC 
#
#######################################################################
#
# If this CIF has been generated from an entry in the Cambridge 
# Structural Database, then it will include bibliographic, chemical, 
# crystal, experimental, refinement or atomic coordinate data resulting 
# from the CCDC's data processing and validation procedures.
#
#######################################################################

data_RUTQAZ
_symmetry_cell_setting           triclinic
_symmetry_space_group_name_H-M   'P -1'
_symmetry_Int_Tables_number      2
_space_group_name_Hall           '-P 1'
loop_
_symmetry_equiv_pos_site_id
_symmetry_equiv_pos_as_xyz
1 x,y,z
2 -x,-y,-z
_cell_length_a                   8.2230(10)
_cell_length_b                   12.6761(16)
_cell_length_c                   16.491(2)
_cell_angle_alpha                92.777(2)
_cell_angle_beta                 98.560(3)
_cell_angle_gamma                90.609(2)
_cell_volume                     1697.53
loop_
_atom_site_label
_atom_site_type_symbol
_atom_site_fract_x
_atom_site_fract_y
_atom_site_fract_z
C1 C 0.7937(5) 1.3729(3) 0.2070(3)
C2 C 0.6472(6) 1.3190(3) 0.2110(3)
C3 C 0.6455(5) 1.2400(3) 0.2667(3)
H1 H 0.5481 1.2044 0.2714
C4 C 0.7927(6) 1.2152(4) 0.3154(3)
C5 C 0.9305(5) 1.2682(3) 0.3086(3)
H2 H 1.0283 1.2504 0.3406
C6 C 0.8080(5) 1.4655(3) 0.1537(3)
C7 C 0.4926(5) 1.3445(3) 0.1535(3)
C8 C 0.7940(6) 1.1266(4) 0.3745(3)
C9 C 0.9188(5) 1.2175(3) 0.0622(3)
H3 H 0.8557 1.2617 0.0271
C10 C 1.1047(5) 1.1594(3) 0.1525(3)
H4 H 1.1967 1.1569 0.1925
C11 C 1.0050(5) 1.0771(4) 0.1251(3)
H5 H 1.0149 1.0082 0.1420
C12 C 0.7471(6) 1.0547(4) 0.0195(3)
H6 H 0.7843 1.0164 -0.0264
H7 H 0.6633 1.1034 -0.0022
C13 C 0.6744(6) 0.9781(4) 0.0717(3)
C14 C 0.7025(6) 0.8692(4) 0.0648(3)
H8 H 0.7624 0.8427 0.0250
C15 C 0.6431(6) 0.8020(4) 0.1159(3)
H9 H 0.6585 0.7297 0.1088
C16 C 0.5599(6) 0.8399(4) 0.1783(3)
C17 C 0.5303(7) 0.9463(4) 0.1846(3)
H10 H 0.4723 0.9728 0.2251
C18 C 0.5863(6) 1.0152(4) 0.1308(3)
H11 H 0.5635 1.0868 0.1352
C19 C 0.5017(7) 0.7656(5) 0.2366(3)
H12 H 0.5915 0.7203 0.2568
H13 H 0.4720 0.8064 0.2834
C20 C 0.3530(5) 0.5953(3) 0.1919(3)
H14 H 0.4406 0.5522 0.2099
C21 C 0.2139(6) 0.7353(4) 0.1674(3)
H15 H 0.1830 0.8054 0.1637
C22 C 0.1176(5) 0.6482(3) 0.1410(3)
H16 H 0.0081 0.6487 0.1166
C23 C 1.0997(6) 0.7947(4) 0.4285(3)
H17 H 1.1789 0.7886 0.4745
C24 C 0.9199(6) 0.8537(4) 0.3444(3)
H18 H 0.8455 0.8994 0.3169
C25 C 0.9494(6) 0.7532(4) 0.3166(3)
H19 H 0.8962 0.7171 0.2696
C26 C 1.1267(6) 0.6098(4) 0.3692(3)
H20 H 1.2459 0.6102 0.3778
H21 H 1.0879 0.5737 0.3166
C27 C 1.0625(6) 0.5528(3) 0.4374(3)
C28 C 0.9025(6) 0.5136(4) 0.4284(3)
H22 H 0.8351 0.5221 0.3787
C29 C 1.1629(6) 0.5371(4) 0.5112(3)
H23 H 1.2721 0.5604 0.5198
N1 N 0.9318(4) 1.3459(3) 0.2570(2)
N2 N 1.0510(4) 1.2481(3) 0.1126(2)
N3 N 0.8861(5) 1.1144(3) 0.0675(2)
N4 N 0.3618(5) 0.7002(3) 0.1998(2)
N5 N 0.2111(4) 0.5590(3) 0.1567(2)
N6 N 1.0129(4) 0.8764(3) 0.4161(2)
N7 N 1.0673(5) 0.7187(3) 0.3698(2)
Ni1 Ni 1.0000 1.0000 0.5000
Ni2 Ni 1.13602(7) 1.40232(4) 0.13430(4)
O1 O 1.0709(4) 1.3999(2) 0.25332(18)
O2 O 0.8957(4) 1.4540(2) 0.09831(18)
O3 O 0.7319(4) 1.5446(2) 0.17172(19)
O4 O 0.5059(4) 1.3508(2) 0.08056(19)
O5 O 0.3648(4) 1.3536(2) 0.18616(18)
O6 O 0.9343(4) 1.0996(2) 0.40668(19)
O7 O 0.6601(4) 1.0881(2) 0.3865(2)
O8 O 1.1971(4) 1.3978(2) 0.01797(19)
H24 H 1.3108 1.3800 0.0203
H25 H 1.1795 1.4660 -0.0045
O9 O 1.2445(4) 1.0420(3) 0.4931(2)
H26 H 1.2724 1.0959 0.5250
H27 H 1.3062 0.9908 0.5079
C1_2 C -0.2063(5) 0.3729(3) 0.2070(3)
C2_2 C -0.3528(6) 0.3190(3) 0.2110(3)
C3_2 C -0.3545(5) 0.2400(3) 0.2667(3)
H1_2 H -0.4519 0.2044 0.2714
C4_2 C -0.2073(6) 0.2152(4) 0.3154(3)
C5_2 C -0.0695(5) 0.2682(3) 0.3086(3)
H2_2 H 0.0283 0.2504 0.3406
C6_2 C -0.1920(5) 0.4655(3) 0.1537(3)
C7_2 C -0.5074(5) 0.3445(3) 0.1535(3)
C8_2 C -0.2060(6) 0.1266(4) 0.3745(3)
C9_2 C -0.0812(5) 0.2175(3) 0.0622(3)
H3_2 H -0.1443 0.2617 0.0271
C10_2 C 0.1047(5) 0.1594(3) 0.1525(3)
H4_2 H 0.1967 0.1569 0.1925
C11_2 C 0.0050(5) 0.0771(4) 0.1251(3)
H5_2 H 0.0149 0.0082 0.1420
C12_2 C -0.2529(6) 0.0547(4) 0.0195(3)
H6_2 H -0.2157 0.0164 -0.0264
H7_2 H -0.3367 0.1034 -0.0022
C13_2 C -0.3256(6) -0.0219(4) 0.0717(3)
C14_2 C -0.2975(6) -0.1308(4) 0.0648(3)
H8_2 H -0.2376 -0.1573 0.0250
C15_2 C -0.3569(6) -0.1980(4) 0.1159(3)
H9_2 H -0.3415 -0.2703 0.1088
C16_2 C -0.4401(6) -0.1601(4) 0.1783(3)
C17_2 C -0.4697(7) -0.0537(4) 0.1846(3)
H10_2 H -0.5277 -0.0272 0.2251
C18_2 C -0.4137(6) 0.0152(4) 0.1308(3)
H11_2 H -0.4365 0.0868 0.1352
C19_2 C -0.4983(7) -0.2344(5) 0.2366(3)
H12_2 H -0.4085 -0.2797 0.2568
H13_2 H -0.5280 -0.1936 0.2834
C20_2 C -0.6470(5) -0.4047(3) 0.1919(3)
H14_2 H -0.5594 -0.4478 0.2099
C21_2 C -0.7861(6) -0.2647(4) 0.1674(3)
H15_2 H -0.8170 -0.1946 0.1637
C22_2 C -0.8824(5) -0.3518(3) 0.1410(3)
H16_2 H -0.9919 -0.3513 0.1166
C23A C 0.9003(6) 0.2053(4) 0.5715(3)
H17A H 0.8211 0.2114 0.5255
C24A C 1.0801(6) 0.1463(4) 0.6556(3)
H18A H 1.1545 0.1006 0.6831
C25A C 1.0506(6) 0.2468(4) 0.6834(3)
H19A H 1.1038 0.2829 0.7304
C26A C 0.8733(6) 0.3902(4) 0.6308(3)
H20A H 0.7541 0.3898 0.6222
H21A H 0.9121 0.4263 0.6834
C27A C 0.9375(6) 0.4472(3) 0.5626(3)
C28A C 1.0975(6) 0.4864(4) 0.5716(3)
H22A H 1.1649 0.4779 0.6213
C29A C 0.8371(6) 0.4629(4) 0.4888(3)
H23A H 0.7279 0.4396 0.4802
N1_2 N -0.0682(4) 0.3459(3) 0.2570(2)
N2_2 N 0.0510(4) 0.2481(3) 0.1126(2)
N3_2 N -0.1139(5) 0.1144(3) 0.0675(2)
N4_2 N -0.6382(5) -0.2998(3) 0.1998(2)
N5_2 N -0.7889(4) -0.4410(3) 0.1567(2)
N5_3 N 1.2111(4) 1.5590(3) 0.1567(2)
N6A N 0.9871(4) 0.1236(3) 0.5839(2)
N6A_2 N 0.9871(4) 1.1236(3) 0.5839(2)
N7A N 0.9327(5) 0.2813(3) 0.6302(2)
Ni1_2 Ni 0.0000 0.0000 0.5000
Ni1_3 Ni 1.0000 0.0000 0.5000
Ni2_2 Ni 0.13602(7) 0.40232(4) 0.13430(4)
Ni2_3 Ni -0.86398(7) -0.59768(4) 0.13430(4)
Ni2_4 Ni -0.86398(7) 0.40232(4) 0.13430(4)
Ni2_5 Ni 0.13602(7) 1.40232(4) 0.13430(4)
O1_2 O 0.0709(4) 0.3999(2) 0.25332(18)
O2_2 O -0.1043(4) 0.4540(2) 0.09831(18)
O3_2 O -0.2681(4) 0.5446(2) 0.17172(19)
O4_2 O -0.4941(4) 0.3508(2) 0.08056(19)
O5_2 O -0.6352(4) 0.3536(2) 0.18616(18)
O5_3 O 0.3648(4) 0.3536(2) 0.18616(18)
O5_4 O 1.3648(4) 1.3536(2) 0.18616(18)
O6_2 O -0.0657(4) 0.0996(2) 0.40668(19)
O6A O 1.0657(4) 0.9004(2) 0.59332(19)
O7_2 O -0.3399(4) 0.0881(2) 0.3865(2)
O8_2 O 0.1971(4) 0.3978(2) 0.01797(19)
H24_2 H 0.3108 0.3800 0.0203
H25_2 H 0.1795 0.4660 -0.0045
O9A O 0.7555(4) 0.9580(3) 0.5069(2)
H26A H 0.7276 0.9041 0.4750
H27A H 0.6938 1.0092 0.4921
O10 O 0.4064(4) 0.2378(3) 0.4866(2)
H28 H 0.3127 0.2384 0.4568
H29 H 0.4663 0.1924 0.4664
O11 O 0.2934(4) 0.0597(3) 0.3251(2)
H30 H 0.3715 0.0915 0.3074
H31 H 0.3329 0.0181 0.3617
O12 O 0.3692(4) 0.3822(3) 0.3640(2)
H32 H 0.2685 0.3979 0.3522
H33 H 0.4007 0.3500 0.3229
loop_
_geom_bond_atom_site_label_1
_geom_bond_atom_site_label_2
_geom_bond_site_symmetry_1
_geom_bond_site_symmetry_2
C1 C2 1_555 1_555
C2 C3 1_555 1_555
C3 H1 1_555 1_555
C4 C3 1_555 1_555
C5 C4 1_555 1_555
H2 C5 1_555 1_555
C6 C1 1_555 1_555
C7 C2 1_555 1_555
C8 C4 1_555 1_555
C9 H3 1_555 1_555
C10 H4 1_555 1_555
C11 C10 1_555 1_555
H5 C11 1_555 1_555
C12 H6 1_555 1_555
H7 C12 1_555 1_555
C13 C12 1_555 1_555
C14 C13 1_555 1_555
H8 C14 1_555 1_555
C15 C14 1_555 1_555
H9 C15 1_555 1_555
C16 C15 1_555 1_555
C17 C16 1_555 1_555
H10 C17 1_555 1_555
C18 C13 1_555 1_555
H11 C18 1_555 1_555
C19 C16 1_555 1_555
H12 C19 1_555 1_555
H13 C19 1_555 1_555
C20 H14 1_555 1_555
C21 H15 1_555 1_555
C22 C21 1_555 1_555
H16 C22 1_555 1_555
C23 H17 1_555 1_555
C24 H18 1_555 1_555
C25 C24 1_555 1_555
H19 C25 1_555 1_555
C26 H20 1_555 1_555
H21 C26 1_555 1_555
C27 C26 1_555 1_555
C28 C27 1_555 1_555
H22 C28 1_555 1_555
C29 C27 1_555 1_555
H23 C29 1_555 1_555
N1 C1 1_555 1_555
N2 C9 1_555 1_555
N3 C9 1_555 1_555
N4 C19 1_555 1_555
N5 C20 1_555 1_555
N6 C23 1_555 1_555
N7 C23 1_555 1_555
Ni1 N6 1_555 1_555
Ni2 N2 1_555 1_555
O1 N1 1_555 1_555
O2 C6 1_555 1_555
O3 C6 1_555 1_555
O4 C7 1_555 1_555
O5 C7 1_555 1_555
O6 C8 1_555 1_555
O7 C8 1_555 1_555
O8 Ni2 1_555 1_555
H24 O8 1_555 1_555
H25 O8 1_555 1_555
O9 Ni1 1_555 1_555
H26 O9 1_555 1_555
H27 O9 1_555 1_555
O10 H28 1_555 1_555
H29 O10 1_555 1_555
O11 H30 1_555 1_555
H31 O11 1_555 1_555
O12 H32 1_555 1_555
H33 O12 1_555 1_555
C1_2 C2_2 1_555 1_555
C2_2 C3_2 1_555 1_555
C3_2 H1_2 1_555 1_555
C4_2 C3_2 1_555 1_555
C5_2 C4_2 1_555 1_555
H2_2 C5_2 1_555 1_555
C6_2 C1_2 1_555 1_555
C7_2 C2_2 1_555 1_555
C8_2 C4_2 1_555 1_555
C9_2 H3_2 1_555 1_555
C10_2 H4_2 1_555 1_555
C11_2 C10_2 1_555 1_555
H5_2 C11_2 1_555 1_555
C12_2 H6_2 1_555 1_555
H7_2 C12_2 1_555 1_555
C13_2 C12_2 1_555 1_555
C14_2 C13_2 1_555 1_555
H8_2 C14_2 1_555 1_555
C15_2 C14_2 1_555 1_555
H9_2 C15_2 1_555 1_555
C16_2 C15_2 1_555 1_555
C17_2 C16_2 1_555 1_555
H10_2 C17_2 1_555 1_555
C18_2 C13_2 1_555 1_555
H11_2 C18_2 1_555 1_555
C19_2 C16_2 1_555 1_555
H12_2 C19_2 1_555 1_555
H13_2 C19_2 1_555 1_555
C20_2 H14_2 1_555 1_555
C21_2 H15_2 1_555 1_555
C22_2 C21_2 1_555 1_555
H16_2 C22_2 1_555 1_555
C23A H17A 1_555 1_555
C24A H18A 1_555 1_555
C25A C24A 1_555 1_555
H19A C25A 1_555 1_555
C26A H20A 1_555 1_555
H21A C26A 1_555 1_555
C27A C26A 1_555 1_555
C28A C29 1_555 1_555
H22A C28A 1_555 1_555
C29A C28 1_555 1_555
H23A C29A 1_555 1_555
N1_2 C1_2 1_555 1_555
N2_2 C9_2 1_555 1_555
N3_2 C9_2 1_555 1_555
N4_2 C19_2 1_555 1_555
N5_2 C20_2 1_555 1_555
N5_3 Ni2 1_555 1_555
N6A C23A 1_555 1_555
N6A_2 Ni1 1_555 1_555
N7A C23A 1_555 1_555
Ni1_2 O6_2 1_555 1_555
Ni1_3 N6A 1_555 1_555
Ni2_2 N5 1_555 1_555
Ni2_3 N5_2 1_555 1_555
Ni2_4 O5_2 1_555 1_555
Ni2_5 O5 1_555 1_555
O1_2 N1_2 1_555 1_555
O2_2 C6_2 1_555 1_555
O3_2 C6_2 1_555 1_555
O4_2 C7_2 1_555 1_555
O5_2 C7_2 1_555 1_555
O5_3 Ni2_2 1_555 1_555
O5_4 Ni2 1_555 1_555
O6_2 C8_2 1_555 1_555
O6A Ni1 1_555 1_555
O7_2 C8_2 1_555 1_555
O8_2 Ni2_2 1_555 1_555
H24_2 O8_2 1_555 1_555
H25_2 O8_2 1_555 1_555
O9A Ni1 1_555 1_555
H26A O9A 1_555 1_555
H27A O9A 1_555 1_555
C5 N1 1_555 1_555
C10 N2 1_555 1_555
C11 N3 1_555 1_555
C12 N3 1_555 1_555
C17 C18 1_555 1_555
C20 N4 1_555 1_555
C21 N4 1_555 1_555
C22 N5 1_555 1_555
C24 N6 1_555 1_555
C25 N7 1_555 1_555
C26 N7 1_555 1_555
Ni1 O6 1_555 1_555
Ni2 O1 1_555 1_555
Ni2 O2 1_555 1_555
C5_2 N1_2 1_555 1_555
C10_2 N2_2 1_555 1_555
C11_2 N3_2 1_555 1_555
C12_2 N3_2 1_555 1_555
C17_2 C18_2 1_555 1_555
C20_2 N4_2 1_555 1_555
C21_2 N4_2 1_555 1_555
C22_2 N5_2 1_555 1_555
C24A N6A 1_555 1_555
C25A N7A 1_555 1_555
C26A N7A 1_555 1_555
C27A C28A 1_555 1_555
C27A C29A 1_555 1_555
N2_2 Ni2_2 1_555 1_555
Ni2_2 O1_2 1_555 1_555
Ni2_2 O2_2 1_555 1_555

#END
