
#######################################################################
#
#                 Cambridge Crystallographic Data Centre
#                                CCDC 
#
#######################################################################
#
# If this CIF has been generated from an entry in the Cambridge 
# Structural Database, then it will include bibliographic, chemical, 
# crystal, experimental, refinement or atomic coordinate data resulting 
# from the CCDC's data processing and validation procedures.
#
#######################################################################

data_RUVMUR
_symmetry_cell_setting           orthorhombic
_symmetry_space_group_name_H-M   'P 21 21 21'
_symmetry_Int_Tables_number      19
_space_group_name_Hall           'P 2ac 2ab'
loop_
_symmetry_equiv_pos_site_id
_symmetry_equiv_pos_as_xyz
1 x,y,z
2 1/2-x,-y,1/2+z
3 -x,1/2+y,1/2-z
4 1/2+x,1/2-y,-z
_cell_length_a                   7.1599(9)
_cell_length_b                   39.159(5)
_cell_length_c                   9.7127(12)
_cell_angle_alpha                90
_cell_angle_beta                 90
_cell_angle_gamma                90
_cell_volume                     2723.19
loop_
_atom_site_label
_atom_site_type_symbol
_atom_site_fract_x
_atom_site_fract_y
_atom_site_fract_z
C1 C 1.0949(13) 0.1243(2) 0.6926(9)
C2 C 1.0708(12) 0.15496(18) 0.6261(9)
H1 H 1.0328 0.1558 0.5346
C3 C 1.1055(12) 0.1850(2) 0.7013(8)
C4 C 1.1617(12) 0.1841(2) 0.8372(9)
H2 H 1.1847 0.2041 0.8856
C5 C 1.1830(12) 0.1524(2) 0.8997(9)
C6 C 1.1497(12) 0.12260(19) 0.8295(9)
H3 H 1.1638 0.1016 0.8730
C7 C 1.1117(14) 0.0611(2) 0.6644(10)
H4 H 1.1953 0.0562 0.7350
C8 C 1.0237(15) 0.0385(2) 0.5825(10)
H5 H 1.0335 0.0149 0.5882
C9 C 0.9387(13) 0.0887(2) 0.5146(9)
H6 H 0.8837 0.1064 0.4657
C10 C 1.0945(15) 0.2214(2) 0.4889(9)
H7 H 1.1062 0.2048 0.4212
C11 C 1.0778(14) 0.2559(2) 0.4712(9)
H8 H 1.0746 0.2670 0.3865
C12 C 1.0732(14) 0.2472(2) 0.6918(9)
H9 H 1.0672 0.2507 0.7864
C13 C 1.1930(14) 0.1238(2) 1.1299(10)
H10 H 1.1206 0.1049 1.1083
C14 C 1.2707(15) 0.1304(2) 1.2511(9)
H11 H 1.2619 0.1167 1.3289
C15 C 1.3443(13) 0.1725(2) 1.1126(9)
H12 H 1.3937 0.1926 1.0773
C16 C 1.1036(13) 0.3802(2) 0.2647(9)
C17 C 1.0985(13) 0.4147(2) 0.2480(9)
H13 H 1.0611 0.4283 0.3214
C18 C 1.1478(12) 0.4302(2) 0.1243(10)
C19 C 1.1924(14) 0.4096(2) 0.0112(9)
C20 C 1.1941(14) 0.3749(2) 0.0311(10)
H14 H 1.2235 0.3610 -0.0436
C21 C 1.1550(13) 0.3594(2) 0.1550(9)
H15 H 1.1628 0.3358 0.1652
C22 C 1.0529(14) 0.3649(2) 0.4052(11)
C23 C 1.1377(16) 0.4696(2) 0.1245(10)
C24 C 1.2330(14) 0.4236(2) -0.1310(9)
Co1 Co 1.05255(15) 0.32250(2) 0.61794(10)
N1 N 0.9153(11) 0.05644(17) 0.4875(7)
N2 N 1.0534(10) 0.09274(15) 0.6230(7)
N3 N 1.0663(11) 0.27200(16) 0.5988(7)
N4 N 1.0899(10) 0.21670(15) 0.6328(7)
N5 N 1.3666(11) 0.16090(17) 1.2435(7)
N6 N 1.2386(11) 0.14993(16) 1.0425(6)
O1 O 1.0647(10) 0.33338(16) 0.4195(7)
O2 O 1.0047(12) 0.38437(17) 0.4996(7)
O3 O 1.2851(10) 0.48642(14) 0.1239(7)
O4 O 0.9801(11) 0.48163(18) 0.1341(8)
O5 O 1.2156(10) 0.45480(15) -0.1481(6)
O6 O 1.2704(12) 0.40295(15) -0.2263(6)
O7 O 0.4938(9) 0.04922(15) 0.4204(7)
O8 O 1.3052(8) 0.33752(14) 0.6927(6)
Zn1 Zn 0.74231(17) 0.03567(2) 0.34774(9)
Co1C Co 1.55255(15) 0.17750(2) 1.38206(10)
N5C N 0.8666(11) 0.33910(17) 0.7565(7)
O3B O 0.7149(10) -0.01358(14) 0.3761(7)
O5C O 0.7156(10) 0.04520(15) 0.1481(6)
Zn1B Zn 1.25769(17) 0.53567(2) 0.15226(9)
Zn1C Zn 1.24231(17) 0.46433(2) -0.34774(9)
Cl1 Cl 0.6491(5) 0.23310(8) 0.9145(4)
O9 O 0.2145(13) 0.0349(2) 0.2550(8)
O10 O 0.1430(11) 0.04215(18) 0.9866(7)
O11 O 0.5870(13) 0.79480(18) 0.6239(9)
loop_
_geom_bond_atom_site_label_1
_geom_bond_atom_site_label_2
_geom_bond_site_symmetry_1
_geom_bond_site_symmetry_2
C1 C2 1_555 1_555
C2 H1 1_555 1_555
C3 C2 1_555 1_555
C4 C3 1_555 1_555
H2 C4 1_555 1_555
C5 C4 1_555 1_555
C6 C1 1_555 1_555
H3 C6 1_555 1_555
C7 H4 1_555 1_555
C8 C7 1_555 1_555
H5 C8 1_555 1_555
C9 H6 1_555 1_555
C10 H7 1_555 1_555
C11 C10 1_555 1_555
H8 C11 1_555 1_555
C12 H9 1_555 1_555
C13 H10 1_555 1_555
C14 C13 1_555 1_555
H11 C14 1_555 1_555
C15 H12 1_555 1_555
C16 C17 1_555 1_555
C17 H13 1_555 1_555
C18 C17 1_555 1_555
C19 C18 1_555 1_555
C20 C19 1_555 1_555
H14 C20 1_555 1_555
C21 C16 1_555 1_555
H15 C21 1_555 1_555
C22 C16 1_555 1_555
C23 C18 1_555 1_555
C24 C19 1_555 1_555
Co1 N3 1_555 1_555
N1 C8 1_555 1_555
N2 C1 1_555 1_555
N3 C11 1_555 1_555
N4 C3 1_555 1_555
N5 C14 1_555 1_555
N6 C5 1_555 1_555
O1 C22 1_555 1_555
O2 C22 1_555 1_555
O3 C23 1_555 1_555
O4 C23 1_555 1_555
O5 C24 1_555 1_555
O6 C24 1_555 1_555
O7 Zn1 1_555 1_555
O8 Co1 1_555 1_555
Zn1 N1 1_555 1_555
Co1C N5 1_555 1_555
N5C Co1 1_555 1_555
O3B Zn1 1_555 1_555
O5C Zn1 1_555 1_555
Zn1B O3 1_555 1_555
Zn1C O5 1_555 1_555
C5 C6 1_555 1_555
C7 N2 1_555 1_555
C9 N1 1_555 1_555
C9 N2 1_555 1_555
C10 N4 1_555 1_555
C12 N3 1_555 1_555
C12 N4 1_555 1_555
C13 N6 1_555 1_555
C15 N5 1_555 1_555
C15 N6 1_555 1_555
C20 C21 1_555 1_555
Co1 O1 1_555 1_555

#END
