
#######################################################################
#
#                 Cambridge Crystallographic Data Centre
#                                CCDC 
#
#######################################################################
#
# If this CIF has been generated from an entry in the Cambridge 
# Structural Database, then it will include bibliographic, chemical, 
# crystal, experimental, refinement or atomic coordinate data resulting 
# from the CCDC's data processing and validation procedures.
#
#######################################################################

data_RUWWOW
_symmetry_cell_setting           triclinic
_symmetry_space_group_name_H-M   'P -1'
_symmetry_Int_Tables_number      2
_space_group_name_Hall           '-P 1'
loop_
_symmetry_equiv_pos_site_id
_symmetry_equiv_pos_as_xyz
1 x,y,z
2 -x,-y,-z
_cell_length_a                   9.376(5)
_cell_length_b                   9.940(4)
_cell_length_c                   11.377(7)
_cell_angle_alpha                92.979(6)
_cell_angle_beta                 97.836(5)
_cell_angle_gamma                110.330(3)
_cell_volume                     979.326
loop_
_atom_site_label
_atom_site_type_symbol
_atom_site_fract_x
_atom_site_fract_y
_atom_site_fract_z
La1 La 0.28444(7) 0.04771(6) -0.01678(6)
O1 O 0.0593(7) -0.1642(7) -0.0311(6)
O2 O -0.1776(7) -0.2352(7) 0.0175(7)
O3 O -0.5449(8) -0.7475(7) -0.1182(7)
O4 O -0.4179(8) -0.8936(7) -0.0786(6)
O5 O 0.0608(7) -0.6034(7) -0.2741(6)
O6 O -0.2854(8) -0.8958(9) -0.7963(6)
O7 O -0.1140(8) -0.9988(7) -0.7707(7)
C1 C -0.0743(12) -0.2595(10) -0.0299(9)
C2 C -0.1070(11) -0.4068(10) -0.0887(9)
C3 C -0.2458(11) -0.5189(10) -0.0797(9)
H1 H -0.3173 -0.4979 -0.0401
C4 C -0.2785(10) -0.6570(10) -0.1270(9)
C5 C -0.4230(11) -0.7722(9) -0.1063(9)
C6 C -0.1741(12) -0.6886(11) -0.1911(9)
H2 H -0.1922 -0.7827 -0.2219
C7 C -0.0435(11) -0.5761(10) -0.2071(8)
C8 C -0.0056(11) -0.4369(10) -0.1546(9)
H3 H 0.0862 -0.3649 -0.1632
C9 C -0.0006(11) -0.6769(10) -0.3888(8)
C10 C -0.1240(11) -0.6579(10) -0.4578(9)
H4 H -0.1700 -0.5966 -0.4290
C11 C -0.1777(13) -0.7323(11) -0.5710(10)
H5 H -0.2612 -0.7220 -0.6189
C12 C -0.1055(11) -0.8230(11) -0.6130(9)
C13 C -0.1712(12) -0.9087(10) -0.7326(9)
C14 C 0.0206(13) -0.8358(11) -0.5442(9)
H6 H 0.0697 -0.8939 -0.5737
C15 C 0.0746(12) -0.7620(11) -0.4311(10)
H7 H 0.1602 -0.7697 -0.3842
O8 O 0.4946(9) 0.2204(8) 0.1471(7)
O9 O 0.1891(9) 0.0471(9) 0.1883(8)
H8 H 0.55(2) 0.18(2) 0.186(18)
H9 H 0.517(17) 0.316(3) 0.154(13)
H10 H 0.263(9) 0.10(3) 0.250(6)
H11 H 0.090(5) 0.031(14) 0.192(12)
La1A La -0.28444(7) -1.04771(6) -0.98322(6)
La1_2 La -0.71556(7) -0.95229(6) -0.01678(6)
La1_3 La 0.28444(7) -0.95229(6) -1.01678(6)
La1_4 La 0.28444(7) 0.04771(6) -1.01678(6)
La1A_2 La -0.28444(7) -1.04771(6) 0.01678(6)
La1A_3 La -0.28444(7) -0.04771(6) 0.01678(6)
La1A_4 La 0.71556(7) -0.04771(6) -0.98322(6)
O1A O -0.0593(7) -0.8358(7) -0.9689(6)
O2A O 0.1776(7) -0.7648(7) -1.0175(7)
O2_2 O -0.1776(7) -1.2352(7) -0.9825(7)
O2A_2 O 0.1776(7) 0.2352(7) -0.0175(7)
O3A O 0.5449(8) -0.2525(7) -0.8818(7)
O3_2 O 0.4551(8) 0.2525(7) -0.1182(7)
O3A_2 O -0.4551(8) -1.2525(7) -0.8818(7)
O4A O 0.4179(8) -0.1064(7) -0.9214(6)
O4_2 O -0.4179(8) -0.8936(7) -1.0786(6)
O4_3 O 0.5821(8) 0.1064(7) -0.0786(6)
O4A_2 O -0.5821(8) -1.1064(7) -0.9214(6)
O4A_3 O 0.4179(8) -0.1064(7) 0.0786(6)
O5A O -0.0608(7) -0.3966(7) -0.7259(6)
O6A O 0.2854(8) -0.1042(9) -0.2037(6)
O7A O 0.1140(8) -0.0012(7) -0.2293(7)
C1A C 0.0743(12) -0.7405(10) -0.9701(9)
C2A C 0.1070(11) -0.5932(10) -0.9113(9)
C3A C 0.2458(11) -0.4811(10) -0.9203(9)
H1A H 0.3173 -0.5021 -0.9599
C4A C 0.2785(10) -0.3430(10) -0.8730(9)
C5A C 0.4230(11) -0.2278(9) -0.8937(9)
C6A C 0.1741(12) -0.3114(11) -0.8089(9)
H2A H 0.1922 -0.2173 -0.7781
C7A C 0.0435(11) -0.4239(10) -0.7929(8)
C8A C 0.0056(11) -0.5631(10) -0.8454(9)
H3A H -0.0862 -0.6351 -0.8368
C9A C 0.0006(11) -0.3231(10) -0.6112(8)
C10A C 0.1240(11) -0.3421(10) -0.5422(9)
H4A H 0.1700 -0.4034 -0.5710
C11A C 0.1777(13) -0.2677(11) -0.4290(10)
H5A H 0.2612 -0.2780 -0.3811
C12A C 0.1055(11) -0.1770(11) -0.3870(9)
C13A C 0.1712(12) -0.0913(10) -0.2674(9)
C14A C -0.0206(13) -0.1642(11) -0.4558(9)
H6A H -0.0697 -0.1061 -0.4263
C15A C -0.0746(12) -0.2380(11) -0.5689(10)
H7A H -0.1602 -0.2303 -0.6158
O8A O -0.4946(9) -1.2204(8) -1.1471(7)
O9A O -0.1891(9) -1.0471(9) -1.1883(8)
H8A H -0.55(2) -1.18(2) -1.186(18)
H9A H -0.517(17) -1.316(3) -1.154(13)
H10A H -0.263(9) -1.10(3) -1.250(6)
H11A H -0.090(5) -1.031(14) -1.192(12)
O10 O -0.6085(9) -0.5159(9) -0.2031(8)
H12 H -0.591(14) -0.589(9) -0.168(9)
H13 H -0.712(3) -0.545(15) -0.211(13)
O11 O 0.384(3) 0.145(4) 0.4265(19)
O12 O 0.501(3) 0.067(4) 0.616(2)
O13 O 0.438(7) 0.450(5) 0.384(4)
loop_
_geom_bond_atom_site_label_1
_geom_bond_atom_site_label_2
_geom_bond_site_symmetry_1
_geom_bond_site_symmetry_2
La1 O1 1_555 1_555
O1 C1 1_555 1_555
O2 C1 1_555 1_555
O3 C5 1_555 1_555
O4 C5 1_555 1_555
O5 C7 1_555 1_555
O6 C13 1_555 1_555
O7 C13 1_555 1_555
C1 C2 1_555 1_555
C2 C3 1_555 1_555
C3 H1 1_555 1_555
C4 C3 1_555 1_555
C5 C4 1_555 1_555
C6 C4 1_555 1_555
H2 C6 1_555 1_555
C7 C6 1_555 1_555
C8 C2 1_555 1_555
H3 C8 1_555 1_555
C9 O5 1_555 1_555
C10 C9 1_555 1_555
H4 C10 1_555 1_555
C11 C10 1_555 1_555
H5 C11 1_555 1_555
C12 C11 1_555 1_555
C13 C12 1_555 1_555
C14 C12 1_555 1_555
H6 C14 1_555 1_555
C15 C9 1_555 1_555
H7 C15 1_555 1_555
O8 La1 1_555 1_555
O9 La1 1_555 1_555
O10 H12 1_555 1_555
H8 O8 1_555 1_555
H9 O8 1_555 1_555
H10 O9 1_555 1_555
H11 O9 1_555 1_555
H13 O10 1_555 1_555
La1A O6 1_555 1_555
La1_2 O3 1_555 1_555
La1_3 O2A 1_555 1_555
La1_4 O4A 1_555 1_555
La1A_2 O4 1_555 1_555
La1A_3 O2 1_555 1_555
La1A_4 O3A 1_555 1_555
O1A La1A 1_555 1_555
O2A C1A 1_555 1_555
O2_2 La1A 1_555 1_555
O2A_2 La1 1_555 1_555
O3A C5A 1_555 1_555
O3_2 La1 1_555 1_555
O3A_2 La1A 1_555 1_555
O4A La1A_4 1_555 1_555
O4_2 La1A 1_555 1_555
O4_3 La1 1_555 1_555
O4A_2 La1A 1_555 1_555
O4A_3 La1 1_555 1_555
O5A C7A 1_555 1_555
O6A La1 1_555 1_555
O7A La1 1_555 1_555
C1A O1A 1_555 1_555
C2A C1A 1_555 1_555
C3A C2A 1_555 1_555
H1A C3A 1_555 1_555
C4A C3A 1_555 1_555
C5A O4A 1_555 1_555
C6A C4A 1_555 1_555
H2A C6A 1_555 1_555
C7A C6A 1_555 1_555
C8A C2A 1_555 1_555
H3A C8A 1_555 1_555
C9A O5A 1_555 1_555
C10A C9A 1_555 1_555
H4A C10A 1_555 1_555
C11A C10A 1_555 1_555
H5A C11A 1_555 1_555
C12A C11A 1_555 1_555
C13A O6A 1_555 1_555
C14A C12A 1_555 1_555
H6A C14A 1_555 1_555
C15A C9A 1_555 1_555
H7A C15A 1_555 1_555
O8A La1A 1_555 1_555
O9A La1A 1_555 1_555
H8A O8A 1_555 1_555
H9A O8A 1_555 1_555
H10A O9A 1_555 1_555
H11A O9A 1_555 1_555
O4 La1_2 1_555 1_555
O7 La1A 1_555 1_555
C7 C8 1_555 1_555
C14 C15 1_555 1_555
O7A C13A 1_555 1_555
C4A C5A 1_555 1_555
C7A C8A 1_555 1_555
C12A C13A 1_555 1_555
C14A C15A 1_555 1_555

#END
