
#######################################################################
#
#                 Cambridge Crystallographic Data Centre
#                                CCDC 
#
#######################################################################
#
# If this CIF has been generated from an entry in the Cambridge 
# Structural Database, then it will include bibliographic, chemical, 
# crystal, experimental, refinement or atomic coordinate data resulting 
# from the CCDC's data processing and validation procedures.
#
#######################################################################

data_RUWXOX
_symmetry_cell_setting           triclinic
_symmetry_space_group_name_H-M   'P -1'
_symmetry_Int_Tables_number      2
_space_group_name_Hall           '-P 1'
loop_
_symmetry_equiv_pos_site_id
_symmetry_equiv_pos_as_xyz
1 x,y,z
2 -x,-y,-z
_cell_length_a                   8.849(4)
_cell_length_b                   11.171(5)
_cell_length_c                   12.667(7)
_cell_angle_alpha                73.686(5)
_cell_angle_beta                 85.005(8)
_cell_angle_gamma                74.930(2)
_cell_volume                     1160.28
loop_
_atom_site_label
_atom_site_type_symbol
_atom_site_fract_x
_atom_site_fract_y
_atom_site_fract_z
La1 La 0.65737(6) 0.11115(5) 0.61855(4)
O1 O 1.4241(9) -0.9068(7) 1.3531(6)
O2 O 1.4438(8) -0.8181(6) 1.4865(6)
O3 O 1.4644(7) -0.3531(5) 1.3790(5)
O4 O 1.2867(8) -0.2339(6) 1.2519(6)
O5 O 1.2985(8) -0.5407(6) 1.0171(5)
O6 O 0.7656(7) -0.0494(6) 0.8003(5)
O7 O 0.9429(8) -0.0319(6) 0.6664(5)
O8 O 0.4147(8) 0.1146(7) 0.7444(6)
O9 O 0.8052(8) 0.2612(6) 0.4918(6)
N1 N 0.2739(10) 0.0157(8) 0.8797(7)
N2 N 0.8910(10) 0.4356(8) 0.3987(7)
C1 C 1.4262(10) -0.8128(8) 1.3877(7)
C2 C 1.4063(9) -0.6863(8) 1.3041(7)
C3 C 1.4157(10) -0.5775(7) 1.3378(6)
H1 H 1.4465 -0.5875 1.4087
C4 C 1.3785(10) -0.4563(8) 1.2642(7)
C5 C 1.3785(11) -0.3419(8) 1.3004(7)
C6 C 1.3350(10) -0.4412(8) 1.1575(7)
H2 H 1.3074 -0.3595 1.1091
C7 C 1.3326(10) -0.5475(8) 1.1236(7)
C8 C 1.3650(10) -0.6714(8) 1.1971(7)
H3 H 1.3588 -0.7421 1.1743
C9 C 1.2000(10) -0.4271(8) 0.9572(7)
C10 C 1.0575(10) -0.3742(9) 0.9999(7)
H4 H 1.0266 -0.4118 1.0709
C11 C 0.9618(11) -0.2647(9) 0.9356(7)
H5 H 0.8652 -0.2286 0.9633
C12 C 1.0084(10) -0.2074(8) 0.8289(7)
C13 C 0.8974(10) -0.0884(8) 0.7616(7)
C14 C 1.1512(11) -0.2641(9) 0.7884(7)
H6 H 1.1831 -0.2269 0.7175
C15 C 1.2462(10) -0.3740(9) 0.8507(7)
H7 H 1.3407 -0.4125 0.8220
C16 C 0.2713(14) -0.0851(10) 0.9811(8)
H8 H 0.1650 -0.0821 1.0055
H9 H 0.3282 -0.0724 1.0365
H10 H 0.3190 -0.1674 0.9681
C17 C 0.1255(11) 0.0991(10) 0.8348(9)
H11 H 0.0414 0.0741 0.8816
H12 H 0.1139 0.0917 0.7625
H13 H 0.1232 0.1867 0.8309
C18 C 0.4048(12) 0.0315(9) 0.8301(7)
H14 H 0.4972 -0.0238 0.8615
C19 C 0.7828(10) 0.3776(8) 0.4503(8)
H15 H 0.6824 0.4284 0.4556
C20 C 1.0501(12) 0.3592(11) 0.3845(11)
H16 H 1.1141 0.4155 0.3456
H17 H 1.0462 0.2998 0.3434
H18 H 1.0940 0.3123 0.4554
C21 C 0.8566(14) 0.5723(10) 0.3462(10)
H19 H 0.9506 0.5953 0.3134
H20 H 0.8164 0.6187 0.4001
H21 H 0.7800 0.5937 0.2904
O10 O 0.7689(8) 0.0181(7) 0.4520(5)
H22 H 0.854(7) 0.014(10) 0.408(7)
H23 H 0.694(13) -0.022(17) 0.448(11)
La1A La 1.34263(6) -1.11115(5) 1.38145(4)
La1_2 La 1.65737(6) -0.88885(5) 1.61855(4)
La1A_2 La 1.34263(6) -0.11115(5) 1.38145(4)
O1A O 0.5759(9) -0.0932(7) 0.6469(6)
O2_2 O 0.4438(8) 0.1819(6) 0.4865(6)
O3A O 0.5356(7) 0.3531(5) 0.6210(5)
O4A O 0.7133(8) 0.2339(6) 0.7481(6)
loop_
_geom_bond_atom_site_label_1
_geom_bond_atom_site_label_2
_geom_bond_site_symmetry_1
_geom_bond_site_symmetry_2
La1 O6 1_555 1_555
O1 C1 1_555 1_555
O2 C1 1_555 1_555
O3 C5 1_555 1_555
O4 C5 1_555 1_555
O5 C7 1_555 1_555
O6 C13 1_555 1_555
O7 La1 1_555 1_555
O8 La1 1_555 1_555
O9 La1 1_555 1_555
N1 C16 1_555 1_555
N2 C19 1_555 1_555
C1 C2 1_555 1_555
C2 C3 1_555 1_555
C3 H1 1_555 1_555
C4 C3 1_555 1_555
C5 C4 1_555 1_555
C6 C4 1_555 1_555
H2 C6 1_555 1_555
C7 C6 1_555 1_555
C8 C2 1_555 1_555
H3 C8 1_555 1_555
C9 O5 1_555 1_555
C10 C9 1_555 1_555
H4 C10 1_555 1_555
C11 C10 1_555 1_555
H5 C11 1_555 1_555
C12 C11 1_555 1_555
C13 O7 1_555 1_555
C14 C12 1_555 1_555
H6 C14 1_555 1_555
C15 C9 1_555 1_555
H7 C15 1_555 1_555
C16 H8 1_555 1_555
H9 C16 1_555 1_555
H10 C16 1_555 1_555
C17 N1 1_555 1_555
H11 C17 1_555 1_555
H12 C17 1_555 1_555
H13 C17 1_555 1_555
C18 O8 1_555 1_555
H14 C18 1_555 1_555
C19 O9 1_555 1_555
H15 C19 1_555 1_555
C20 N2 1_555 1_555
H16 C20 1_555 1_555
H17 C20 1_555 1_555
H18 C20 1_555 1_555
C21 N2 1_555 1_555
H19 C21 1_555 1_555
H20 C21 1_555 1_555
H21 C21 1_555 1_555
O10 La1 1_555 1_555
H22 O10 1_555 1_555
H23 O10 1_555 1_555
La1A O1 1_555 1_555
La1_2 O2 1_555 1_555
La1A_2 O3 1_555 1_555
O1A La1 1_555 1_555
O2_2 La1 1_555 1_555
O3A La1 1_555 1_555
O4A La1 1_555 1_555
O4 La1A_2 1_555 1_555
N1 C18 1_555 1_555
C7 C8 1_555 1_555
C12 C13 1_555 1_555
C14 C15 1_555 1_555

#END
