
#######################################################################
#
#                 Cambridge Crystallographic Data Centre
#                                CCDC 
#
#######################################################################
#
# If this CIF has been generated from an entry in the Cambridge 
# Structural Database, then it will include bibliographic, chemical, 
# crystal, experimental, refinement or atomic coordinate data resulting 
# from the CCDC's data processing and validation procedures.
#
#######################################################################

data_SACMOA
_symmetry_cell_setting           monoclinic
_symmetry_space_group_name_H-M   'C 2/c'
_symmetry_Int_Tables_number      15
_space_group_name_Hall           '-C 2yn'
loop_
_symmetry_equiv_pos_site_id
_symmetry_equiv_pos_as_xyz
1 x,y,z
2 -x,y,1/2-z
3 1/2+x,1/2+y,z
4 1/2-x,1/2+y,1/2-z
5 -x,-y,-z
6 x,-y,1/2+z
7 1/2-x,1/2-y,-z
8 1/2+x,1/2-y,1/2+z
_cell_length_a                   16.619(6)
_cell_length_b                   7.416(3)
_cell_length_c                   8.040(3)
_cell_angle_alpha                90
_cell_angle_beta                 90.612(4)
_cell_angle_gamma                90
_cell_volume                     990.845
loop_
_atom_site_label
_atom_site_type_symbol
_atom_site_fract_x
_atom_site_fract_y
_atom_site_fract_z
Co1 Co 0.19086(2) -0.06409(5) 1.06218(4)
O1 O 0.12478(13) 0.1579(3) 1.0422(3)
O2 O 0.18180(14) 0.1328(3) 0.7989(3)
O3 O 0.12525(14) 0.7745(3) 0.9242(3)
O4 O 0.19462(14) 0.5180(3) 0.9379(3)
C1 C 0.12947(18) 0.2012(4) 0.8908(4)
C2 C 0.06493(18) 0.3194(4) 0.8189(3)
C3 C 0.06474(18) 0.5082(4) 0.8215(4)
C4 C 0.13307(18) 0.6092(4) 0.8995(4)
C5 C 0.0000 0.6003(6) 0.7500
H1 H 0.0000 0.7257 0.7500
C6 C 0.0000 0.2283(6) 0.7500
H2 H 0.0000 0.1029 0.7500
Co1A Co -0.19086(2) -0.06409(5) 0.43782(4)
Co1_2 Co 0.19086(2) 0.93591(5) 1.06218(4)
Co1A_2 Co -0.19086(2) 0.93591(5) 0.43782(4)
Co1D Co -0.19086(2) 0.06409(5) 0.93782(4)
Co1E Co 0.19086(2) 0.06409(5) 0.56218(4)
Co1F Co 0.30914(2) 0.56409(5) 0.93782(4)
Co1G Co -0.30914(2) 0.56409(5) 0.56218(4)
O1A O -0.12478(13) 0.1579(3) 0.4578(3)
O2A O -0.18180(14) 0.1328(3) 0.7011(3)
O2D O -0.18180(14) -0.1328(3) 0.2011(3)
O2E O 0.18180(14) -0.1328(3) 1.2989(3)
O3A O -0.12525(14) 0.7745(3) 0.5758(3)
O3_2 O 0.12525(14) -0.2255(3) 0.9242(3)
O3A_2 O -0.12525(14) -0.2255(3) 0.5758(3)
O4A O -0.19462(14) 0.5180(3) 0.5621(3)
O4F O 0.30538(14) -0.0180(3) 1.0621(3)
O4G O -0.30538(14) -0.0180(3) 0.4379(3)
C1A C -0.12947(18) 0.2012(4) 0.6092(4)
C2A C -0.06493(18) 0.3194(4) 0.6811(3)
C3A C -0.06474(18) 0.5082(4) 0.6785(4)
C4A C -0.13307(18) 0.6092(4) 0.6005(4)
loop_
_geom_bond_atom_site_label_1
_geom_bond_atom_site_label_2
_geom_bond_site_symmetry_1
_geom_bond_site_symmetry_2
Co1 O1 1_555 1_555
O1 C1 1_555 1_555
O2 C1 1_555 1_555
O3 C4 1_555 1_555
O4 C4 1_555 1_555
C1 C2 1_555 1_555
C2 C3 1_555 1_555
C3 C4 1_555 1_555
C5 C3 1_555 1_555
H1 C5 1_555 1_555
C6 C2 1_555 1_555
H2 C6 1_555 1_555
Co1A O1A 1_555 1_555
Co1_2 O3 1_555 1_555
Co1A_2 O3A 1_555 1_555
Co1D O2A 1_555 1_555
Co1E O2 1_555 1_555
Co1F O4 1_555 1_555
Co1G O4A 1_555 1_555
O1A C1A 1_555 1_555
O2A C1A 1_555 1_555
O2D Co1A 1_555 1_555
O2E Co1 1_555 1_555
O3A C4A 1_555 1_555
O3_2 Co1 1_555 1_555
O3A_2 Co1A 1_555 1_555
O4A C4A 1_555 1_555
O4F Co1 1_555 1_555
O4G Co1A 1_555 1_555
C1A C2A 1_555 1_555
C2A C6 1_555 1_555
C3A C5 1_555 1_555
C4A C3A 1_555 1_555
C2A C3A 1_555 1_555

#END
