
#######################################################################
#
#                 Cambridge Crystallographic Data Centre
#                                CCDC 
#
#######################################################################
#
# If this CIF has been generated from an entry in the Cambridge 
# Structural Database, then it will include bibliographic, chemical, 
# crystal, experimental, refinement or atomic coordinate data resulting 
# from the CCDC's data processing and validation procedures.
#
#######################################################################

data_SADLOA
_symmetry_cell_setting           tetragonal
_symmetry_space_group_name_H-M   'P 43 2 2'
_symmetry_Int_Tables_number      95
_space_group_name_Hall           'P 4cw 2c'
loop_
_symmetry_equiv_pos_site_id
_symmetry_equiv_pos_as_xyz
1 x,y,z
2 -x,-y,1/2+z
3 -y,x,3/4+z
4 y,-x,1/4+z
5 -x,y,-z
6 x,-y,1/2-z
7 y,x,1/4-z
8 -y,-x,3/4-z
_cell_length_a                   10.4520(2)
_cell_length_b                   10.4520(2)
_cell_length_c                   13.8486(9)
_cell_angle_alpha                90
_cell_angle_beta                 90
_cell_angle_gamma                90
_cell_volume                     1512.88
loop_
_atom_site_label
_atom_site_type_symbol
_atom_site_fract_x
_atom_site_fract_y
_atom_site_fract_z
Nd1 Nd 0.12190(3) 0.87810(3) 0.8750
O1 O 0.0833(6) 0.9036(5) 0.6694(4)
O2 O 0.0818(6) 0.7254(5) 0.7478(5)
O3 O 0.0819(6) 0.3209(5) 0.5520(5)
C1 C 0.0701(7) 0.7875(7) 0.6709(6)
C2 C 0.0338(9) 0.7170(6) 0.5833(6)
C3 C 0.0000 0.7785(10) 0.5000
H1 H 0.0000 0.8675 0.5000
C4 C 0.0363(8) 0.5823(6) 0.5816(6)
H2 H 0.0627 0.5371 0.6359
C5 C 0.0000 0.5178(9) 0.5000
C6 C 0.0000 0.3717(14) 0.5000
Nd1B Nd 0.12190(3) 1.12190(3) 0.6250
Nd1B_2 Nd 0.12190(3) 0.12190(3) 0.6250
Nd1C Nd -0.12190(3) 0.87810(3) 0.1250
Nd1A Nd -0.12190(3) 1.12190(3) 0.3750
Nd1A_2 Nd -0.12190(3) 0.12190(3) 0.3750
O1D O -0.0833(6) 0.9036(5) 0.3306(4)
O1E O 0.0833(6) 1.0964(5) 0.8306(4)
O1C O -0.0964(5) 0.9167(6) 0.9194(4)
O1G O 0.0964(5) 0.9167(6) 1.0806(4)
O2D O -0.0818(6) 0.7254(5) 0.2522(5)
O2G O 0.2746(5) 0.9182(6) 1.0022(5)
O3D O -0.0819(6) 0.3209(5) 0.4480(5)
O3E O 0.0819(6) 0.6791(5) 0.9480(5)
O3C O 0.3209(5) 0.9181(6) 0.8020(5)
C1D C -0.0701(7) 0.7875(7) 0.3291(6)
C2D C -0.0338(9) 0.7170(6) 0.4167(6)
C4D C -0.0363(8) 0.5823(6) 0.4184(6)
H2D H -0.0627 0.5371 0.3641
loop_
_geom_bond_atom_site_label_1
_geom_bond_atom_site_label_2
_geom_bond_site_symmetry_1
_geom_bond_site_symmetry_2
Nd1 O1 1_555 1_555
O1 C1 1_555 1_555
O2 Nd1 1_555 1_555
O3 C6 1_555 1_555
C1 O2 1_555 1_555
C2 C1 1_555 1_555
C3 C2 1_555 1_555
H1 C3 1_555 1_555
C4 C2 1_555 1_555
H2 C4 1_555 1_555
C5 C4 1_555 1_555
C6 C5 1_555 1_555
Nd1B O1 1_555 1_555
Nd1B_2 O3 1_555 1_555
Nd1C O1D 1_555 1_555
Nd1A O1D 1_555 1_555
Nd1A_2 O3D 1_555 1_555
O1D C1D 1_555 1_555
O1E Nd1 1_555 1_555
O1C Nd1 1_555 1_555
O1G Nd1 1_555 1_555
O2D Nd1C 1_555 1_555
O2G Nd1 1_555 1_555
O3D C6 1_555 1_555
O3E Nd1 1_555 1_555
O3C Nd1 1_555 1_555
C1D O2D 1_555 1_555
C2D C3 1_555 1_555
C4D C5 1_555 1_555
H2D C4D 1_555 1_555
Nd1B O1E 1_555 1_555
C1D C2D 1_555 1_555
C2D C4D 1_555 1_555

#END
