
#######################################################################
#
#                 Cambridge Crystallographic Data Centre
#                                CCDC 
#
#######################################################################
#
# If this CIF has been generated from an entry in the Cambridge 
# Structural Database, then it will include bibliographic, chemical, 
# crystal, experimental, refinement or atomic coordinate data resulting 
# from the CCDC's data processing and validation procedures.
#
#######################################################################

data_SADMOB
_symmetry_cell_setting           monoclinic
_symmetry_space_group_name_H-M   'C 2/c'
_symmetry_Int_Tables_number      15
_space_group_name_Hall           '-C 2yn'
loop_
_symmetry_equiv_pos_site_id
_symmetry_equiv_pos_as_xyz
1 x,y,z
2 -x,y,1/2-z
3 1/2+x,1/2+y,z
4 1/2-x,1/2+y,1/2-z
5 -x,-y,-z
6 x,-y,1/2+z
7 1/2-x,1/2-y,-z
8 1/2+x,1/2-y,1/2+z
_cell_length_a                   19.2034(2)
_cell_length_b                   11.1758(1)
_cell_length_c                   6.8890(1)
_cell_angle_alpha                90
_cell_angle_beta                 109.004(1)
_cell_angle_gamma                90
_cell_volume                     1397.89
loop_
_atom_site_label
_atom_site_type_symbol
_atom_site_fract_x
_atom_site_fract_y
_atom_site_fract_z
Fe1 Fe 0.0000 0.0000 0.0000
O1 O 0.0000 -0.0908(4) -0.2500
O2 O 0.0717 0.1231 -0.0328
O3 O 0.0845 0.1059 -0.3375
C1 C 0.1822 0.1966 -0.0730
C2 C 0.2090 0.2333 0.1275
C3 C 0.2232 0.2133 -0.2005
C4 C 0.1095 0.1393 -0.1513
H1 H 0.1796 0.2213 0.2186
H2 H 0.2041 0.1871 -0.3438
Fe1A Fe 0.0000 0.0000 -0.5000
Fe1B Fe 0.5000 0.5000 0.0000
Fe1C Fe 0.5000 0.5000 0.5000
O1D O 0.0000 0.0908(4) 0.2500
O2F O 0.4283 0.3769 0.0328
O2D O -0.0717 -0.1231 0.0328
O3F O 0.4155 0.3941 0.3375
O3A O -0.0845 0.1059 -0.1625
O3E O 0.0845 -0.1059 0.1625
C1F C 0.3178 0.3034 0.0730
C2F C 0.2910 0.2667 -0.1275
C3F C 0.2768 0.2867 0.2005
C4F C 0.3905 0.3607 0.1513
H1F H 0.3204 0.2787 -0.2186
H2F H 0.2959 0.3129 0.3438
N1 N 0.0000 0.6739 0.7500
C5 C 0.0659 0.6113 0.8390
C6 C 0.0658 0.4861 0.8411
C7 C 0.0000 0.4233 0.7500
H3 H 0.1121 0.6552 0.8998
H4 H 0.1119 0.4423 0.9035
H5 H 0.0000 0.3357 0.7500
C5A C -0.0659 0.6113 0.6610
C6A C -0.0658 0.4861 0.6589
H3A H -0.1121 0.6552 0.6002
H4A H -0.1119 0.4423 0.5965
loop_
_geom_bond_atom_site_label_1
_geom_bond_atom_site_label_2
_geom_bond_site_symmetry_1
_geom_bond_site_symmetry_2
Fe1 O1 1_555 1_555
O1 Fe1A 1_555 1_555
O2 Fe1 1_555 1_555
O3 C4 1_555 1_555
C1 C2 1_555 1_555
C2 H1 1_555 1_555
C3 C1 1_555 1_555
C4 O2 1_555 1_555
H2 C3 1_555 1_555
N1 C5 1_555 1_555
C5 C6 1_555 1_555
C6 C7 1_555 1_555
C7 H5 1_555 1_555
H3 C5 1_555 1_555
H4 C6 1_555 1_555
Fe1A O3 1_555 1_555
Fe1B O2F 1_555 1_555
Fe1C O3F 1_555 1_555
O1D Fe1 1_555 1_555
O2F C4F 1_555 1_555
O2D Fe1 1_555 1_555
O3F C4F 1_555 1_555
O3A Fe1 1_555 1_555
O3E Fe1 1_555 1_555
C1F C2F 1_555 1_555
C2F C3 1_555 1_555
C3F C2 1_555 1_555
C4F C1F 1_555 1_555
H1F C2F 1_555 1_555
H2F C3F 1_555 1_555
C5A N1 1_555 1_555
C6A C7 1_555 1_555
H3A C5A 1_555 1_555
H4A C6A 1_555 1_555
C1 C4 1_555 1_555
C1F C3F 1_555 1_555
C5A C6A 1_555 1_555

#END
