
#######################################################################
#
#                 Cambridge Crystallographic Data Centre
#                                CCDC 
#
#######################################################################
#
# If this CIF has been generated from an entry in the Cambridge 
# Structural Database, then it will include bibliographic, chemical, 
# crystal, experimental, refinement or atomic coordinate data resulting 
# from the CCDC's data processing and validation procedures.
#
#######################################################################

data_SAKDEP
_symmetry_cell_setting           tetragonal
_symmetry_space_group_name_H-M   'I -4 2 d'
_symmetry_Int_Tables_number      122
_space_group_name_Hall           'I -4 2bw'
loop_
_symmetry_equiv_pos_site_id
_symmetry_equiv_pos_as_xyz
1 x,y,z
2 y,-x,-z
3 -x,-y,z
4 -y,x,-z
5 x,1/2-y,1/4-z
6 1/2-y,-x,3/4+z
7 -x,1/2+y,1/4-z
8 1/2+y,x,3/4+z
9 1/2+x,1/2+y,1/2+z
10 1/2+y,1/2-x,1/2-z
11 1/2-x,1/2-y,1/2+z
12 1/2-y,1/2+x,1/2-z
13 1/2+x,-y,3/4-z
14 -y,1/2-x,1/4+z
15 1/2-x,y,3/4-z
16 y,1/2+x,1/4+z
_cell_length_a                   19.3307(2)
_cell_length_b                   19.3307(2)
_cell_length_c                   27.7612(8)
_cell_angle_alpha                90
_cell_angle_beta                 90
_cell_angle_gamma                90
_cell_volume                     10373.7
loop_
_atom_site_label
_atom_site_type_symbol
_atom_site_fract_x
_atom_site_fract_y
_atom_site_fract_z
Fe1 Fe 0.5000 0.5000 0.77955(4)
Fe2 Fe 0.2500 0.20476(5) 0.8750
O1 O 0.16874(19) 0.19944(18) 0.92142(14)
C1 C 0.1843(3) 0.2188(3) 0.9656(2)
C2 C 0.1502(3) 0.1922(3) 1.0064(2)
H1 H 0.1148 0.1585 1.0025
C3 C 0.1677(4) 0.2146(4) 1.0522(2)
H2 H 0.1442 0.1958 1.0792
C4 C 0.2187(3) 0.2638(3) 1.0593(2)
H3 H 0.2296 0.2797 1.0908
C5 C 0.2526(3) 0.2889(3) 1.02020(18)
H4 H 0.2887 0.3215 1.0249
C6 C 0.2367(3) 0.2688(2) 0.9740(2)
N1 N 0.2739(2) 0.2901(2) 0.93251(15)
C7 C 0.2975(3) 0.3525(3) 0.93338(19)
H5 H 0.2820 0.3818 0.9586
C8 C 0.3462(3) 0.3815(3) 0.8986(2)
C9 C 0.3593(4) 0.4531(3) 0.9005(2)
H6 H 0.3365 0.4818 0.9234
C10 C 0.4063(4) 0.4806(3) 0.8680(2)
H7 H 0.4136 0.5292 0.8684
N2 N 0.4418(3) 0.4435(2) 0.83634(17)
C11 C 0.4287(3) 0.3753(3) 0.8349(2)
H8 H 0.4521 0.3482 0.8115
C12 C 0.3836(3) 0.3428(3) 0.86530(19)
H9 H 0.3778 0.2940 0.8637
O2 O 0.5787(2) 0.43155(18) 0.78068(15)
C13 C 0.6368(3) 0.4534(3) 0.7619(2)
C14 C 0.6994(4) 0.4170(3) 0.7670(2)
H10 H 0.6998 0.3753 0.7852
C15 C 0.7598(3) 0.4399(3) 0.7467(3)
H11 H 0.8018 0.4157 0.7526
C16 C 0.7600(3) 0.4996(3) 0.7168(2)
H12 H 0.8009 0.5138 0.7005
C17 C 0.6999(3) 0.5360(3) 0.7121(2)
H13 H 0.6997 0.5765 0.6928
C18 C 0.6388(3) 0.5156(2) 0.7346(2)
N3 N 0.5739(2) 0.5494(2) 0.72862(16)
C19 C 0.5704(3) 0.6116(3) 0.71102(19)
H14 H 0.6115 0.6380 0.7076
C20 C 0.5044(3) 0.6413(3) 0.69653(18)
C21 C 0.4918(3) 0.7123(3) 0.7015(2)
H15 H 0.5256 0.7419 0.7154
C22 C 0.4292(3) 0.7385(3) 0.6858(2)
H16 H 0.4213 0.7867 0.6895
N4 N 0.3797(2) 0.7010(3) 0.66616(17)
C23 C 0.3920(3) 0.6328(3) 0.6621(2)
H17 H 0.3569 0.6045 0.6484
C24 C 0.4525(3) 0.6017(3) 0.6765(2)
H18 H 0.4585 0.5532 0.6727
Fe2E Fe 0.29524(5) 0.7500 0.6250
Fe2B Fe 0.7500 0.79524(5) 0.8750
Fe2G Fe 0.70476(5) 0.2500 0.6250
O1B O 0.83126(19) 0.80056(18) 0.92142(14)
O1N O 0.33126(19) 0.19944(18) 0.82858(14)
C1B C 0.8157(3) 0.7812(3) 0.9656(2)
C2B C 0.8498(3) 0.8078(3) 1.0064(2)
H1B H 0.8852 0.8415 1.0025
C3B C 0.8323(4) 0.7854(4) 1.0522(2)
H2B H 0.8558 0.8042 1.0792
C4B C 0.7813(3) 0.7362(3) 1.0593(2)
H3B H 0.7704 0.7203 1.0908
C5B C 0.7474(3) 0.7111(3) 1.02020(18)
H4B H 0.7113 0.6785 1.0249
C6B C 0.7633(3) 0.7312(2) 0.9740(2)
N1B N 0.7261(2) 0.7099(2) 0.93251(15)
N1N N 0.2261(2) 0.2901(2) 0.81749(15)
C7B C 0.7025(3) 0.6475(3) 0.93338(19)
H5B H 0.7180 0.6182 0.9586
C8B C 0.6538(3) 0.6185(3) 0.8986(2)
C9B C 0.6407(4) 0.5469(3) 0.9005(2)
H6B H 0.6635 0.5182 0.9234
C10B C 0.5937(4) 0.5194(3) 0.8680(2)
H7B H 0.5864 0.4708 0.8684
N2B N 0.5582(3) 0.5565(2) 0.83634(17)
C11B C 0.5713(3) 0.6247(3) 0.8349(2)
H8B H 0.5479 0.6518 0.8115
C12B C 0.6164(3) 0.6572(3) 0.86530(19)
H9B H 0.6222 0.7060 0.8637
O2B O 0.4213(2) 0.56845(18) 0.78068(15)
C13B C 0.3632(3) 0.5466(3) 0.7619(2)
C14B C 0.3006(4) 0.5830(3) 0.7670(2)
H10B H 0.3002 0.6247 0.7852
C15B C 0.2402(3) 0.5601(3) 0.7467(3)
H11B H 0.1982 0.5843 0.7526
C16B C 0.2400(3) 0.5004(3) 0.7168(2)
H12B H 0.1991 0.4862 0.7005
C17B C 0.3001(3) 0.4640(3) 0.7121(2)
H13B H 0.3003 0.4235 0.6928
C18B C 0.3612(3) 0.4844(2) 0.7346(2)
N3B N 0.4261(2) 0.4506(2) 0.72862(16)
C19B C 0.4296(3) 0.3884(3) 0.71102(19)
H14B H 0.3885 0.3620 0.7076
C20B C 0.4956(3) 0.3587(3) 0.69653(18)
C21B C 0.5082(3) 0.2877(3) 0.7015(2)
H15B H 0.4744 0.2581 0.7154
C22B C 0.5708(3) 0.2615(3) 0.6858(2)
H16B H 0.5787 0.2133 0.6895
N4B N 0.6203(2) 0.2990(3) 0.66616(17)
N4I N 0.2010(3) 0.1203(2) 0.83384(17)
N4M N 0.2990(3) 0.1203(2) 0.91616(17)
C23B C 0.6080(3) 0.3672(3) 0.6621(2)
H17B H 0.6431 0.3955 0.6484
C24B C 0.5475(3) 0.3983(3) 0.6765(2)
H18B H 0.5415 0.4468 0.6727
O3 O 0.9183(4) 0.2960(4) 0.9329(3)
C25 C 0.9084(9) 0.3261(9) 0.8941(7)
O5 O 0.1884(4) -0.0169(4) 1.0693(3)
O6 O -0.0018(8) 0.0998(6) 1.0183(4)
O7 O 0.0853(9) 0.0661(9) 1.1068(6)
O4? O 0.9183(4) 0.2960(4) 0.9329(3)
loop_
_geom_bond_atom_site_label_1
_geom_bond_atom_site_label_2
_geom_bond_site_symmetry_1
_geom_bond_site_symmetry_2
Fe1 N2 1_555 1_555
Fe2 O1 1_555 1_555
O1 C1 1_555 1_555
C1 C2 1_555 1_555
C2 H1 1_555 1_555
C3 C2 1_555 1_555
H2 C3 1_555 1_555
C4 C3 1_555 1_555
H3 C4 1_555 1_555
C5 C4 1_555 1_555
H4 C5 1_555 1_555
C6 C1 1_555 1_555
N1 Fe2 1_555 1_555
C7 N1 1_555 1_555
H5 C7 1_555 1_555
C8 C7 1_555 1_555
C9 C8 1_555 1_555
H6 C9 1_555 1_555
C10 C9 1_555 1_555
H7 C10 1_555 1_555
N2 C10 1_555 1_555
C11 N2 1_555 1_555
H8 C11 1_555 1_555
C12 C8 1_555 1_555
H9 C12 1_555 1_555
O2 Fe1 1_555 1_555
C13 O2 1_555 1_555
C14 C13 1_555 1_555
H10 C14 1_555 1_555
C15 C14 1_555 1_555
H11 C15 1_555 1_555
C16 C15 1_555 1_555
H12 C16 1_555 1_555
C17 C16 1_555 1_555
H13 C17 1_555 1_555
C18 C13 1_555 1_555
N3 Fe1 1_555 1_555
C19 N3 1_555 1_555
H14 C19 1_555 1_555
C20 C19 1_555 1_555
C21 C20 1_555 1_555
H15 C21 1_555 1_555
C22 C21 1_555 1_555
H16 C22 1_555 1_555
N4 C22 1_555 1_555
C23 N4 1_555 1_555
H17 C23 1_555 1_555
C24 C20 1_555 1_555
H18 C24 1_555 1_555
O3 C25 1_555 1_555
Fe2E N4 1_555 1_555
Fe2B O1B 1_555 1_555
Fe2G N4B 1_555 1_555
O1B C1B 1_555 1_555
O1N Fe2 1_555 1_555
C1B C2B 1_555 1_555
C2B H1B 1_555 1_555
C3B C2B 1_555 1_555
H2B C3B 1_555 1_555
C4B C3B 1_555 1_555
H3B C4B 1_555 1_555
C5B C4B 1_555 1_555
H4B C5B 1_555 1_555
C6B C1B 1_555 1_555
N1B Fe2B 1_555 1_555
N1N Fe2 1_555 1_555
C7B N1B 1_555 1_555
H5B C7B 1_555 1_555
C8B C7B 1_555 1_555
C9B C8B 1_555 1_555
H6B C9B 1_555 1_555
C10B C9B 1_555 1_555
H7B C10B 1_555 1_555
N2B Fe1 1_555 1_555
C11B N2B 1_555 1_555
H8B C11B 1_555 1_555
C12B C8B 1_555 1_555
H9B C12B 1_555 1_555
O2B Fe1 1_555 1_555
C13B O2B 1_555 1_555
C14B C13B 1_555 1_555
H10B C14B 1_555 1_555
C15B C14B 1_555 1_555
H11B C15B 1_555 1_555
C16B C15B 1_555 1_555
H12B C16B 1_555 1_555
C17B C16B 1_555 1_555
H13B C17B 1_555 1_555
C18B C13B 1_555 1_555
N3B Fe1 1_555 1_555
C19B N3B 1_555 1_555
H14B C19B 1_555 1_555
C20B C19B 1_555 1_555
C21B C20B 1_555 1_555
H15B C21B 1_555 1_555
C22B C21B 1_555 1_555
H16B C22B 1_555 1_555
N4B C22B 1_555 1_555
N4I Fe2 1_555 1_555
N4M Fe2 1_555 1_555
C23B N4B 1_555 1_555
H17B C23B 1_555 1_555
C24B C20B 1_555 1_555
H18B C24B 1_555 1_555
C5 C6 1_555 1_555
C6 N1 1_555 1_555
C11 C12 1_555 1_555
C17 C18 1_555 1_555
C18 N3 1_555 1_555
C23 C24 1_555 1_555
C5B C6B 1_555 1_555
C6B N1B 1_555 1_555
C10B N2B 1_555 1_555
C11B C12B 1_555 1_555
C17B C18B 1_555 1_555
C18B N3B 1_555 1_555
C23B C24B 1_555 1_555

#END
