
#######################################################################
#
#                 Cambridge Crystallographic Data Centre
#                                CCDC 
#
#######################################################################
#
# If this CIF has been generated from an entry in the Cambridge 
# Structural Database, then it will include bibliographic, chemical, 
# crystal, experimental, refinement or atomic coordinate data resulting 
# from the CCDC's data processing and validation procedures.
#
#######################################################################

data_SARCAR
_symmetry_cell_setting           orthorhombic
_symmetry_space_group_name_H-M   'F d d d'
_symmetry_Int_Tables_number      70
_space_group_name_Hall           '-F 2uv 2vw'
loop_
_symmetry_equiv_pos_site_id
_symmetry_equiv_pos_as_xyz
1 x,y,z
2 3/4-x,3/4-y,z
3 3/4-x,y,3/4-z
4 x,3/4-y,3/4-z
5 x,1/2+y,1/2+z
6 3/4-x,1/4-y,1/2+z
7 3/4-x,1/2+y,1/4-z
8 x,1/4-y,1/4-z
9 1/2+x,y,1/2+z
10 1/4-x,3/4-y,1/2+z
11 1/4-x,y,1/4-z
12 1/2+x,3/4-y,1/4-z
13 1/2+x,1/2+y,z
14 1/4-x,1/4-y,z
15 1/4-x,1/2+y,3/4-z
16 1/2+x,1/4-y,3/4-z
17 -x,-y,-z
18 1/4+x,1/4+y,-z
19 1/4+x,-y,1/4+z
20 -x,1/4+y,1/4+z
21 -x,1/2-y,1/2-z
22 1/4+x,3/4+y,1/2-z
23 1/4+x,1/2-y,3/4+z
24 -x,3/4+y,3/4+z
25 1/2-x,-y,1/2-z
26 3/4+x,1/4+y,1/2-z
27 3/4+x,-y,3/4+z
28 1/2-x,1/4+y,3/4+z
29 1/2-x,1/2-y,-z
30 3/4+x,3/4+y,-z
31 3/4+x,1/2-y,1/4+z
32 1/2-x,3/4+y,1/4+z
_cell_length_a                   12.7743(8)
_cell_length_b                   22.1735(15)
_cell_length_c                   24.5295(17)
_cell_angle_alpha                90
_cell_angle_beta                 90
_cell_angle_gamma                90
_cell_volume                     6948
loop_
_atom_site_label
_atom_site_type_symbol
_atom_site_fract_x
_atom_site_fract_y
_atom_site_fract_z
Zn1 Zn 0.1250 0.334150(16) -0.3750
O1 O -0.02089(15) 0.12123(7) -0.57177(7)
O2 O -0.17375(17) 0.16519(9) -0.56102(8)
C1 C -0.0798(2) 0.15970(11) -0.54915(10)
C2 C 0.1109(2) 0.23946(13) -0.45684(11)
H1 H 0.1828 0.2420 -0.4515
C3 C -0.05627(19) 0.26827(11) -0.43058(10)
C4 C -0.0986(2) 0.23157(13) -0.47203(11)
H2 H -0.1707 0.2297 -0.4770
C5 C -0.0333(2) 0.19873(11) -0.50490(10)
C6 C 0.0748(2) 0.20240(12) -0.49693(10)
H3 H 0.1208 0.1802 -0.5184
N1 N 0.04751(15) 0.27295(9) -0.42412(8)
N2 N -0.11987(17) 0.29853(14) -0.39650(10)
H4 H -0.0937 0.3205 -0.3710
H5 H -0.1867 0.2959 -0.4002
Zn1W Zn -0.1250 0.084150(16) -0.6250
Zn1Q Zn 0.3750 0.584150(16) -0.6250
O1Q O 0.22911(15) 0.37123(7) -0.42823(7)
O1S O 0.02089(15) 0.37123(7) -0.32177(7)
O2Q O 0.07625(17) 0.41519(9) -0.43898(8)
C1Q C 0.1702(2) 0.40970(11) -0.45085(10)
C2Q C 0.3609(2) 0.48946(13) -0.54316(11)
H1Q H 0.4328 0.4920 -0.5485
C3Q C 0.19373(19) 0.51827(11) -0.56942(10)
C4Q C 0.1514(2) 0.48157(13) -0.52797(11)
H2Q H 0.0793 0.4797 -0.5230
C5Q C 0.2167(2) 0.44873(11) -0.49510(10)
C6Q C 0.3248(2) 0.45240(12) -0.50307(10)
H3Q H 0.3708 0.4302 -0.4816
N1Q N 0.29751(15) 0.52295(9) -0.57588(8)
N1J N 0.20249(15) 0.27295(9) -0.32588(8)
N2Q N 0.13013(17) 0.54853(14) -0.60350(10)
H4Q H 0.1563 0.5705 -0.6290
H5Q H 0.0633 0.5459 -0.5998
loop_
_geom_bond_atom_site_label_1
_geom_bond_atom_site_label_2
_geom_bond_site_symmetry_1
_geom_bond_site_symmetry_2
Zn1 N1 1_555 1_555
O1 C1 1_555 1_555
O2 C1 1_555 1_555
C1 C5 1_555 1_555
C2 H1 1_555 1_555
C3 C4 1_555 1_555
C4 H2 1_555 1_555
C5 C4 1_555 1_555
C6 C2 1_555 1_555
H3 C6 1_555 1_555
N1 C2 1_555 1_555
N2 C3 1_555 1_555
H4 N2 1_555 1_555
H5 N2 1_555 1_555
Zn1W O1 1_555 1_555
Zn1Q N1Q 1_555 1_555
O1Q Zn1 1_555 1_555
O1S Zn1 1_555 1_555
O2Q C1Q 1_555 1_555
C1Q O1Q 1_555 1_555
C2Q H1Q 1_555 1_555
C3Q C4Q 1_555 1_555
C4Q H2Q 1_555 1_555
C5Q C1Q 1_555 1_555
C6Q C2Q 1_555 1_555
H3Q C6Q 1_555 1_555
N1Q C2Q 1_555 1_555
N1J Zn1 1_555 1_555
N2Q C3Q 1_555 1_555
H4Q N2Q 1_555 1_555
H5Q N2Q 1_555 1_555
C3 N1 1_555 1_555
C5 C6 1_555 1_555
C3Q N1Q 1_555 1_555
C4Q C5Q 1_555 1_555
C5Q C6Q 1_555 1_555

#END
