
#######################################################################
#
#                 Cambridge Crystallographic Data Centre
#                                CCDC 
#
#######################################################################
#
# If this CIF has been generated from an entry in the Cambridge 
# Structural Database, then it will include bibliographic, chemical, 
# crystal, experimental, refinement or atomic coordinate data resulting 
# from the CCDC's data processing and validation procedures.
#
#######################################################################

data_SARMOO
_symmetry_cell_setting           monoclinic
_symmetry_space_group_name_H-M   'P 21/n'
_symmetry_Int_Tables_number      14
_space_group_name_Hall           '-P 2yn'
loop_
_symmetry_equiv_pos_site_id
_symmetry_equiv_pos_as_xyz
1 x,y,z
2 1/2-x,1/2+y,1/2-z
3 -x,-y,-z
4 1/2+x,1/2-y,1/2+z
_cell_length_a                   14.240(5)
_cell_length_b                   22.191(7)
_cell_length_c                   15.185(5)
_cell_angle_alpha                90
_cell_angle_beta                 102.980(5)
_cell_angle_gamma                90
_cell_volume                     4675.85
loop_
_atom_site_label
_atom_site_type_symbol
_atom_site_fract_x
_atom_site_fract_y
_atom_site_fract_z
Eu1 Eu 0.49844(2) 0.724319(13) 0.564060(19)
Eu2 Eu 0.79775(2) 0.754122(13) 0.665435(19)
O1 O 0.5964(3) 0.64222(18) 0.6125(3)
O2 O 0.7537(3) 0.65238(19) 0.6581(3)
O3 O 0.6302(3) 0.33425(18) 0.7167(3)
O4 O 0.7536(3) 0.35770(18) 0.8260(3)
O5 O 0.6702(3) 0.76308(17) 0.5308(2)
O6 O 0.5464(3) 0.74689(19) 0.4186(2)
O7 O 0.8855(3) 0.73272(19) 0.1507(2)
O8 O 0.9108(3) 0.8295(2) 0.1609(3)
O9 O 0.6108(3) 0.75552(18) 0.6996(3)
O10 O 0.7409(3) 0.7366(2) 0.8038(2)
O11 O 0.4183(3) 0.6959(2) 1.1039(3)
O12 O 0.3775(3) 0.78664(19) 1.0539(3)
O13 O 0.4565(3) 0.64100(17) 0.4611(3)
H1 H 0.4975 0.6144 0.4574
H2 H 0.3923 0.6262 0.4449
O14 O 0.3370(3) 0.74116(19) 0.4721(2)
H3 H 0.3235 0.7723 0.4996
H4 H 0.3157 0.7429 0.4152
O15 O 0.9369(3) 0.70941(18) 0.7592(2)
H5 H 0.9700 0.7231 0.8087
H6 H 0.9622 0.6729 0.7410
N3 N 0.4898(4) 0.8415(2) 0.5363(4)
C1 C 0.6787(5) 0.6220(3) 0.6455(4)
C2 C 0.6857(4) 0.5562(2) 0.6708(4)
C3 C 0.6133(5) 0.5332(3) 0.7061(4)
H7 H 0.5619 0.5576 0.7118
C4 C 0.6160(5) 0.4725(3) 0.7341(4)
H8 H 0.5675 0.4578 0.7602
C5 C 0.6881(5) 0.4353(3) 0.7235(4)
C6 C 0.7629(4) 0.4572(3) 0.6836(4)
C7 C 0.7630(4) 0.5188(3) 0.6590(4)
C8 C 0.8386(5) 0.5388(3) 0.6181(4)
H9 H 0.8400 0.5789 0.6008
C9 C 0.9077(5) 0.5012(3) 0.6041(4)
H10 H 0.9566 0.5155 0.5781
C10 C 0.9063(5) 0.4399(3) 0.6286(4)
H11 H 0.9536 0.4138 0.6178
C11 C 0.8368(5) 0.4192(3) 0.6675(4)
H12 H 0.8373 0.3789 0.6842
C12 C 0.6904(5) 0.3716(3) 0.7569(4)
C13 C 0.6327(5) 0.7624(3) 0.4463(4)
C14 C 0.6915(4) 0.7757(3) 0.3785(4)
C15 C 0.6821(5) 0.7366(3) 0.3069(4)
H13 H 0.6353 0.7066 0.2991
C16 C 0.7417(5) 0.7412(3) 0.2457(4)
H14 H 0.7359 0.7128 0.1997
C17 C 0.8081(5) 0.7861(3) 0.2513(4)
C18 C 0.8141(5) 0.8316(3) 0.3184(4)
C19 C 0.7554(5) 0.8250(3) 0.3841(4)
C20 C 0.7610(5) 0.8711(3) 0.4505(4)
H15 H 0.7211 0.8688 0.4912
C21 C 0.8224(6) 0.9178(3) 0.4559(4)
H16 H 0.8263 0.9464 0.5013
C22 C 0.8805(5) 0.9232(3) 0.3931(5)
H17 H 0.9218 0.9561 0.3965
C23 C 0.8776(5) 0.8814(3) 0.3275(4)
H18 H 0.9181 0.8855 0.2876
C24 C 0.8724(5) 0.7835(3) 0.1838(4)
C25 C 0.6515(5) 0.7416(3) 0.7801(4)
C26 C 0.5928(4) 0.7351(3) 0.8504(4)
C27 C 0.5248(4) 0.7766(3) 0.8509(4)
H19 H 0.5115 0.8052 0.8050
C28 C 0.4726(4) 0.7778(3) 0.9201(4)
H20 H 0.4265 0.8075 0.9201
C29 C 0.4901(4) 0.7351(3) 0.9868(4)
C30 C 0.5591(5) 0.6896(3) 0.9873(4)
C31 C 0.6116(5) 0.6887(3) 0.9178(4)
C32 C 0.6771(5) 0.6419(3) 0.9148(4)
H21 H 0.7080 0.6402 0.8670
C33 C 0.6966(6) 0.5984(3) 0.9810(5)
H22 H 0.7416 0.5683 0.9794
C34 C 0.6468(6) 0.6007(3) 1.0510(5)
H23 H 0.6596 0.5716 1.0963
C35 C 0.5811(5) 0.6438(3) 1.0544(4)
H24 H 0.5493 0.6436 1.1016
C36 C 0.4251(4) 0.7391(3) 1.0528(4)
C47 C 0.5313(6) 0.8786(3) 0.6001(5)
H33 H 0.5578 0.8624 0.6567
C48 C 0.5387(6) 0.9410(3) 0.5895(5)
H34 H 0.5714 0.9646 0.6373
C49 C 0.4968(5) 0.9676(3) 0.5071(4)
C50 C 0.4480(5) 0.9284(3) 0.4409(4)
H35 H 0.4161 0.9435 0.3851
C51 C 0.4467(5) 0.8679(3) 0.4575(5)
H36 H 0.4139 0.8433 0.4112
Eu1C Eu -0.00156(2) 0.775681(13) 1.064060(19)
Eu1C_2 Eu 0.99844(2) 0.775681(13) 0.064060(19)
Eu1B Eu 0.50156(2) 1.275681(13) 0.435940(19)
Eu1A Eu 1.00156(2) 1.224319(13) 0.935940(19)
Eu2A Eu 0.70225(2) 0.254122(13) 0.834565(19)
Eu2C Eu 0.29775(2) 0.745878(13) 1.165435(19)
Eu2A_2 Eu 0.70225(2) 1.254122(13) 0.834565(19)
Eu2C_2 Eu 1.29775(2) 0.745878(13) 0.165435(19)
O1A O 0.9036(3) 1.14222(18) 0.8875(3)
O1C O 0.0964(3) 0.85778(18) 1.1125(3)
O2A O 0.7463(3) 1.15238(19) 0.8419(3)
O2A_2 O 0.7463(3) 0.15238(19) 0.8419(3)
O3A O 0.8698(3) 0.83425(18) 0.7833(3)
O4A O 0.7464(3) 0.85770(18) 0.6740(3)
O5C O 0.1702(3) 0.73692(17) 1.0308(2)
O5A O 0.8298(3) 0.26308(17) 0.9692(2)
O6C O 0.0464(3) 0.75311(19) 0.9186(2)
O7C O 0.3855(3) 0.76728(19) 0.6507(2)
O7_2 O -0.1145(3) 0.73272(19) 1.1507(2)
O8C O 0.4108(3) 0.6705(2) 0.6609(3)
O8_2 O -0.0892(3) 0.8295(2) 1.1609(3)
O9C O 1.1108(3) 0.74448(18) 0.1996(3)
O9C_2 O 0.1108(3) 0.74448(18) 1.1996(3)
O9A O 0.8892(3) 0.25552(18) 0.8004(3)
O10C O 1.2409(3) 0.7634(2) 0.3038(2)
O10A O 0.7591(3) 0.2366(2) 0.6962(2)
O11C O 0.9183(3) 0.8041(2) 0.6039(3)
O11B O 0.5817(3) 0.3041(2) 0.8961(3)
O12C O 0.8775(3) 0.71336(19) 0.5539(3)
O12B O 0.6225(3) 0.21336(19) 0.9461(3)
O13C O -0.0435(3) 0.85900(17) 0.9611(3)
H1C H -0.0025 0.8856 0.9574
H2C H -0.1077 0.8738 0.9449
O14C O -0.1630(3) 0.75884(19) 0.9721(2)
H3C H -0.1765 0.7277 0.9996
H4C H -0.1843 0.7571 0.9152
O15A O 0.5631(3) 0.20941(18) 0.7408(2)
H5A H 0.5300 0.2231 0.6913
H6A H 0.5378 0.1729 0.7590
N3B N 0.5102(4) 1.1585(2) 0.4637(4)
N3C N -0.0102(4) 0.6585(2) 1.0363(4)
C1A C 0.8213(5) 1.1220(3) 0.8545(4)
C2A C 0.8143(4) 1.0562(2) 0.8292(4)
C3A C 0.8867(5) 1.0332(3) 0.7939(4)
H7A H 0.9381 1.0576 0.7882
C4A C 0.8840(5) 0.9725(3) 0.7659(4)
H8A H 0.9325 0.9578 0.7398
C5A C 0.8119(5) 0.9353(3) 0.7765(4)
C6A C 0.7371(4) 0.9572(3) 0.8164(4)
C7A C 0.7370(4) 1.0188(3) 0.8410(4)
C8A C 0.6614(5) 1.0388(3) 0.8819(4)
H9A H 0.6600 1.0789 0.8992
C9A C 0.5923(5) 1.0012(3) 0.8959(4)
H10A H 0.5434 1.0155 0.9219
C10A C 0.5937(5) 0.9399(3) 0.8714(4)
H11A H 0.5464 0.9138 0.8822
C11A C 0.6632(5) 0.9192(3) 0.8325(4)
H12A H 0.6627 0.8789 0.8158
C12A C 0.8096(5) 0.8716(3) 0.7431(4)
C13C C 0.1327(5) 0.7376(3) 0.9463(4)
C14C C 0.1915(4) 0.7243(3) 0.8785(4)
C15C C 0.1821(5) 0.7634(3) 0.8069(4)
H13C H 0.1353 0.7934 0.7991
C16C C 0.2417(5) 0.7588(3) 0.7457(4)
H14C H 0.2359 0.7872 0.6997
C17C C 0.3081(5) 0.7139(3) 0.7513(4)
C18C C 0.3141(5) 0.6684(3) 0.8184(4)
C19C C 0.2554(5) 0.6750(3) 0.8841(4)
C20C C 0.2610(5) 0.6289(3) 0.9505(4)
H15C H 0.2211 0.6312 0.9912
C21C C 0.3224(6) 0.5822(3) 0.9559(4)
H16C H 0.3263 0.5536 1.0013
C22C C 0.3805(5) 0.5768(3) 0.8931(5)
H17C H 0.4218 0.5439 0.8965
C23C C 0.3776(5) 0.6186(3) 0.8275(4)
H18C H 0.4181 0.6145 0.7876
C24C C 0.3724(5) 0.7165(3) 0.6838(4)
C25C C 1.1515(5) 0.7584(3) 0.2801(4)
C26C C 1.0928(4) 0.7649(3) 0.3504(4)
C27C C 1.0248(4) 0.7234(3) 0.3509(4)
H19C H 1.0115 0.6948 0.3050
C28C C 0.9726(4) 0.7222(3) 0.4201(4)
H20C H 0.9265 0.6925 0.4201
C29C C 0.9901(4) 0.7649(3) 0.4868(4)
C30C C 1.0591(5) 0.8104(3) 0.4873(4)
C31C C 1.1116(5) 0.8113(3) 0.4178(4)
C32C C 1.1771(5) 0.8581(3) 0.4148(4)
H21C H 1.2080 0.8598 0.3670
C33C C 1.1966(6) 0.9016(3) 0.4810(5)
H22C H 1.2416 0.9317 0.4794
C34C C 1.1468(6) 0.8993(3) 0.5510(5)
H23C H 1.1596 0.9284 0.5963
C35C C 1.0811(5) 0.8562(3) 0.5544(4)
H24C H 1.0493 0.8564 0.6016
C36C C 0.9251(4) 0.7609(3) 0.5528(4)
C47B C 0.4687(6) 1.1214(3) 0.3999(5)
H33B H 0.4422 1.1376 0.3433
C48B C 0.4613(6) 1.0590(3) 0.4105(5)
H34B H 0.4286 1.0354 0.3627
C49B C 0.5032(5) 1.0324(3) 0.4929(4)
C50B C 0.5520(5) 1.0716(3) 0.5591(4)
H35B H 0.5839 1.0565 0.6149
C51B C 0.5533(5) 1.1321(3) 0.5425(5)
H36B H 0.5861 1.1567 0.5888
N1 N 0.6004(5) 0.5574(3) 0.4380(4)
N2 N 0.9443(5) 0.3803(3) 0.2823(5)
C37 C 0.6714(8) 0.5824(4) 0.4067(6)
H25 H 0.6753 0.6242 0.4075
C38 C 0.7399(7) 0.5511(4) 0.3730(5)
H26 H 0.7860 0.5713 0.3494
C39 C 0.7371(6) 0.4891(3) 0.3759(4)
C40 C 0.6694(6) 0.4630(3) 0.4143(5)
H27 H 0.6689 0.4214 0.4219
C41 C 0.6019(6) 0.4982(4) 0.4419(5)
H28 H 0.5544 0.4789 0.4647
C42 C 0.9072(6) 0.4301(4) 0.2396(6)
H29 H 0.9264 0.4409 0.1872
C43 C 0.8427(6) 0.4662(3) 0.2683(5)
H30 H 0.8210 0.5010 0.2361
C44 C 0.8097(5) 0.4521(3) 0.3430(5)
C45 C 0.8466(6) 0.4003(4) 0.3883(5)
H31 H 0.8270 0.3879 0.4398
C46 C 0.9132(6) 0.3674(4) 0.3552(6)
H32 H 0.9384 0.3332 0.3873
loop_
_geom_bond_atom_site_label_1
_geom_bond_atom_site_label_2
_geom_bond_site_symmetry_1
_geom_bond_site_symmetry_2
Eu1 O1 1_555 1_555
Eu2 O2 1_555 1_555
O1 C1 1_555 1_555
O2 C1 1_555 1_555
O3 C12 1_555 1_555
O4 C12 1_555 1_555
O5 Eu1 1_555 1_555
O6 Eu1 1_555 1_555
O7 C24 1_555 1_555
O8 C24 1_555 1_555
O9 Eu1 1_555 1_555
O10 Eu2 1_555 1_555
O11 C36 1_555 1_555
O12 C36 1_555 1_555
O13 Eu1 1_555 1_555
H1 O13 1_555 1_555
H2 O13 1_555 1_555
O14 Eu1 1_555 1_555
H3 O14 1_555 1_555
H4 O14 1_555 1_555
O15 Eu2 1_555 1_555
H5 O15 1_555 1_555
H6 O15 1_555 1_555
N1 C37 1_555 1_555
N2 C42 1_555 1_555
N3 Eu1 1_555 1_555
C1 C2 1_555 1_555
C2 C3 1_555 1_555
C3 H7 1_555 1_555
C4 C3 1_555 1_555
H8 C4 1_555 1_555
C5 C4 1_555 1_555
C6 C5 1_555 1_555
C7 C2 1_555 1_555
C8 C7 1_555 1_555
H9 C8 1_555 1_555
C9 C8 1_555 1_555
H10 C9 1_555 1_555
C10 C9 1_555 1_555
H11 C10 1_555 1_555
C11 C6 1_555 1_555
H12 C11 1_555 1_555
C12 C5 1_555 1_555
C13 O5 1_555 1_555
C14 C13 1_555 1_555
C15 C14 1_555 1_555
H13 C15 1_555 1_555
C16 C15 1_555 1_555
H14 C16 1_555 1_555
C17 C16 1_555 1_555
C18 C17 1_555 1_555
C19 C14 1_555 1_555
C20 C19 1_555 1_555
H15 C20 1_555 1_555
C21 C20 1_555 1_555
H16 C21 1_555 1_555
C22 C21 1_555 1_555
H17 C22 1_555 1_555
C23 C18 1_555 1_555
H18 C23 1_555 1_555
C24 C17 1_555 1_555
C25 O9 1_555 1_555
C26 C25 1_555 1_555
C27 C26 1_555 1_555
H19 C27 1_555 1_555
C28 C27 1_555 1_555
H20 C28 1_555 1_555
C29 C28 1_555 1_555
C30 C29 1_555 1_555
C31 C26 1_555 1_555
C32 C31 1_555 1_555
H21 C32 1_555 1_555
C33 C32 1_555 1_555
H22 C33 1_555 1_555
C34 C33 1_555 1_555
H23 C34 1_555 1_555
C35 C30 1_555 1_555
H24 C35 1_555 1_555
C36 C29 1_555 1_555
C37 H25 1_555 1_555
C38 C37 1_555 1_555
H26 C38 1_555 1_555
C39 C38 1_555 1_555
C40 C39 1_555 1_555
H27 C40 1_555 1_555
C41 N1 1_555 1_555
H28 C41 1_555 1_555
C42 H29 1_555 1_555
C43 C42 1_555 1_555
H30 C43 1_555 1_555
C44 C39 1_555 1_555
C45 C44 1_555 1_555
H31 C45 1_555 1_555
C46 N2 1_555 1_555
H32 C46 1_555 1_555
C47 N3 1_555 1_555
H33 C47 1_555 1_555
C48 C47 1_555 1_555
H34 C48 1_555 1_555
C49 C48 1_555 1_555
C50 C49 1_555 1_555
H35 C50 1_555 1_555
C51 N3 1_555 1_555
H36 C51 1_555 1_555
Eu1C O1C 1_555 1_555
Eu1C_2 O7 1_555 1_555
Eu1B N3B 1_555 1_555
Eu1A O1A 1_555 1_555
Eu2A O3 1_555 1_555
Eu2C O11 1_555 1_555
Eu2A_2 O2A 1_555 1_555
Eu2C_2 O9C 1_555 1_555
O1A C1A 1_555 1_555
O2A C1A 1_555 1_555
O2A_2 Eu2A 1_555 1_555
O3A Eu2 1_555 1_555
O4A Eu2 1_555 1_555
O5C Eu1C 1_555 1_555
O5A Eu2A 1_555 1_555
O6C Eu1C 1_555 1_555
O7C Eu1 1_555 1_555
O7_2 Eu1C 1_555 1_555
O8C Eu1 1_555 1_555
O8_2 Eu1C 1_555 1_555
O9C Eu1C_2 1_555 1_555
O9C_2 Eu1C 1_555 1_555
O9A Eu2A 1_555 1_555
O10C Eu2C_2 1_555 1_555
O10A Eu2A 1_555 1_555
O11C Eu2 1_555 1_555
O11B Eu2A 1_555 1_555
O12C Eu2 1_555 1_555
O12B Eu2A 1_555 1_555
O13C Eu1C 1_555 1_555
H1C O13C 1_555 1_555
H2C O13C 1_555 1_555
O14C Eu1C 1_555 1_555
H3C O14C 1_555 1_555
H4C O14C 1_555 1_555
O15A Eu2A 1_555 1_555
H5A O15A 1_555 1_555
H6A O15A 1_555 1_555
N3B C47B 1_555 1_555
N3C Eu1C 1_555 1_555
C1A C2A 1_555 1_555
C2A C3A 1_555 1_555
C3A H7A 1_555 1_555
C4A C3A 1_555 1_555
H8A C4A 1_555 1_555
C5A C4A 1_555 1_555
C6A C5A 1_555 1_555
C7A C2A 1_555 1_555
C8A C7A 1_555 1_555
H9A C8A 1_555 1_555
C9A C8A 1_555 1_555
H10A C9A 1_555 1_555
C10A C9A 1_555 1_555
H11A C10A 1_555 1_555
C11A C6A 1_555 1_555
H12A C11A 1_555 1_555
C12A O3A 1_555 1_555
C13C O5C 1_555 1_555
C14C C13C 1_555 1_555
C15C C14C 1_555 1_555
H13C C15C 1_555 1_555
C16C C15C 1_555 1_555
H14C C16C 1_555 1_555
C17C C16C 1_555 1_555
C18C C17C 1_555 1_555
C19C C14C 1_555 1_555
C20C C19C 1_555 1_555
H15C C20C 1_555 1_555
C21C C20C 1_555 1_555
H16C C21C 1_555 1_555
C22C C21C 1_555 1_555
H17C C22C 1_555 1_555
C23C C18C 1_555 1_555
H18C C23C 1_555 1_555
C24C O7C 1_555 1_555
C25C O9C 1_555 1_555
C26C C25C 1_555 1_555
C27C C26C 1_555 1_555
H19C C27C 1_555 1_555
C28C C27C 1_555 1_555
H20C C28C 1_555 1_555
C29C C28C 1_555 1_555
C30C C29C 1_555 1_555
C31C C26C 1_555 1_555
C32C C31C 1_555 1_555
H21C C32C 1_555 1_555
C33C C32C 1_555 1_555
H22C C33C 1_555 1_555
C34C C33C 1_555 1_555
H23C C34C 1_555 1_555
C35C C30C 1_555 1_555
H24C C35C 1_555 1_555
C36C O11C 1_555 1_555
C47B H33B 1_555 1_555
C48B C47B 1_555 1_555
H34B C48B 1_555 1_555
C49B C49 1_555 1_555
C50B C49B 1_555 1_555
H35B C50B 1_555 1_555
C51B N3B 1_555 1_555
H36B C51B 1_555 1_555
Eu2 O5 1_555 1_555
Eu2 O9 1_555 1_555
O4 Eu2A 1_555 1_555
O6 C13 1_555 1_555
O8 Eu1C_2 1_555 1_555
O10 C25 1_555 1_555
O12 Eu2C 1_555 1_555
C6 C7 1_555 1_555
C10 C11 1_555 1_555
C18 C19 1_555 1_555
C22 C23 1_555 1_555
C30 C31 1_555 1_555
C34 C35 1_555 1_555
C40 C41 1_555 1_555
C43 C44 1_555 1_555
C45 C46 1_555 1_555
C50 C51 1_555 1_555
Eu2C O5C 1_555 1_555
Eu2C O9C_2 1_555 1_555
O4A C12A 1_555 1_555
O6C C13C 1_555 1_555
O8C C24C 1_555 1_555
O10C C25C 1_555 1_555
O12C C36C 1_555 1_555
C5A C12A 1_555 1_555
C6A C7A 1_555 1_555
C10A C11A 1_555 1_555
C17C C24C 1_555 1_555
C18C C19C 1_555 1_555
C22C C23C 1_555 1_555
C29C C36C 1_555 1_555
C30C C31C 1_555 1_555
C34C C35C 1_555 1_555
C48B C49B 1_555 1_555
C50B C51B 1_555 1_555

#END
