
#######################################################################
#
#                 Cambridge Crystallographic Data Centre
#                                CCDC 
#
#######################################################################
#
# If this CIF has been generated from an entry in the Cambridge 
# Structural Database, then it will include bibliographic, chemical, 
# crystal, experimental, refinement or atomic coordinate data resulting 
# from the CCDC's data processing and validation procedures.
#
#######################################################################

data_SARNOQ
_symmetry_cell_setting           rhombohedral
_symmetry_space_group_name_H-M   'R -3'
_symmetry_Int_Tables_number      148
_space_group_name_Hall           '-R 3'
loop_
_symmetry_equiv_pos_site_id
_symmetry_equiv_pos_as_xyz
1 x,y,z
2 -y,x-y,z
3 -x+y,-x,z
4 2/3+x,1/3+y,1/3+z
5 2/3-y,1/3+x-y,1/3+z
6 2/3-x+y,1/3-x,1/3+z
7 1/3+x,2/3+y,2/3+z
8 1/3-y,2/3+x-y,2/3+z
9 1/3-x+y,2/3-x,2/3+z
10 -x,-y,-z
11 y,-x+y,-z
12 x-y,x,-z
13 1/3-x,2/3-y,2/3-z
14 1/3+y,2/3-x+y,2/3-z
15 1/3+x-y,2/3+x,2/3-z
16 2/3-x,1/3-y,1/3-z
17 2/3+y,1/3-x+y,1/3-z
18 2/3+x-y,1/3+x,1/3-z
_cell_length_a                   23.8620(19)
_cell_length_b                   23.8620(19)
_cell_length_c                   14.6860(19)
_cell_angle_alpha                90
_cell_angle_beta                 90
_cell_angle_gamma                120
_cell_volume                     7241.82
loop_
_atom_site_label
_atom_site_type_symbol
_atom_site_fract_x
_atom_site_fract_y
_atom_site_fract_z
C1 C 0.21108(18) 0.28892(17) 0.3394(2)
C2 C 0.14977(18) 0.25469(17) 0.3788(2)
C3 C 0.27551(18) 0.32634(17) 0.3784(2)
C4 C 0.12832(17) 0.24325(17) 0.4732(3)
N1 N 0.20409(18) 0.28762(17) 0.2494(2)
N2 N 0.14020(18) 0.25280(17) 0.2375(2)
H10 H 0.1229 0.2443 0.1843
N3 N 0.10561(17) 0.23244(16) 0.3121(2)
N4 N 0.07180(16) 0.23559(15) 0.5010(2)
N5 N 0.0682(2) 0.22310(18) 0.5913(2)
N6 N 0.1204(2) 0.22380(19) 0.6169(2)
N7 N 0.15977(16) 0.23693(15) 0.5439(2)
N8 N 0.32435(16) 0.37688(16) 0.3381(2)
N9 N 0.37507(18) 0.39841(19) 0.3952(3)
N10 N 0.35789(18) 0.36243(19) 0.4671(3)
N11 N 0.29436(15) 0.31598(16) 0.4586(2)
Zn1 Zn 0.24824(2) 0.24606(2) 0.55254(3)
N4J N 0.23559(15) 0.16379(22) 0.4990(2)
N8D N 0.28979(16) 0.28080(23) 0.6714(2)
Zn1K Zn 0.00218(3) 0.24824(2) 0.44746(3)
Zn1H Zn 0.33115(3) 0.41843(2) 0.21921(3)
C5 C 0.4983(13) 0.1896(14) 0.2679(10)
H1 H 0.5161 0.1909 0.2087
H2 H 0.4769 0.1459 0.2902
H3 H 0.5325 0.2169 0.3089
C6 C 0.4399(8) 0.2293(8) 0.1722(6)
H4 H 0.4656 0.2237 0.1269
H5 H 0.4503 0.2737 0.1731
H6 H 0.3949 0.2021 0.1580
C7 C 0.4279(5) 0.2132(4) 0.3354(4)
C8 C 0.3803(6) 0.2364(9) 0.3307(8)
H7 H 0.3737 0.2436 0.2683
H8 H 0.3967 0.2762 0.3641
H9 H 0.3399 0.2045 0.3568
N12 N 0.4534(6) 0.2116(5) 0.2616(4)
O1 O 0.4436(4) 0.1991(3) 0.4097(3)
loop_
_geom_bond_atom_site_label_1
_geom_bond_atom_site_label_2
_geom_bond_site_symmetry_1
_geom_bond_site_symmetry_2
C1 C2 1_555 1_555
C2 C4 1_555 1_555
C3 C1 1_555 1_555
C4 N4 1_555 1_555
C5 H1 1_555 1_555
H2 C5 1_555 1_555
H3 C5 1_555 1_555
C6 H4 1_555 1_555
H5 C6 1_555 1_555
H6 C6 1_555 1_555
C7 C8 1_555 1_555
C8 H7 1_555 1_555
H8 C8 1_555 1_555
H9 C8 1_555 1_555
N1 C1 1_555 1_555
N2 N1 1_555 1_555
H10 N2 1_555 1_555
N3 C2 1_555 1_555
N4 N5 1_555 1_555
N5 N6 1_555 1_555
N6 N7 1_555 1_555
N7 C4 1_555 1_555
N8 C3 1_555 1_555
N9 N8 1_555 1_555
N10 N9 1_555 1_555
N11 C3 1_555 1_555
N12 C5 1_555 1_555
O1 C7 1_555 1_555
Zn1 N7 1_555 1_555
N4J Zn1 1_555 1_555
N8D Zn1 1_555 1_555
Zn1K N4 1_555 1_555
Zn1H N8 1_555 1_555
C6 N12 1_555 1_555
C7 N12 1_555 1_555
N2 N3 1_555 1_555
N10 N11 1_555 1_555
N11 Zn1 1_555 1_555

#END
