
#######################################################################
#
#                 Cambridge Crystallographic Data Centre
#                                CCDC 
#
#######################################################################
#
# If this CIF has been generated from an entry in the Cambridge 
# Structural Database, then it will include bibliographic, chemical, 
# crystal, experimental, refinement or atomic coordinate data resulting 
# from the CCDC's data processing and validation procedures.
#
#######################################################################

data_SEHZUB
_symmetry_cell_setting           monoclinic
_symmetry_space_group_name_H-M   'C 2'
_symmetry_Int_Tables_number      5
_space_group_name_Hall           'C 2y'
loop_
_symmetry_equiv_pos_site_id
_symmetry_equiv_pos_as_xyz
1 x,y,z
2 -x,y,-z
3 1/2+x,1/2+y,z
4 1/2-x,1/2+y,-z
_cell_length_a                   24.495(9)
_cell_length_b                   8.320(2)
_cell_length_c                   11.375(3)
_cell_angle_alpha                90
_cell_angle_beta                 105.222(13)
_cell_angle_gamma                90
_cell_volume                     2236.87
loop_
_atom_site_label
_atom_site_type_symbol
_atom_site_fract_x
_atom_site_fract_y
_atom_site_fract_z
Co1 Co 0.18520(3) 0.50811(8) -0.06344(6)
N1 N 0.1837(2) 0.4804(6) -0.2542(5)
C1 C 0.3049(3) 0.6454(7) -0.0057(6)
C2 C 0.3562(3) 0.6362(8) -0.0523(6)
C3 C 0.4038(3) 0.7198(8) -0.0013(6)
C4 C 0.4518(2) 0.7066(7) -0.0492(5)
C5 C 0.4489(3) 0.6253(8) -0.1533(6)
H1 H 0.4798 0.6196 -0.1863
C6 C 0.3972(2) 0.5491(8) -0.2103(6)
H2 H 0.3942 0.4919 -0.2819
C7 C 0.3522(2) 0.5571(7) -0.1636(6)
H3 H 0.3182 0.5100 -0.2051
C8 C 0.2322(3) 0.4505(8) -0.7825(6)
H4 H 0.2642 0.4108 -0.8022
C9 C 0.2304(3) 0.4480(8) -0.6655(7)
H5 H 0.2611 0.4069 -0.6068
C10 C 0.1841(2) 0.5047(10) -0.6293(5)
C11 C 0.1394(3) 0.5593(7) -0.7189(6)
H6 H 0.1069 0.5941 -0.6989
C12 C 0.1417(3) 0.5638(8) -0.8415(6)
H7 H 0.1112 0.6045 -0.9012
C13 C 0.1884(2) 0.5117(10) -0.4947(5)
C14 C 0.2019(3) 0.3659(8) -0.4345(6)
H8 H 0.2126 0.2788 -0.4746
C15 C 0.1996(3) 0.3503(8) -0.3142(6)
H9 H 0.2086 0.2527 -0.2739
C16 C 0.1701(3) 0.6264(8) -0.3144(6)
H10 H 0.1595 0.7136 -0.2742
C17 C 0.1725(3) 0.6418(8) -0.4346(6)
H11 H 0.1634 0.7394 -0.4749
C18 C 0.4145(3) 0.8087(8) 0.1173(6)
N2 N 0.1895(2) 0.5082(10) -0.8717(5)
O1 O 0.27162(16) 0.5389(5) -0.0348(4)
O2 O 0.29781(19) 0.7624(6) 0.0505(4)
O3 O 0.43177(18) 0.7263(5) 0.2100(4)
O4 O 0.40127(16) 0.9582(5) 0.1112(4)
O5 O 0.5000 0.7982(8) 0.0000
O6 O 0.15942(17) 0.7407(6) -0.0738(4)
H12 H 0.178(3) 0.821(10) -0.108(7)
H13 H 0.161(3) 0.797(9) 0.003(7)
Co1_2 Co 0.18520(3) 0.50811(8) 0.93656(6)
Co1_3 Co 0.18520(3) 0.50811(8) -1.06344(6)
Co1C Co 0.31480(3) 1.00811(8) 0.06344(6)
Co1A Co 0.81480(3) 0.50811(8) 0.06344(6)
Co1B Co 0.68520(3) 1.00811(8) -0.06344(6)
N1_2 N 0.1837(2) 0.4804(6) 0.7458(5)
C1A C 0.6951(3) 0.6454(7) 0.0057(6)
C2A C 0.6438(3) 0.6362(8) 0.0523(6)
C3A C 0.5962(3) 0.7198(8) 0.0013(6)
C4A C 0.5482(2) 0.7066(7) 0.0492(5)
C5A C 0.5511(3) 0.6253(8) 0.1533(6)
H1A H 0.5202 0.6196 0.1863
C6A C 0.6028(2) 0.5491(8) 0.2103(6)
H2A H 0.6058 0.4919 0.2819
C7A C 0.6478(2) 0.5571(7) 0.1636(6)
H3A H 0.6818 0.5100 0.2051
C8_2 C 0.2322(3) 0.4505(8) 0.2175(6)
H4_2 H 0.2642 0.4108 0.1978
C9_2 C 0.2304(3) 0.4480(8) 0.3345(7)
H5_2 H 0.2611 0.4069 0.3932
C10_2 C 0.1841(2) 0.5047(10) 0.3707(5)
C11_2 C 0.1394(3) 0.5593(7) 0.2811(6)
H6_2 H 0.1069 0.5941 0.3011
C12_2 C 0.1417(3) 0.5638(8) 0.1585(6)
H7_2 H 0.1112 0.6045 0.0988
C13_2 C 0.1884(2) 0.5117(10) 0.5053(5)
C14_2 C 0.2019(3) 0.3659(8) 0.5655(6)
H8_2 H 0.2126 0.2788 0.5254
C15_2 C 0.1996(3) 0.3503(8) 0.6858(6)
H9_2 H 0.2086 0.2527 0.7261
C16_2 C 0.1701(3) 0.6264(8) 0.6856(6)
H10_2 H 0.1595 0.7136 0.7258
C17_2 C 0.1725(3) 0.6418(8) 0.5654(6)
H11_2 H 0.1634 0.7394 0.5251
C18A C 0.5855(3) 0.8087(8) -0.1173(6)
N2_2 N 0.1895(2) 0.5082(10) 0.1283(5)
N2_3 N 0.1895(2) 0.5082(10) 1.1283(5)
O1A O 0.72838(16) 0.5389(5) 0.0348(4)
O1_2 O 0.27162(16) 0.5389(5) 0.9652(4)
O2A O 0.70219(19) 0.7624(6) -0.0505(4)
O2C O 0.20219(19) 0.2624(6) -0.0505(4)
O2C_2 O 0.20219(19) 0.2624(6) 0.9495(4)
O3A O 0.56823(18) 0.7263(5) -0.2100(4)
O4A O 0.59873(16) 0.9582(5) -0.1112(4)
O4C O 0.09873(16) 0.4582(5) -0.1112(4)
O4C_2 O 0.09873(16) 0.4582(5) 0.8888(4)
O6_2 O 0.15942(17) 0.7407(6) 0.9262(4)
H12_2 H 0.178(3) 0.821(10) 0.892(7)
H13_2 H 0.161(3) 0.797(9) 1.003(7)
O7 O 0.43230(17) 0.8363(5) 0.4280(4)
H14 H 0.4549 0.8845 0.4869
H15 H 0.4067 0.7899 0.4535
O8 O 0.4750(2) 0.1282(5) 0.4043(4)
H16 H 0.5051 0.1364 0.4616
H17 H 0.4826 0.1380 0.3359
O9 O 0.5145(4) 0.2978(12) 0.2620(9)
H18 H 0.5224 0.3803 0.3074
H19 H 0.5342 0.2985 0.2106
O10 O 0.5449(4) 0.5746(12) 0.4216(9)
H20 H 0.5144 0.6120 0.4334
H21 H 0.5674 0.5484 0.4894
O11? O 0.4854(4) 0.1823(12) 0.9504(9)
H22? H 0.5069 0.1124 0.9314
H23? H 0.4903 0.2723 0.9194
loop_
_geom_bond_atom_site_label_1
_geom_bond_atom_site_label_2
_geom_bond_site_symmetry_1
_geom_bond_site_symmetry_2
Co1 N1 1_555 1_555
N1 C15 1_555 1_555
C1 C2 1_555 1_555
C2 C3 1_555 1_555
C3 C4 1_555 1_555
C4 C5 1_555 1_555
C5 H1 1_555 1_555
C6 C5 1_555 1_555
H2 C6 1_555 1_555
C7 C2 1_555 1_555
H3 C7 1_555 1_555
C8 H4 1_555 1_555
C9 C8 1_555 1_555
H5 C9 1_555 1_555
C10 C9 1_555 1_555
C11 C10 1_555 1_555
H6 C11 1_555 1_555
C12 C11 1_555 1_555
H7 C12 1_555 1_555
C13 C10 1_555 1_555
C14 C13 1_555 1_555
H8 C14 1_555 1_555
C15 C14 1_555 1_555
H9 C15 1_555 1_555
C16 N1 1_555 1_555
H10 C16 1_555 1_555
C17 C13 1_555 1_555
H11 C17 1_555 1_555
C18 C3 1_555 1_555
N2 C8 1_555 1_555
O1 Co1 1_555 1_555
O2 C1 1_555 1_555
O3 C18 1_555 1_555
O4 C18 1_555 1_555
O5 C4 1_555 1_555
O6 Co1 1_555 1_555
H12 O6 1_555 1_555
H13 O6 1_555 1_555
O7 H14 1_555 1_555
H15 O7 1_555 1_555
O8 H16 1_555 1_555
H17 O8 1_555 1_555
O9 H18 1_555 1_555
H19 O9 1_555 1_555
O10 H20 1_555 1_555
H21 O10 1_555 1_555
Co1_2 N1_2 1_555 1_555
Co1_3 N2 1_555 1_555
Co1C O2 1_555 1_555
Co1A O1A 1_555 1_555
Co1B O2A 1_555 1_555
N1_2 C15_2 1_555 1_555
C1A C2A 1_555 1_555
C2A C3A 1_555 1_555
C3A C4A 1_555 1_555
C4A O5 1_555 1_555
C5A C4A 1_555 1_555
H1A C5A 1_555 1_555
C6A C5A 1_555 1_555
H2A C6A 1_555 1_555
C7A C2A 1_555 1_555
H3A C7A 1_555 1_555
C8_2 H4_2 1_555 1_555
C9_2 C8_2 1_555 1_555
H5_2 C9_2 1_555 1_555
C10_2 C9_2 1_555 1_555
C11_2 C10_2 1_555 1_555
H6_2 C11_2 1_555 1_555
C12_2 C11_2 1_555 1_555
H7_2 C12_2 1_555 1_555
C13_2 C10_2 1_555 1_555
C14_2 C13_2 1_555 1_555
H8_2 C14_2 1_555 1_555
C15_2 C14_2 1_555 1_555
H9_2 C15_2 1_555 1_555
C16_2 N1_2 1_555 1_555
H10_2 C16_2 1_555 1_555
C17_2 C13_2 1_555 1_555
H11_2 C17_2 1_555 1_555
C18A C3A 1_555 1_555
N2_2 Co1 1_555 1_555
N2_3 Co1_2 1_555 1_555
O1A C1A 1_555 1_555
O1_2 Co1_2 1_555 1_555
O2A C1A 1_555 1_555
O2C Co1 1_555 1_555
O2C_2 Co1_2 1_555 1_555
O3A C18A 1_555 1_555
O4A Co1B 1_555 1_555
O4C Co1 1_555 1_555
O4C_2 Co1_2 1_555 1_555
O6_2 Co1_2 1_555 1_555
H12_2 O6_2 1_555 1_555
H13_2 O6_2 1_555 1_555
C1 O1 1_555 1_555
C6 C7 1_555 1_555
C12 N2 1_555 1_555
C16 C17 1_555 1_555
O4 Co1C 1_555 1_555
C6A C7A 1_555 1_555
C8_2 N2_2 1_555 1_555
C12_2 N2_2 1_555 1_555
C16_2 C17_2 1_555 1_555
C18A O4A 1_555 1_555

#END
