
#######################################################################
#
#                 Cambridge Crystallographic Data Centre
#                                CCDC 
#
#######################################################################
#
# If this CIF has been generated from an entry in the Cambridge 
# Structural Database, then it will include bibliographic, chemical, 
# crystal, experimental, refinement or atomic coordinate data resulting 
# from the CCDC's data processing and validation procedures.
#
#######################################################################

data_SEQSIS
_symmetry_cell_setting           trigonal
_symmetry_space_group_name_H-M   'P 32 2 1'
_symmetry_Int_Tables_number      154
_space_group_name_Hall           'P 32 2"'
loop_
_symmetry_equiv_pos_site_id
_symmetry_equiv_pos_as_xyz
1 x,y,z
2 -y,x-y,2/3+z
3 -x+y,-x,1/3+z
4 y,x,-z
5 x-y,-y,1/3-z
6 -x,-x+y,2/3-z
_cell_length_a                   10.7647(2)
_cell_length_b                   10.7647(2)
_cell_length_c                   26.7578(10)
_cell_angle_alpha                90
_cell_angle_beta                 90
_cell_angle_gamma                120
_cell_volume                     2685.25
loop_
_atom_site_label
_atom_site_type_symbol
_atom_site_fract_x
_atom_site_fract_y
_atom_site_fract_z
Ni1 Ni 0.78123(2) 0.83231(2) 0.133321(7)
N1 N 0.89842(17) 0.32052(18) 0.22781(5)
O1 O 0.9473(2) 0.63446(18) 0.12747(6)
O2 O 0.80314(15) 0.68326(14) 0.17337(4)
O3 O 0.20424(15) 0.22098(17) 0.42289(5)
O4 O 0.33841(15) 0.17265(16) 0.47454(5)
O5 O 0.89365(19) 0.80612(19) 0.07396(5)
O6 O 0.97629(18) 1.0000 0.1667
C1 C 0.9188(2) 0.4276(2) 0.19691(6)
H1 H 0.9850 0.4522 0.1711
C2 C 0.8469(2) 0.5026(2) 0.20140(6)
C3 C 0.7479(2) 0.4656(2) 0.23977(7)
H2 H 0.6956 0.5126 0.2430
C4 C 0.7268(2) 0.3587(2) 0.27333(7)
C5 C 0.8060(2) 0.2902(2) 0.26581(7)
H3 H 0.7942 0.2194 0.2884
C6 C 0.6201(2) 0.3151(2) 0.31468(7)
C7 C 0.4950(3) 0.3221(3) 0.30719(8)
H4 H 0.4786 0.3515 0.2764
C8 C 0.3960(2) 0.2858(3) 0.34492(7)
H5 H 0.3132 0.2904 0.3391
C9 C 0.4170(2) 0.2426(2) 0.39137(7)
C10 C 0.5395(2) 0.2314(3) 0.39848(7)
H6 H 0.5540 0.1992 0.4290
C11 C 0.6402(2) 0.2679(3) 0.36055(7)
H7 H 0.7216 0.2606 0.3660
C12 C 0.8692(2) 0.6182(2) 0.16397(7)
C13 C 0.3110(2) 0.20907(19) 0.43302(6)
Ni1D Ni 0.94892(3) 1.16769(2) 0.200012(7)
N1D N 1.57790(25) 1.67948(18) 0.10552(5)
O1D O 1.31284(27) 1.36554(18) 0.20586(6)
O2D O 1.11988(21) 1.31674(14) 0.15996(4)
O3D O 0.98326(23) 1.77902(17) -0.08956(5)
O4D O 1.16576(22) 1.82735(16) -0.14121(5)
O5D O 1.08753(27) 1.19388(19) 0.25937(5)
C1D C 1.4912(3) 1.5724(2) 0.13642(6)
H1D H 1.5328 1.5478 0.1622
C2D C 1.3443(3) 1.4974(2) 0.13193(6)
C3D C 1.2823(3) 1.5344(2) 0.09356(7)
H2D H 1.1830 1.4874 0.0903
C4D C 1.3681(3) 1.6413(2) 0.06000(7)
C5D C 1.5158(3) 1.7098(2) 0.06752(7)
H3D H 1.5748 1.7806 0.0449
C6D C 1.3050(3) 1.6849(2) 0.01865(7)
C7D C 1.1729(4) 1.6779(3) 0.02614(8)
H4D H 1.1271 1.6485 0.0569
C8D C 1.1102(4) 1.7142(3) -0.01159(7)
H5D H 1.0228 1.7096 -0.0058
C9D C 1.1744(3) 1.7574(2) -0.05804(7)
C10D C 1.3081(4) 1.7686(3) -0.06515(7)
H6D H 1.3548 1.8008 -0.0957
C11D C 1.3723(4) 1.7321(3) -0.02722(7)
H7D H 1.4610 1.7394 -0.0327
C12D C 1.2510(3) 1.3818(2) 0.16936(7)
C13D C 1.10193(28) 1.79093(19) -0.09969(6)
Ni1_2 Ni 1.78123(2) 1.83231(2) 0.133321(7)
Ni1A Ni 1.16769(2) 1.94892(3) -0.200012(7)
Ni1B Ni 0.05108(3) 0.21877(2) 0.466654(7)
Ni1C Ni 0.83231(2) 1.78123(2) -0.133321(7)
Ni1D_2 Ni 0.94892(3) 0.16769(2) 0.200012(7)
Ni1E Ni 0.21877(2) 0.05108(3) 0.533346(7)
N1_2 N 0.89842(17) 1.32052(18) 0.22781(5)
N1D_2 N 0.57790(25) 0.67948(18) 0.10552(5)
O3A O 0.77902(17) 0.98326(23) 0.08956(5)
O3E O 0.79576(15) 1.01674(23) 0.24378(5)
O4A O 0.82735(16) 1.16576(22) 0.14121(5)
O4E O 0.66159(15) 0.83424(22) 0.19213(5)
loop_
_geom_bond_atom_site_label_1
_geom_bond_atom_site_label_2
_geom_bond_site_symmetry_1
_geom_bond_site_symmetry_2
Ni1 O2 1_555 1_555
N1 C1 1_555 1_555
O1 C12 1_555 1_555
O2 C12 1_555 1_555
O3 C13 1_555 1_555
O4 C13 1_555 1_555
O5 Ni1 1_555 1_555
O6 Ni1 1_555 1_555
C1 H1 1_555 1_555
C2 C1 1_555 1_555
C3 C2 1_555 1_555
H2 C3 1_555 1_555
C4 C3 1_555 1_555
C5 N1 1_555 1_555
H3 C5 1_555 1_555
C6 C4 1_555 1_555
C7 C6 1_555 1_555
H4 C7 1_555 1_555
C8 C7 1_555 1_555
H5 C8 1_555 1_555
C9 C8 1_555 1_555
C10 C9 1_555 1_555
H6 C10 1_555 1_555
C11 C6 1_555 1_555
H7 C11 1_555 1_555
C12 C2 1_555 1_555
C13 C9 1_555 1_555
Ni1D O6 1_555 1_555
N1D C1D 1_555 1_555
O1D C12D 1_555 1_555
O2D Ni1D 1_555 1_555
O3D C13D 1_555 1_555
O4D C13D 1_555 1_555
O5D Ni1D 1_555 1_555
C1D H1D 1_555 1_555
C2D C1D 1_555 1_555
C3D C2D 1_555 1_555
H2D C3D 1_555 1_555
C4D C3D 1_555 1_555
C5D N1D 1_555 1_555
H3D C5D 1_555 1_555
C6D C4D 1_555 1_555
C7D C6D 1_555 1_555
H4D C7D 1_555 1_555
C8D C7D 1_555 1_555
H5D C8D 1_555 1_555
C9D C8D 1_555 1_555
C10D C9D 1_555 1_555
H6D C10D 1_555 1_555
C11D C6D 1_555 1_555
H7D C11D 1_555 1_555
C12D O2D 1_555 1_555
C13D C9D 1_555 1_555
Ni1_2 N1D 1_555 1_555
Ni1A O4D 1_555 1_555
Ni1B O3 1_555 1_555
Ni1C O3D 1_555 1_555
Ni1D_2 N1 1_555 1_555
Ni1E O4 1_555 1_555
N1_2 Ni1D 1_555 1_555
N1D_2 Ni1 1_555 1_555
O3A Ni1 1_555 1_555
O3E Ni1D 1_555 1_555
O4A Ni1D 1_555 1_555
O4E Ni1 1_555 1_555
C4 C5 1_555 1_555
C10 C11 1_555 1_555
C2D C12D 1_555 1_555
C4D C5D 1_555 1_555
C10D C11D 1_555 1_555

#END
