
#######################################################################
#
#                 Cambridge Crystallographic Data Centre
#                                CCDC 
#
#######################################################################
#
# If this CIF has been generated from an entry in the Cambridge 
# Structural Database, then it will include bibliographic, chemical, 
# crystal, experimental, refinement or atomic coordinate data resulting 
# from the CCDC's data processing and validation procedures.
#
#######################################################################

data_SERCEZ
_symmetry_cell_setting           orthorhombic
_symmetry_space_group_name_H-M   'P n m a'
_symmetry_Int_Tables_number      62
_space_group_name_Hall           '-P 2ac 2n'
loop_
_symmetry_equiv_pos_site_id
_symmetry_equiv_pos_as_xyz
1 x,y,z
2 1/2-x,-y,1/2+z
3 -x,1/2+y,-z
4 1/2+x,1/2-y,1/2-z
5 -x,-y,-z
6 1/2+x,y,1/2-z
7 x,1/2-y,z
8 1/2-x,1/2+y,1/2+z
_cell_length_a                   17.1238(11)
_cell_length_b                   20.1150(13)
_cell_length_c                   27.1291(16)
_cell_angle_alpha                90
_cell_angle_beta                 90
_cell_angle_gamma                90
_cell_volume                     9344.49
loop_
_atom_site_label
_atom_site_type_symbol
_atom_site_fract_x
_atom_site_fract_y
_atom_site_fract_z
Zn1 Zn 0.73995(3) 0.17138(3) 0.40957(2)
Zn2 Zn 0.61372(4) 0.2500 0.35088(3)
Zn3 Zn 0.60545(5) 0.2500 0.46735(3)
O1 O 0.7360(3) 0.1162(3) 0.46751(17)
O2 O 0.6470(6) 0.1761(4) 0.5071(2)
C1 C 0.7021(6) 0.1350(5) 0.5058(3)
C2 C 0.7131(5) 0.0934(4) 0.5513(3)
C3 C 0.7621(6) 0.0418(6) 0.5505(4)
H1 H 0.7863 0.0290 0.5214
C4 C 0.6841(11) 0.1123(6) 0.5954(4)
H2 H 0.6510 0.1488 0.5970
C5 C 0.7024(10) 0.0788(6) 0.6379(4)
H3 H 0.6845 0.0952 0.6679
C6 C 0.7766(9) 0.0067(7) 0.5955(5)
C7 C 0.7453(5) 0.0230(5) 0.6375(3)
C8 C 0.7623(6) -0.0147(5) 0.6828(3)
C9 C 0.8229(11) -0.0553(6) 0.6871(4)
H4 H 0.8590 -0.0571 0.6615
C10 C 0.7256(8) -0.0075(8) 0.7245(5)
H5 H 0.6845 0.0227 0.7252
C11 C 0.8347(9) -0.0951(6) 0.7283(3)
H6 H 0.8755 -0.1256 0.7277
C12 C 0.7417(7) -0.0402(7) 0.7669(4)
H7 H 0.7181 -0.0271 0.7962
C13 C 0.7922(4) -0.0918(4) 0.7667(3)
C14 C 0.8083(4) -0.1312(3) 0.8117(2)
O3 O 0.7684(3) -0.1202(3) 0.84992(16)
O4 O 0.8587(3) -0.1761(3) 0.80706(17)
O5 O 0.836(3) -0.058(2) 0.5883(12)
H8 H 0.8566 -0.0557 0.5610
O6 O 1.5017(3) 0.2500 0.3554(2)
O7 O 1.5054(7) 0.2500 0.4365(5)
C15 C 1.4710(6) 0.2500 0.3957(4)
C16 C 1.3812(5) 0.2500 0.3985(5)
C17 C 1.3389(6) 0.2500 0.3577(5)
H9 H 1.3626 0.2500 0.3269
C18 C 1.3499(8) 0.2500 0.4419(7)
H10 H 1.3777 0.2500 0.4713
C19 C 1.2622(8) 0.2500 0.4381(7)
H11 H 1.2359 0.2500 0.4681
C20 C 1.2603(6) 0.2500 0.3621(5)
H12 H 1.2325 0.2500 0.3326
C21 C 1.2195(7) 0.2500 0.4009(5)
C22 C 1.1350(6) 0.2500 0.4010(4)
C23 C 1.0919(5) 0.1935(7) 0.3994(5)
H13 H 1.1174 0.1529 0.3967
C24 C 1.0119(4) 0.1943(5) 0.4015(4)
H14 H 0.9850 0.1542 0.4004
C25 C 0.9718(4) 0.2500 0.4052(3)
C26 C 0.8847(5) 0.2500 0.4059(3)
O8 O 0.8517(2) 0.1962(2) 0.40720(16)
O9 O 0.6766(3) 0.2500 0.40946(15)
C23F C 1.0919(5) 0.3065(7) 0.3994(5)
H13F H 1.1174 0.3471 0.3967
C24F C 1.0119(4) 0.3057(5) 0.4015(4)
H14F H 0.9850 0.3458 0.4004
O8F O 0.8517(2) 0.3038(2) 0.40720(16)
Zn1F Zn 0.73995(3) 0.32862(3) 0.40957(2)
O1F O 0.7360(3) 0.3838(3) 0.46751(17)
O2F O 0.6470(6) 0.3239(4) 0.5071(2)
C1F C 0.7021(6) 0.3650(5) 0.5058(3)
C2F C 0.7131(5) 0.4066(4) 0.5513(3)
C3F C 0.7621(6) 0.4582(6) 0.5505(4)
H1F H 0.7863 0.4710 0.5214
C4F C 0.6841(11) 0.3877(6) 0.5954(4)
H2F H 0.6510 0.3512 0.5970
C5F C 0.7024(10) 0.4212(6) 0.6379(4)
H3F H 0.6845 0.4048 0.6679
C6F C 0.7766(9) 0.4933(7) 0.5955(5)
C7F C 0.7453(5) 0.4770(5) 0.6375(3)
C8F C 0.7623(6) 0.5147(5) 0.6828(3)
C9F C 0.8229(11) 0.5553(6) 0.6871(4)
H4F H 0.8590 0.5571 0.6615
C10F C 0.7256(8) 0.5075(8) 0.7245(5)
H5F H 0.6845 0.4773 0.7252
C11F C 0.8347(9) 0.5951(6) 0.7283(3)
H6F H 0.8755 0.6256 0.7277
C12F C 0.7417(7) 0.5402(7) 0.7669(4)
H7F H 0.7181 0.5271 0.7962
C13F C 0.7922(4) 0.5918(4) 0.7667(3)
C14F C 0.8083(4) 0.6312(3) 0.8117(2)
O3F O 0.7684(3) 0.6202(3) 0.84992(16)
O4F O 0.8587(3) 0.6761(3) 0.80706(17)
O5F O 0.836(3) 0.558(2) 0.5883(12)
H8F H 0.8566 0.5557 0.5610
Zn1A Zn 0.76005(3) -0.17138(3) 0.90957(2)
Zn1G Zn 0.76005(3) 0.67138(3) 0.90957(2)
Zn2_2 Zn 1.61372(4) 0.2500 0.35088(3)
Zn2A Zn 0.88628(4) -0.2500 0.85088(3)
Zn2A_2 Zn 0.88628(4) 0.7500 0.85088(3)
Zn3_2 Zn 1.60545(5) 0.2500 0.46735(3)
O3A O 0.7316(3) 0.1202(3) 0.34992(16)
O3G O 0.7316(3) 0.3798(3) 0.34992(16)
O4A O 0.6413(3) 0.1761(3) 0.30706(17)
O4G O 0.6413(3) 0.3239(3) 0.30706(17)
O6_2 O 0.5017(3) 0.2500 0.3554(2)
O7_2 O 0.5054(7) 0.2500 0.4365(5)
loop_
_geom_bond_atom_site_label_1
_geom_bond_atom_site_label_2
_geom_bond_site_symmetry_1
_geom_bond_site_symmetry_2
Zn1 O1 1_555 1_555
Zn2 O9 1_555 1_555
Zn3 O2 1_555 1_555
O1 C1 1_555 1_555
O2 C1 1_555 1_555
C1 C2 1_555 1_555
C2 C3 1_555 1_555
C3 H1 1_555 1_555
C4 C2 1_555 1_555
H2 C4 1_555 1_555
C5 C4 1_555 1_555
H3 C5 1_555 1_555
C6 C3 1_555 1_555
C7 C5 1_555 1_555
C8 C7 1_555 1_555
C9 C8 1_555 1_555
H4 C9 1_555 1_555
C10 C8 1_555 1_555
H5 C10 1_555 1_555
C11 C9 1_555 1_555
H6 C11 1_555 1_555
C12 C10 1_555 1_555
H7 C12 1_555 1_555
C13 C11 1_555 1_555
C14 C13 1_555 1_555
O3 C14 1_555 1_555
O4 C14 1_555 1_555
O5 C6 1_555 1_555
H8 O5 1_555 1_555
O6 C15 1_555 1_555
O7 C15 1_555 1_555
C15 C16 1_555 1_555
C16 C17 1_555 1_555
C17 H9 1_555 1_555
C18 C16 1_555 1_555
H10 C18 1_555 1_555
C19 C18 1_555 1_555
H11 C19 1_555 1_555
C20 C17 1_555 1_555
H12 C20 1_555 1_555
C21 C19 1_555 1_555
C22 C21 1_555 1_555
C23 C22 1_555 1_555
H13 C23 1_555 1_555
C24 C23 1_555 1_555
H14 C24 1_555 1_555
C25 C24 1_555 1_555
C26 C25 1_555 1_555
O8 Zn1 1_555 1_555
O9 Zn1 1_555 1_555
C23F C22 1_555 1_555
H13F C23F 1_555 1_555
C24F C25 1_555 1_555
H14F C24F 1_555 1_555
O8F C26 1_555 1_555
Zn1F O9 1_555 1_555
O1F Zn1F 1_555 1_555
O2F Zn3 1_555 1_555
C1F O1F 1_555 1_555
C2F C1F 1_555 1_555
C3F C2F 1_555 1_555
H1F C3F 1_555 1_555
C4F C2F 1_555 1_555
H2F C4F 1_555 1_555
C5F C4F 1_555 1_555
H3F C5F 1_555 1_555
C6F C3F 1_555 1_555
C7F C5F 1_555 1_555
C8F C7F 1_555 1_555
C9F C8F 1_555 1_555
H4F C9F 1_555 1_555
C10F C8F 1_555 1_555
H5F C10F 1_555 1_555
C11F C9F 1_555 1_555
H6F C11F 1_555 1_555
C12F C10F 1_555 1_555
H7F C12F 1_555 1_555
C13F C11F 1_555 1_555
C14F C13F 1_555 1_555
O3F C14F 1_555 1_555
O4F C14F 1_555 1_555
O5F C6F 1_555 1_555
H8F O5F 1_555 1_555
Zn1A O3 1_555 1_555
Zn1G O3F 1_555 1_555
Zn2_2 O6 1_555 1_555
Zn2A O4 1_555 1_555
Zn2A_2 O4F 1_555 1_555
Zn3_2 O7 1_555 1_555
O3A Zn1 1_555 1_555
O3G Zn1F 1_555 1_555
O4A Zn2 1_555 1_555
O4G Zn2 1_555 1_555
O6_2 Zn2 1_555 1_555
O7_2 Zn3 1_555 1_555
Zn3 O9 1_555 1_555
C6 C7 1_555 1_555
C12 C13 1_555 1_555
C20 C21 1_555 1_555
C26 O8 1_555 1_555
C23F C24F 1_555 1_555
O8F Zn1F 1_555 1_555
O2F C1F 1_555 1_555
C6F C7F 1_555 1_555
C12F C13F 1_555 1_555

#END
