
#######################################################################
#
#                 Cambridge Crystallographic Data Centre
#                                CCDC 
#
#######################################################################
#
# If this CIF has been generated from an entry in the Cambridge 
# Structural Database, then it will include bibliographic, chemical, 
# crystal, experimental, refinement or atomic coordinate data resulting 
# from the CCDC's data processing and validation procedures.
#
#######################################################################

data_SICDAL
_symmetry_cell_setting           monoclinic
_symmetry_space_group_name_H-M   'C c'
_symmetry_Int_Tables_number      9
_space_group_name_Hall           'C -2yc'
loop_
_symmetry_equiv_pos_site_id
_symmetry_equiv_pos_as_xyz
1 x,y,z
2 x,-y,1/2+z
3 1/2+x,1/2+y,z
4 1/2+x,1/2-y,1/2+z
_cell_length_a                   19.65970(19)
_cell_length_b                   7.64440(7)
_cell_length_c                   6.67160(7)
_cell_angle_alpha                90
_cell_angle_beta                 103.8831(8)
_cell_angle_gamma                90
_cell_volume                     973.362
loop_
_atom_site_label
_atom_site_type_symbol
_atom_site_fract_x
_atom_site_fract_y
_atom_site_fract_z
Ga1 Ga 0.3880(5) 0.4998(8) 0.5740(14)
O1 O 0.4542(5) 0.3108(9) 0.5279(16)
O2 O 0.4767(6) 0.3847(8) 0.2268(15)
C1 C 0.4961(5) 0.3282(5) 0.4107(14)
C2 C 0.5703(5) 0.2848(6) 0.5019(15)
C3 C 0.6182(5) 0.3033(6) 0.3829(15)
C4 C 0.5897(5) 0.2335(6) 0.7064(15)
C5 C 0.6886(5) 0.2684(6) 0.4699(15)
C6 C 0.6602(5) 0.1981(6) 0.7928(16)
C7 C 0.7080(5) 0.2169(6) 0.6739(15)
C8 C 0.7817(5) 0.1727(5) 0.7710(14)
O3 O 0.8248(5) 0.1791(8) 0.6577(16)
O4 O 0.7982(6) 0.1283(9) 0.9590(15)
H1 H 0.5527(8) 0.2226(10) 0.7957(26)
H2 H 0.7257(8) 0.2790(10) 0.3811(26)
H3 H 0.6765(11) 0.1580(8) 0.9465(17)
H4 H 0.6019(11) 0.3437(8) 0.2293(17)
O5 O 0.3934(9) 0.3919(4) 0.8274(17)
H5 H 0.4064(21) 0.2676(16) 0.839(14)
Ga1A Ga 0.3880(5) 0.5002(8) 0.0740(14)
Ga1A_2 Ga 0.3880(5) 0.5002(8) 1.0740(14)
Ga1B Ga 0.8880(5) -0.0002(8) 0.5740(14)
Ga1C Ga 0.8880(5) 0.0002(8) 1.0740(14)
O2A O 0.4767(6) 0.6153(8) 0.7268(15)
O3B O 0.3248(5) 0.6791(8) 0.6577(16)
O4C O 0.2982(6) 0.3717(9) 0.4590(15)
O5A O 0.3934(9) 0.6081(4) 0.3274(17)
O6 O 0.8693(6) 0.4772(18) 0.3768(18)
H6 H 0.9216(11) 0.493(16) 0.412(11)
H7 H 0.8580(29) 0.498(15) 0.513(5)
loop_
_geom_bond_atom_site_label_1
_geom_bond_atom_site_label_2
_geom_bond_site_symmetry_1
_geom_bond_site_symmetry_2
Ga1 O1 1_555 1_555
O1 C1 1_555 1_555
O2 C1 1_555 1_555
C1 C2 1_555 1_555
C2 C3 1_555 1_555
C3 C5 1_555 1_555
C4 C2 1_555 1_555
C5 C7 1_555 1_555
C6 C4 1_555 1_555
C7 C6 1_555 1_555
C8 C7 1_555 1_555
O3 C8 1_555 1_555
O4 C8 1_555 1_555
H1 C4 1_555 1_555
H2 C5 1_555 1_555
H3 C6 1_555 1_555
H4 C3 1_555 1_555
O5 Ga1 1_555 1_555
H5 O5 1_555 1_555
O6 H6 1_555 1_555
H7 O6 1_555 1_555
Ga1A O2 1_555 1_555
Ga1A_2 O5 1_555 1_555
Ga1B O3 1_555 1_555
Ga1C O4 1_555 1_555
O2A Ga1 1_555 1_555
O3B Ga1 1_555 1_555
O4C Ga1 1_555 1_555
O5A Ga1 1_555 1_555
Ga1A O5A 1_555 1_555

#END
