
#######################################################################
#
#                 Cambridge Crystallographic Data Centre
#                                CCDC 
#
#######################################################################
#
# If this CIF has been generated from an entry in the Cambridge 
# Structural Database, then it will include bibliographic, chemical, 
# crystal, experimental, refinement or atomic coordinate data resulting 
# from the CCDC's data processing and validation procedures.
#
#######################################################################

data_SICZIP
_symmetry_cell_setting           orthorhombic
_symmetry_space_group_name_H-M   'P 21 21 21'
_symmetry_Int_Tables_number      19
_space_group_name_Hall           'P 2ac 2ab'
loop_
_symmetry_equiv_pos_site_id
_symmetry_equiv_pos_as_xyz
1 x,y,z
2 1/2-x,-y,1/2+z
3 1/2+x,1/2-y,-z
4 -x,1/2+y,1/2-z
_cell_length_a                   17.4396(10)
_cell_length_b                   22.4040(15)
_cell_length_c                   29.2728(18)
_cell_angle_alpha                90
_cell_angle_beta                 90
_cell_angle_gamma                90
_cell_volume                     11437.4
loop_
_atom_site_label
_atom_site_type_symbol
_atom_site_fract_x
_atom_site_fract_y
_atom_site_fract_z
Cd1 Cd -0.116089(11) 0.622325(9) 0.492078(7)
Cd2 Cd 0.842418(13) 0.772001(11) 0.065295(8)
P1 P 0.36249(6) 0.59629(6) 0.40439(3)
O1 O 0.78216(12) 0.62996(12) 0.43791(8)
O2 O 0.22409(14) 0.71718(14) -0.02558(8)
O3 O 0.77212(13) 0.68600(11) 0.49775(10)
O4 O 0.44438(14) 0.79898(10) 0.47648(8)
C1 C 0.42021(16) 0.62095(17) 0.30207(9)
O5 O -0.03563(16) 0.61988(16) 0.41441(11)
C2 C 0.33578(17) 0.61643(17) 0.29566(10)
O6 O -0.04528(13) 0.75246(14) 0.11866(9)
O7 O 0.40151(12) 0.65108(11) 0.37837(7)
O8 O 0.32747(12) 0.55780(10) 0.36300(7)
C3 C 0.12469(19) 0.73132(19) 0.05056(11)
H1 H 0.1034 0.7357 0.0216
O9 O 0.77609(14) 0.70885(11) 0.11293(8)
O10 O 0.60584(18) 0.42667(12) 0.06430(9)
C4 C 0.6632(2) 0.51714(15) 0.08543(10)
O11 O 0.81261(16) 0.65809(14) 0.05240(9)
C5 C 0.6184(2) 0.52417(14) 0.12498(9)
H2 H 0.5826 0.4951 0.1326
C6 C 0.62673(18) 0.57336(15) 0.15244(10)
O12 O 0.11290(17) 0.36870(11) 0.44189(10)
C7 C 0.63585(16) 0.66125(14) 0.40632(10)
H3 H 0.6631 0.6327 0.3899
C8 C 0.2542(2) 0.7244(2) 0.01307(14)
C9 C 0.67851(17) 0.61669(16) 0.14067(10)
H4 H 0.6831 0.6502 0.1592
O13 O 0.19142(16) 0.36023(12) 0.38549(10)
O14 O -0.03351(13) 0.74466(12) 0.04471(9)
C10 C 0.1092(2) 0.7206(2) 0.13077(11)
H5 H 0.0773 0.7195 0.1562
C11 C 0.6531(2) 0.46428(16) 0.05543(11)
O15 O 0.32450(13) 0.72802(15) 0.01801(9)
C12 C 0.72386(18) 0.61241(16) 0.10255(11)
C13 C 0.71669(19) 0.56219(16) 0.07460(11)
H6 H 0.7473 0.5584 0.0487
C14 C 0.57824(17) 0.64315(15) 0.31135(10)
H7 H 0.6303 0.6511 0.3143
O16 O -0.03756(15) 0.55118(12) 0.46518(9)
C15 C 0.55037(16) 0.62000(17) 0.27012(10)
C16 C 0.10161(17) 0.57203(16) 0.37595(10)
H8 H 0.0899 0.6112 0.3681
C17 C 0.52353(17) 0.72261(16) 0.41628(10)
H9 H 0.4751 0.7350 0.4069
O17 O 0.69488(16) 0.45899(13) 0.02034(9)
O18 O 0.4215(2) 0.55597(17) 0.42612(11)
C18 C 0.16392(18) 0.54519(15) 0.35593(10)
C19 C 0.20305(18) 0.72316(19) 0.05496(11)
C20 C 0.17839(17) 0.48593(16) 0.36661(11)
H10 H 0.2191 0.4663 0.3527
C21 C 0.66826(16) 0.68557(14) 0.44511(10)
C22 C 0.07785(18) 0.73302(19) 0.08836(12)
C23 C 0.56275(16) 0.67840(15) 0.39087(10)
O19 O 0.29969(19) 0.62402(18) 0.43153(11)
C24 C 0.07353(18) 0.48408(16) 0.41789(11)
H11 H 0.0441 0.4637 0.4393
C25 C 0.57397(18) 0.58197(16) 0.19307(10)
C26 C 0.45151(18) 0.64148(14) 0.34244(10)
C27 C 0.62884(17) 0.72971(16) 0.46973(11)
H12 H 0.6506 0.7469 0.4956
C28 C 0.60115(17) 0.60713(14) 0.23297(10)
H13 H 0.6531 0.6158 0.2358
C29 C 0.44596(18) 0.57750(19) 0.22460(11)
H14 H 0.3949 0.5660 0.2221
C30 C 0.53013(16) 0.65441(15) 0.34774(10)
C31 C 0.13368(18) 0.45597(15) 0.39734(10)
C32 C 0.05585(18) 0.54294(15) 0.40718(11)
C33 C -0.00628(19) 0.74343(16) 0.08383(13)
C34 C 0.21723(18) 0.63829(19) 0.25233(11)
C35 C 0.55580(17) 0.74748(15) 0.45451(12)
C36 C -0.01100(18) 0.57464(16) 0.43030(13)
C37 C 0.74575(18) 0.66603(16) 0.46123(11)
C38 C 0.47221(17) 0.60628(16) 0.26531(10)
C39 C 0.17564(18) 0.60471(17) 0.28458(11)
H15 H 0.1231 0.5998 0.2806
C40 C 0.3355(2) 0.68494(18) 0.22868(12)
H16 H 0.3860 0.6959 0.2345
C41 C 0.29915(18) 0.64657(18) 0.25879(11)
C42 C 0.5137(2) 0.79602(18) 0.48076(14)
C43 C 0.23394(19) 0.71324(19) 0.09682(12)
H17 H 0.2868 0.7088 0.0995
C44 C 0.18223(19) 0.6608(2) 0.21204(12)
H18 H 0.1305 0.6535 0.2069
C45 C 0.29163(17) 0.58503(16) 0.32651(10)
C46 C 0.77528(18) 0.66320(19) 0.08837(12)
C47 C 0.21056(17) 0.57903(16) 0.32188(11)
C48 C 0.49519(19) 0.56678(18) 0.18941(11)
H19 H 0.4770 0.5493 0.1627
C49 C 0.2226(2) 0.6928(2) 0.18094(12)
C50 C 0.29962(19) 0.7075(2) 0.19033(13)
H20 H 0.3264 0.7325 0.1706
O20 O 0.5519(2) 0.8331(2) 0.50081(19)
C51 C 0.18773(18) 0.7094(2) 0.13647(12)
C52 C 0.1479(2) 0.39098(15) 0.40889(13)
Cd1_2 Cd 0.883911(11) 0.622325(9) 0.492078(7)
Cd1A Cd 0.616089(11) 0.377675(9) -0.007922(7)
Cd1B Cd 0.383911(11) 0.877675(9) 0.507922(7)
Cd2_2 Cd -0.157582(13) 0.772001(11) 0.065295(8)
Cd2B Cd 0.342418(13) 0.727999(11) -0.065295(8)
Cd2C Cd 0.157582(13) 0.272001(11) 0.434705(8)
O1_2 O -0.21784(12) 0.62996(12) 0.43791(8)
O2B O 0.72409(14) 0.78282(14) 0.02558(8)
O3_2 O -0.22788(13) 0.68600(11) 0.49775(10)
O4B O -0.05562(14) 0.70102(10) 0.52352(8)
O6_2 O 0.95472(13) 0.75246(14) 0.11866(9)
O10A O -0.10584(18) 0.57333(12) 0.56430(9)
O12C O 0.88710(17) 0.86870(11) 0.05811(10)
O13C O 0.80858(16) 0.86023(12) 0.11451(10)
O14_2 O 0.96649(13) 0.74466(12) 0.04471(9)
O15B O 0.82450(13) 0.77198(15) -0.01801(9)
O17A O -0.19488(16) 0.54101(13) 0.52034(9)
loop_
_geom_bond_atom_site_label_1
_geom_bond_atom_site_label_2
_geom_bond_site_symmetry_1
_geom_bond_site_symmetry_2
Cd1 O5 1_555 1_555
Cd2 O9 1_555 1_555
P1 O7 1_555 1_555
O1 C37 1_555 1_555
O2 C8 1_555 1_555
O3 C37 1_555 1_555
O4 C42 1_555 1_555
C1 C2 1_555 1_555
O5 C36 1_555 1_555
C2 C41 1_555 1_555
O6 C33 1_555 1_555
O7 C26 1_555 1_555
O8 P1 1_555 1_555
C3 H1 1_555 1_555
O9 C46 1_555 1_555
O10 C11 1_555 1_555
C4 C5 1_555 1_555
O11 Cd2 1_555 1_555
C5 H2 1_555 1_555
C6 C5 1_555 1_555
O12 C52 1_555 1_555
C7 H3 1_555 1_555
C8 O15 1_555 1_555
C9 C6 1_555 1_555
H4 C9 1_555 1_555
O13 C52 1_555 1_555
O14 C33 1_555 1_555
C10 H5 1_555 1_555
C11 C4 1_555 1_555
O15 Cd2B 1_555 1_555
C12 C9 1_555 1_555
C13 C4 1_555 1_555
H6 C13 1_555 1_555
C14 H7 1_555 1_555
O16 Cd1 1_555 1_555
C15 C14 1_555 1_555
C16 H8 1_555 1_555
C17 H9 1_555 1_555
O17 C11 1_555 1_555
O18 P1 1_555 1_555
C18 C16 1_555 1_555
C19 C3 1_555 1_555
C20 C18 1_555 1_555
H10 C20 1_555 1_555
C21 C7 1_555 1_555
C22 C3 1_555 1_555
C23 C7 1_555 1_555
O19 P1 1_555 1_555
C24 H11 1_555 1_555
C25 C6 1_555 1_555
C26 C1 1_555 1_555
C27 C21 1_555 1_555
H12 C27 1_555 1_555
C28 C15 1_555 1_555
H13 C28 1_555 1_555
C29 H14 1_555 1_555
C30 C14 1_555 1_555
C31 C20 1_555 1_555
C32 C16 1_555 1_555
C33 C22 1_555 1_555
C34 C39 1_555 1_555
C35 C17 1_555 1_555
C36 O16 1_555 1_555
C37 C21 1_555 1_555
C38 C1 1_555 1_555
C39 H15 1_555 1_555
C40 H16 1_555 1_555
C41 C34 1_555 1_555
C42 C35 1_555 1_555
C43 C19 1_555 1_555
H17 C43 1_555 1_555
C44 C34 1_555 1_555
H18 C44 1_555 1_555
C45 C2 1_555 1_555
C46 O11 1_555 1_555
C47 C18 1_555 1_555
C48 C25 1_555 1_555
H19 C48 1_555 1_555
C49 C44 1_555 1_555
C50 C40 1_555 1_555
H20 C50 1_555 1_555
O20 C42 1_555 1_555
C51 C10 1_555 1_555
C52 C31 1_555 1_555
Cd1_2 O1 1_555 1_555
Cd1A O10 1_555 1_555
Cd1B O4 1_555 1_555
Cd2_2 O6 1_555 1_555
Cd2B O2 1_555 1_555
Cd2C O12 1_555 1_555
O1_2 Cd1 1_555 1_555
O2B Cd2 1_555 1_555
O3_2 Cd1 1_555 1_555
O4B Cd1 1_555 1_555
O6_2 Cd2 1_555 1_555
O10A Cd1 1_555 1_555
O12C Cd2 1_555 1_555
O13C Cd2 1_555 1_555
O14_2 Cd2 1_555 1_555
O15B Cd2 1_555 1_555
O17A Cd1 1_555 1_555
O3 Cd1_2 1_555 1_555
O8 C45 1_555 1_555
C8 C19 1_555 1_555
O13 Cd2C 1_555 1_555
O14 Cd2_2 1_555 1_555
C10 C22 1_555 1_555
C12 C13 1_555 1_555
C12 C46 1_555 1_555
C15 C38 1_555 1_555
C17 C23 1_555 1_555
O17 Cd1A 1_555 1_555
C23 C30 1_555 1_555
C24 C31 1_555 1_555
C24 C32 1_555 1_555
C25 C28 1_555 1_555
C26 C30 1_555 1_555
C27 C35 1_555 1_555
C29 C38 1_555 1_555
C29 C48 1_555 1_555
C32 C36 1_555 1_555
C39 C47 1_555 1_555
C40 C41 1_555 1_555
C43 C51 1_555 1_555
C45 C47 1_555 1_555
C49 C50 1_555 1_555
C49 C51 1_555 1_555

#END
