
#######################################################################
#
#                 Cambridge Crystallographic Data Centre
#                                CCDC 
#
#######################################################################
#
# If this CIF has been generated from an entry in the Cambridge 
# Structural Database, then it will include bibliographic, chemical, 
# crystal, experimental, refinement or atomic coordinate data resulting 
# from the CCDC's data processing and validation procedures.
#
#######################################################################

data_SIPVOD
_symmetry_cell_setting           monoclinic
_symmetry_space_group_name_H-M   'P 21/c'
_symmetry_Int_Tables_number      14
_space_group_name_Hall           '-P 2ybc'
loop_
_symmetry_equiv_pos_site_id
_symmetry_equiv_pos_as_xyz
1 x,y,z
2 -x,1/2+y,1/2-z
3 -x,-y,-z
4 x,1/2-y,1/2+z
_cell_length_a                   5.4590(3)
_cell_length_b                   36.7601(18)
_cell_length_c                   26.5981(13)
_cell_angle_alpha                90
_cell_angle_beta                 91.4060(10)
_cell_angle_gamma                90
_cell_volume                     5335.92
loop_
_atom_site_label
_atom_site_type_symbol
_atom_site_fract_x
_atom_site_fract_y
_atom_site_fract_z
U1 U 0.10127(6) 0.937152(8) 0.463273(10)
U2 U 0.31529(6) 0.809204(9) 0.381377(11)
U3 U -1.44725(6) 0.900290(10) -0.038060(12)
O1 O -0.0740(12) 0.98810(18) 0.4252(2)
O2 O -0.0839(12) 0.90445(18) 0.3989(2)
O3 O 0.2775(12) 0.88505(17) 0.4984(2)
O4 O 0.4492(13) 0.84423(17) 0.4498(2)
C1 C 1.0351(18) 0.8050(3) 0.6971(4)
H1 H 1.0817 0.8287 0.6897
C2 C -0.2301(14) 1.0130(2) 0.4306(3)
C3 C -0.0372(16) 0.8858(2) 0.3603(3)
C4 C -0.6901(15) 1.0623(2) 0.3486(3)
C5 C -0.6319(15) 1.0519(2) 0.3001(3)
C6 C -0.3744(14) 1.0252(2) 0.3858(3)
C7 C 0.5499(15) 0.8424(2) 0.5364(3)
C8 C -0.5611(16) 1.0501(2) 0.3914(3)
H2 H -0.6005 1.0586 0.4232
C9 C -1.1253(19) 0.8936(3) 0.0489(4)
C10 C 0.4178(16) 0.8585(2) 0.4914(3)
C11 C -0.5488(16) 0.9177(2) 0.2728(3)
C12 C -0.7611(16) 1.0967(2) 0.2289(3)
O5 O -1.202(2) 0.9225(3) 0.0326(4)
C13 C -0.3202(16) 1.0126(2) 0.3378(3)
H3 H -0.1970 0.9954 0.3339
C14 C -0.6535(17) 0.8984(3) 0.1807(3)
C15 C -0.2002(15) 0.8908(2) 0.3151(3)
C16 C 1.052(2) 0.7542(3) 0.7526(4)
C17 C -0.4012(15) 0.9137(2) 0.3159(3)
H4 H -0.4374 0.9264 0.3450
C18 C -0.7714(15) 1.0628(2) 0.2531(3)
C19 C 0.7690(18) 0.8058(2) 0.6187(3)
C20 C 0.4733(17) 0.8492(2) 0.5847(3)
H5 H 0.3483 0.8659 0.5900
C21 C -0.5026(15) 0.8984(2) 0.2286(3)
O6 O 0.5540(14) 0.76424(19) 0.4258(3)
H6 H 0.5471 0.7417 0.4076
H7 H 0.4884 0.7607 0.4586
C22 C -0.9269(17) 1.0371(3) 0.2314(3)
H8 H -0.9332 1.0139 0.2454
C23 C -0.9554(18) 0.8945(3) 0.0940(3)
C24 C 0.8725(17) 0.7868(2) 0.6643(3)
C25 C -0.4489(17) 1.0255(3) 0.2962(3)
H9 H -0.4127 1.0165 0.2646
C26 C 0.8501(17) 0.8011(2) 0.5694(3)
C27 C 0.8023(19) 0.7524(3) 0.6781(4)
C28 C 0.7417(17) 0.8189(2) 0.5290(3)
H10 H 0.7986 0.8151 0.4968
C29 C 1.1276(19) 0.7886(3) 0.7402(4)
H11 H 1.2409 0.8007 0.7607
O7 O 0.3663(11) 0.94470(18) 0.4279(2)
O8 O -0.1666(12) 0.92970(19) 0.4980(2)
N1 N -0.8892(13) 1.0886(2) 0.3577(3)
O9 O 0.5825(13) 0.8199(2) 0.3498(3)
O10 O 0.1395(11) 0.86393(17) 0.3581(2)
O11 O -0.9838(14) 1.0880(2) 0.3984(3)
N2 N -0.7595(13) 0.9422(2) 0.2773(3)
O12 O -0.8903(14) 0.9475(2) 0.2402(3)
O13 O 0.0517(14) 0.7973(2) 0.4137(3)
O14 O -0.7990(13) 0.9559(2) 0.3176(3)
O15 O -0.9465(14) 1.1098(2) 0.3249(3)
O16 O -0.4171(14) 1.1159(2) 0.2733(3)
C30 C -0.9101(17) 1.1053(3) 0.1881(3)
H12 H -0.9029 1.1283 0.1736
C31 C -0.3033(17) 0.8748(3) 0.2297(3)
H13 H -0.2717 0.8608 0.2014
C32 C -0.1525(17) 0.8716(2) 0.2714(3)
H14 H -0.0166 0.8563 0.2705
N3 N -0.5878(15) 1.1247(2) 0.2460(3)
N4 N 1.049(2) 0.7760(3) 0.5591(4)
C33 C -1.0726(16) 1.0792(3) 0.1686(3)
C34 C -1.2419(18) 1.0872(3) 0.1251(3)
C35 C -1.0735(18) 1.0450(3) 0.1894(4)
H15 H -1.1729 1.0270 0.1753
C36 C -0.7669(19) 0.8663(3) 0.1666(3)
H16 H -0.7450 0.8457 0.1865
C37 C 0.5840(18) 0.8312(3) 0.6250(3)
H17 H 0.5328 0.8364 0.6574
C38 C -0.6865(19) 0.9280(3) 0.1489(4)
O17 O -0.6261(17) 1.1559(2) 0.2325(4)
C39 C -0.914(2) 0.8642(3) 0.1231(3)
H18 H -0.9839 0.8421 0.1137
N5 N -0.559(2) 0.9627(3) 0.1581(4)
O18 O -1.326(2) 1.0624(2) 0.0996(4)
C40 C 0.885(2) 0.7355(3) 0.7216(4)
H19 H 0.8321 0.7123 0.7299
O19 O -0.387(2) 0.9631(3) 0.1863(4)
C41 C -0.839(2) 0.9268(3) 0.1065(4)
H20 H -0.8621 0.9474 0.0867
N6 N 0.635(2) 0.7308(3) 0.6464(5)
O20 O -1.196(2) 0.8665(3) 0.0288(4)
O21 O 1.162(3) 0.7630(5) 0.5906(5)
O22 O 0.653(4) 0.7323(4) 0.6026(6)
O23 O 1.1151(15) 0.70013(19) 0.8009(3)
O24 O 1.2751(16) 0.74951(19) 0.8317(3)
C42 C 1.155(2) 0.7338(3) 0.7972(4)
O25 O -0.635(3) 0.9895(3) 0.1375(5)
O26 O 1.126(3) 0.7737(5) 0.5196(5)
O27 O 0.516(4) 0.7095(5) 0.6615(6)
O28 O -1.2992(18) 1.1184(2) 0.1140(3)
O29 O -0.2685(11) 1.02829(16) 0.4723(2)
O30 O -1.228(3) 0.9387(14) -0.0646(6)
H21 H -1.2926 0.9474 -0.0962
H22 H -1.0663 0.9290 -0.0691
O31 O -1.675(2) 0.8633(11) -0.0108(5)
H23 H -1.8114 0.8600 -0.0338
H24 H -1.7332 0.8716 0.0210
O36 O -1.290(4) 0.8583(13) -0.0683(5)
H33 H -1.3612 0.8540 -0.1012
H34 H -1.3093 0.8370 -0.0480
O37 O -1.621(4) 0.9381(12) -0.0041(5)
H35 H -1.7517 0.9470 -0.0255
H36 H -1.5090 0.9576 0.0036
U1B U -0.10127(6) 1.062848(8) 0.536727(10)
U2C U 1.31529(6) 0.690796(9) 0.881377(11)
U3B U -1.55275(6) 1.099710(10) 0.038060(12)
O18B O -1.674(2) 0.9376(2) -0.0996(4)
O23C O 0.1151(15) 0.79987(19) 0.3009(3)
O24C O 0.2751(16) 0.75049(19) 0.3317(3)
O28B O -1.7008(18) 0.8816(2) -0.1140(3)
O29B O 0.2685(11) 0.97171(16) 0.5277(2)
O32 O 0.5059(18) 0.7833(2) 0.0016(4)
H25 H 0.6447 0.7922 -0.0052
H26 H 0.5257 0.7623 0.0144
O33 O 0.166(3) 1.0024(4) 0.9482(6)
H27 H 0.2840 0.9873 0.9472
H28 H 0.1029 1.0017 0.9771
O34 O 0.905(3) 0.1881(3) 0.1177(5)
H29 H 1.0529 0.1812 0.1202
H30 H 0.8219 0.1778 0.1404
O35 O 0.518(11) 0.7997(6) 0.8918(19)
H31 H 0.4125 0.8167 0.8912
H32 H 0.4442 0.7793 0.8914
O38 O 0.003(5) 0.8050(8) 0.9827(14)
H37 H 0.1316 0.8016 1.0008
H38 H -0.0958 0.8185 0.9984
loop_
_geom_bond_atom_site_label_1
_geom_bond_atom_site_label_2
_geom_bond_site_symmetry_1
_geom_bond_site_symmetry_2
U1 O1 1_555 1_555
U2 O4 1_555 1_555
U3 O5 1_555 1_555
O1 C2 1_555 1_555
O2 U1 1_555 1_555
O3 U1 1_555 1_555
O4 C10 1_555 1_555
C1 H1 1_555 1_555
C2 C6 1_555 1_555
C3 O2 1_555 1_555
C4 C5 1_555 1_555
C5 C18 1_555 1_555
C6 C8 1_555 1_555
C7 C10 1_555 1_555
C8 C4 1_555 1_555
H2 C8 1_555 1_555
C9 O5 1_555 1_555
C10 O3 1_555 1_555
C11 C17 1_555 1_555
C12 C18 1_555 1_555
C13 C6 1_555 1_555
H3 C13 1_555 1_555
C14 C21 1_555 1_555
C15 C3 1_555 1_555
C16 C29 1_555 1_555
C17 C15 1_555 1_555
H4 C17 1_555 1_555
C18 C22 1_555 1_555
C19 C24 1_555 1_555
C20 C7 1_555 1_555
H5 C20 1_555 1_555
C21 C11 1_555 1_555
O6 U2 1_555 1_555
H6 O6 1_555 1_555
H7 O6 1_555 1_555
C22 H8 1_555 1_555
C23 C9 1_555 1_555
C24 C1 1_555 1_555
C25 C5 1_555 1_555
H9 C25 1_555 1_555
C26 C19 1_555 1_555
C27 C24 1_555 1_555
C28 C7 1_555 1_555
H10 C28 1_555 1_555
C29 C1 1_555 1_555
H11 C29 1_555 1_555
O7 U1 1_555 1_555
O8 U1 1_555 1_555
N1 C4 1_555 1_555
O9 U2 1_555 1_555
O10 U2 1_555 1_555
O11 N1 1_555 1_555
N2 C11 1_555 1_555
O12 N2 1_555 1_555
O13 U2 1_555 1_555
O14 N2 1_555 1_555
O15 N1 1_555 1_555
O16 N3 1_555 1_555
C30 C12 1_555 1_555
H12 C30 1_555 1_555
C31 C21 1_555 1_555
H13 C31 1_555 1_555
C32 C15 1_555 1_555
H14 C32 1_555 1_555
N3 C12 1_555 1_555
N4 C26 1_555 1_555
C33 C30 1_555 1_555
C34 C33 1_555 1_555
C35 C22 1_555 1_555
H15 C35 1_555 1_555
C36 C14 1_555 1_555
H16 C36 1_555 1_555
C37 C19 1_555 1_555
H17 C37 1_555 1_555
C38 C14 1_555 1_555
O17 N3 1_555 1_555
C39 C23 1_555 1_555
H18 C39 1_555 1_555
N5 C38 1_555 1_555
O18 C34 1_555 1_555
C40 C16 1_555 1_555
H19 C40 1_555 1_555
O19 N5 1_555 1_555
C41 C23 1_555 1_555
H20 C41 1_555 1_555
N6 C27 1_555 1_555
O20 U3 1_555 1_555
O21 N4 1_555 1_555
O22 N6 1_555 1_555
O23 C42 1_555 1_555
O24 C42 1_555 1_555
C42 C16 1_555 1_555
O25 N5 1_555 1_555
O26 N4 1_555 1_555
O27 N6 1_555 1_555
O28 C34 1_555 1_555
O29 C2 1_555 1_555
O30 U3 1_555 1_555
H21 O30 1_555 1_555
H22 O30 1_555 1_555
O31 U3 1_555 1_555
H23 O31 1_555 1_555
H24 O31 1_555 1_555
O32 H25 1_555 1_555
H26 O32 1_555 1_555
O33 H27 1_555 1_555
H28 O33 1_555 1_555
O34 H29 1_555 1_555
H30 O34 1_555 1_555
O35 H31 1_555 1_555
H32 O35 1_555 1_555
O36 U3 1_555 1_555
H33 O36 1_555 1_555
H34 O36 1_555 1_555
O37 U3 1_555 1_555
H35 O37 1_555 1_555
H36 O37 1_555 1_555
O38 H37 1_555 1_555
H38 O38 1_555 1_555
U1B O29 1_555 1_555
U2C O23 1_555 1_555
U3B O18 1_555 1_555
O18B U3 1_555 1_555
O23C U2 1_555 1_555
O24C U2 1_555 1_555
O28B U3 1_555 1_555
O29B U1 1_555 1_555
C3 O10 1_555 1_555
C9 O20 1_555 1_555
C13 C25 1_555 1_555
C20 C37 1_555 1_555
C26 C28 1_555 1_555
C27 C40 1_555 1_555
C31 C32 1_555 1_555
C33 C35 1_555 1_555
C36 C39 1_555 1_555
C38 C41 1_555 1_555
O24 U2C 1_555 1_555
O28 U3B 1_555 1_555

#END
