
#######################################################################
#
#                 Cambridge Crystallographic Data Centre
#                                CCDC 
#
#######################################################################
#
# If this CIF has been generated from an entry in the Cambridge 
# Structural Database, then it will include bibliographic, chemical, 
# crystal, experimental, refinement or atomic coordinate data resulting 
# from the CCDC's data processing and validation procedures.
#
#######################################################################

data_SIVWUR
_symmetry_cell_setting           monoclinic
_symmetry_space_group_name_H-M   'C 2/c'
_symmetry_Int_Tables_number      15
_space_group_name_Hall           '-C 2yn'
loop_
_symmetry_equiv_pos_site_id
_symmetry_equiv_pos_as_xyz
1 x,y,z
2 -x,y,1/2-z
3 1/2+x,1/2+y,z
4 1/2-x,1/2+y,1/2-z
5 -x,-y,-z
6 x,-y,1/2+z
7 1/2-x,1/2-y,-z
8 1/2+x,1/2-y,1/2+z
_cell_length_a                   17.332(4)
_cell_length_b                   17.988(4)
_cell_length_c                   10.660(2)
_cell_angle_alpha                90
_cell_angle_beta                 94.12(3)
_cell_angle_gamma                90
_cell_volume                     3314.86
loop_
_atom_site_label
_atom_site_type_symbol
_atom_site_fract_x
_atom_site_fract_y
_atom_site_fract_z
Cd1 Cd 0.0000 1.14052(4) 0.2500
O1 O 0.0777(3) 1.0501(3) 0.1739(5)
O2 O 0.4173(3) 0.6638(3) 1.0773(5)
C1 C 0.1152(5) 1.0078(4) 0.2528(7)
Cd2 Cd 0.0000 1.0000 0.0000
O3 O 0.0966(3) 0.9915(3) 0.3603(5)
C2 C 0.1901(4) 0.9763(4) 0.2134(7)
C3 C 0.2203(5) 0.9991(4) 0.1012(7)
C4 C 0.2308(4) 0.9235(4) 0.2857(7)
H1 H 0.1935 1.0337 0.0500
C5 C 0.2892(5) 0.9709(5) 0.0663(8)
H2 H 0.2109 0.9070 0.3594
C6 C 0.3004(4) 0.8947(4) 0.2517(7)
C7 C 0.3293(5) 0.9194(5) 0.1411(8)
H3 H 0.3088 0.9866 -0.0082
C8 C 0.3403(5) 0.8356(4) 0.3318(7)
H4 H 0.3763 0.9011 0.1172
C9 C 0.3306(5) 0.8298(5) 0.4583(7)
C10 C 0.3881(5) 0.7822(5) 0.2803(7)
H5 H 0.3030 0.8666 0.4970
C11 C 0.3609(5) 0.7703(4) 0.5307(7)
H6 H 0.3990 0.7866 0.1964
N1 N 0.4182(4) 0.7259(4) 0.3470(6)
C12 C 0.4032(5) 0.7182(5) 0.4681(7)
C13 C 0.3497(4) 0.7648(4) 0.6690(7)
H7 H 0.4218 0.6764 0.5118
C14 C 0.2968(5) 0.8121(5) 0.7222(8)
C15 C 0.3916(5) 0.7146(4) 0.7462(7)
H8 H 0.2680 0.8451 0.6705
C16 C 0.2862(6) 0.8109(5) 0.8478(8)
H9 H 0.4268 0.6829 0.7119
C17 C 0.3811(4) 0.7112(4) 0.8756(7)
C18 C 0.3293(5) 0.7613(5) 0.9256(8)
H10 H 0.2507 0.8428 0.8813
C19 C 0.4225(4) 0.6565(4) 0.9613(6)
H11 H 0.3236 0.7615 1.0117
O4 O 0.4618(3) 0.6069(3) 0.9107(5)
O1A O -0.0777(3) 1.0501(3) 0.3261(5)
O2A O -0.4173(3) 0.6638(3) -0.5773(5)
C1A C -0.1152(5) 1.0078(4) 0.2472(7)
O3A O -0.0966(3) 0.9915(3) 0.1397(5)
C2A C -0.1901(4) 0.9763(4) 0.2866(7)
C3A C -0.2203(5) 0.9991(4) 0.3988(7)
C4A C -0.2308(4) 0.9235(4) 0.2143(7)
H1A H -0.1935 1.0337 0.4500
C5A C -0.2892(5) 0.9709(5) 0.4337(8)
H2A H -0.2109 0.9070 0.1406
C6A C -0.3004(4) 0.8947(4) 0.2483(7)
C7A C -0.3293(5) 0.9194(5) 0.3589(8)
H3A H -0.3088 0.9866 0.5082
C8A C -0.3403(5) 0.8356(4) 0.1682(7)
H4A H -0.3763 0.9011 0.3828
C9A C -0.3306(5) 0.8298(5) 0.0417(7)
C10A C -0.3881(5) 0.7822(5) 0.2197(7)
H5A H -0.3030 0.8666 0.0030
C11A C -0.3609(5) 0.7703(4) -0.0307(7)
H6A H -0.3990 0.7866 0.3036
N1A N -0.4182(4) 0.7259(4) 0.1530(6)
C12A C -0.4032(5) 0.7182(5) 0.0319(7)
C13A C -0.3497(4) 0.7648(4) -0.1690(7)
H7A H -0.4218 0.6764 -0.0118
C14A C -0.2968(5) 0.8121(5) -0.2222(8)
C15A C -0.3916(5) 0.7146(4) -0.2462(7)
H8A H -0.2680 0.8451 -0.1705
C16A C -0.2862(6) 0.8109(5) -0.3478(8)
H9A H -0.4268 0.6829 -0.2119
C17A C -0.3811(4) 0.7112(4) -0.3756(7)
C18A C -0.3293(5) 0.7613(5) -0.4256(8)
H10A H -0.2507 0.8428 -0.3813
C19A C -0.4225(4) 0.6565(4) -0.4613(6)
H11A H -0.3236 0.7615 -0.5117
O4A O -0.4618(3) 0.6069(3) -0.4107(5)
Cd1B Cd -0.5000 0.64052(4) -0.7500
Cd1B_2 Cd -0.5000 0.64052(4) 0.2500
Cd1B_3 Cd 0.5000 0.64052(4) 0.2500
Cd1B_4 Cd 0.5000 0.64052(4) 1.2500
O1D O -0.0777(3) 0.9499(3) -0.1739(5)
O2B O -0.0827(3) 1.1638(3) 0.0773(5)
O2C O 0.0827(3) 1.1638(3) 0.4227(5)
Cd2A Cd 0.0000 1.0000 0.5000
Cd2B Cd 0.5000 0.5000 1.0000
Cd2C Cd -0.5000 0.5000 -0.5000
O3E O 0.0966(3) 1.0085(3) -0.1397(5)
N1B N -0.0818(4) 1.2259(4) 0.3470(6)
N1C N 0.0818(4) 1.2259(4) 0.1530(6)
O4B O -0.0382(3) 1.1069(3) -0.0893(5)
O4F O 0.0382(3) 0.8931(3) 0.0893(5)
O5 O 0.5000 0.934(2) 0.7500
H12? H 0.4473 0.6943 0.3128
loop_
_geom_bond_atom_site_label_1
_geom_bond_atom_site_label_2
_geom_bond_site_symmetry_1
_geom_bond_site_symmetry_2
Cd1 O1 1_555 1_555
O1 C1 1_555 1_555
O2 C19 1_555 1_555
C1 O3 1_555 1_555
Cd2 O1 1_555 1_555
O3 Cd2A 1_555 1_555
C2 C1 1_555 1_555
C3 C2 1_555 1_555
C4 C2 1_555 1_555
H1 C3 1_555 1_555
C5 C3 1_555 1_555
H2 C4 1_555 1_555
C6 C4 1_555 1_555
C7 C5 1_555 1_555
H3 C5 1_555 1_555
C8 C6 1_555 1_555
H4 C7 1_555 1_555
C9 C8 1_555 1_555
C10 C8 1_555 1_555
H5 C9 1_555 1_555
C11 C9 1_555 1_555
H6 C10 1_555 1_555
N1 C10 1_555 1_555
C12 C11 1_555 1_555
C13 C11 1_555 1_555
H7 C12 1_555 1_555
C14 C13 1_555 1_555
C15 C13 1_555 1_555
H8 C14 1_555 1_555
C16 C14 1_555 1_555
H9 C15 1_555 1_555
C17 C15 1_555 1_555
C18 C16 1_555 1_555
H10 C16 1_555 1_555
C19 C17 1_555 1_555
H11 C18 1_555 1_555
O4 C19 1_555 1_555
O1A Cd1 1_555 1_555
O2A C19A 1_555 1_555
C1A O1A 1_555 1_555
O3A Cd2 1_555 1_555
C2A C1A 1_555 1_555
C3A C2A 1_555 1_555
C4A C2A 1_555 1_555
H1A C3A 1_555 1_555
C5A C3A 1_555 1_555
H2A C4A 1_555 1_555
C6A C4A 1_555 1_555
C7A C5A 1_555 1_555
H3A C5A 1_555 1_555
C8A C6A 1_555 1_555
H4A C7A 1_555 1_555
C9A C8A 1_555 1_555
C10A C8A 1_555 1_555
H5A C9A 1_555 1_555
C11A C9A 1_555 1_555
H6A C10A 1_555 1_555
N1A C10A 1_555 1_555
C12A C11A 1_555 1_555
C13A C11A 1_555 1_555
H7A C12A 1_555 1_555
C14A C13A 1_555 1_555
C15A C13A 1_555 1_555
H8A C14A 1_555 1_555
C16A C14A 1_555 1_555
H9A C15A 1_555 1_555
C17A C15A 1_555 1_555
C18A C16A 1_555 1_555
H10A C16A 1_555 1_555
C19A C17A 1_555 1_555
H11A C18A 1_555 1_555
O4A C19A 1_555 1_555
Cd1B O2A 1_555 1_555
Cd1B_2 N1A 1_555 1_555
Cd1B_3 N1 1_555 1_555
Cd1B_4 O2 1_555 1_555
O1D Cd2 1_555 1_555
O2B Cd1 1_555 1_555
O2C Cd1 1_555 1_555
Cd2A O1A 1_555 1_555
Cd2B O4 1_555 1_555
Cd2C O4A 1_555 1_555
O3E Cd2 1_555 1_555
N1B Cd1 1_555 1_555
N1C Cd1 1_555 1_555
O4B Cd2 1_555 1_555
O4F Cd2 1_555 1_555
C6 C7 1_555 1_555
N1 C12 1_555 1_555
C17 C18 1_555 1_555
C1A O3A 1_555 1_555
C6A C7A 1_555 1_555
N1A C12A 1_555 1_555
C17A C18A 1_555 1_555

#END
