
#######################################################################
#
#                 Cambridge Crystallographic Data Centre
#                                CCDC 
#
#######################################################################
#
# If this CIF has been generated from an entry in the Cambridge 
# Structural Database, then it will include bibliographic, chemical, 
# crystal, experimental, refinement or atomic coordinate data resulting 
# from the CCDC's data processing and validation procedures.
#
#######################################################################

data_SOCLAZ
_symmetry_cell_setting           monoclinic
_symmetry_space_group_name_H-M   'P 21/c'
_symmetry_Int_Tables_number      14
_space_group_name_Hall           '-P 2ybc'
loop_
_symmetry_equiv_pos_site_id
_symmetry_equiv_pos_as_xyz
1 x,y,z
2 -x,1/2+y,1/2-z
3 -x,-y,-z
4 x,1/2-y,1/2+z
_cell_length_a                   16.2673(17)
_cell_length_b                   7.2800(7)
_cell_length_c                   16.2873(16)
_cell_angle_alpha                90
_cell_angle_beta                 106.001(2)
_cell_angle_gamma                90
_cell_volume                     1854.11
loop_
_atom_site_label
_atom_site_type_symbol
_atom_site_fract_x
_atom_site_fract_y
_atom_site_fract_z
Cd1 Cd 0.218767(17) 0.72590(3) 0.422939(16)
C1 C 0.2021(3) 0.9464(5) 0.5520(2)
C2 C 0.2030(2) 1.0992(5) 0.6148(2)
C3 C 0.2776(3) 1.1443(5) 0.6771(2)
H1 H 0.3268 1.0742 0.6831
C4 C 0.2789(3) 1.2933(5) 0.7300(3)
H2 H 0.3294 1.3242 0.7708
C5 C 0.2060(2) 1.3971(5) 0.7233(2)
C6 C 0.1300(2) 1.3549(5) 0.6608(2)
C7 C 0.1309(2) 1.2040(5) 0.6076(2)
H3 H 0.0809 1.1736 0.5659
C8 C 0.2112(3) 1.5446(5) 0.7900(2)
C9 C 0.0508(2) 1.4635(5) 0.6471(2)
C10 C 0.0490(3) 1.6542(5) 0.6448(3)
H4 H 0.0995 1.7203 0.6528
C11 C -0.0280(3) 1.7449(5) 0.6306(3)
H5 H -0.0297 1.8726 0.6309
C12 C -0.1022(3) 1.6456(5) 0.6162(3)
H6 H -0.1540 1.7077 0.6058
C13 C -0.0270(2) 1.3753(5) 0.6322(2)
H7 H -0.0272 1.2476 0.6331
C14 C 0.3382(3) 0.4068(6) 0.5204(3)
H8 H 0.3040 0.4248 0.5570
C15 C 0.3997(3) 0.2733(5) 0.5404(3)
H9 H 0.4060 0.2028 0.5894
C16 C 0.4527(3) 0.2424(5) 0.4881(3)
C17 C 0.4393(3) 0.3527(5) 0.4172(3)
H10 H 0.4730 0.3381 0.3800
C18 C 0.3762(2) 0.4848(5) 0.4009(2)
H11 H 0.3691 0.5583 0.3528
C19 C 0.5200(3) 0.0948(5) 0.5084(3)
H12 H 0.5524 0.1041 0.5680
H13 H 0.5591 0.1125 0.4737
N1 N -0.1023(2) 1.4620(4) 0.6165(2)
N2 N 0.3248(2) 0.5123(4) 0.4509(2)
O1 O 0.27208(19) 0.8743(4) 0.55057(18)
O2 O 0.1335(2) 0.8993(4) 0.50280(19)
O3 O 0.27509(19) 1.6463(4) 0.8105(2)
O4 O 0.1536(2) 1.5551(4) 0.82557(19)
C14B C 0.6618(3) -0.4068(6) 0.4796(3)
H8B H 0.6960 -0.4248 0.4430
C15B C 0.6003(3) -0.2733(5) 0.4596(3)
H9B H 0.5940 -0.2028 0.4106
C16B C 0.5473(3) -0.2424(5) 0.5119(3)
C17B C 0.5607(3) -0.3527(5) 0.5828(3)
H10B H 0.5270 -0.3381 0.6200
C18B C 0.6238(2) -0.4848(5) 0.5991(2)
H11B H 0.6309 -0.5583 0.6472
C19B C 0.4800(3) -0.0948(5) 0.4916(3)
H12B H 0.4476 -0.1041 0.4320
H13B H 0.4409 -0.1125 0.5263
N2B N 0.6752(2) -0.5123(4) 0.5491(2)
Cd1B Cd -0.218767(17) 1.27410(3) 0.577061(16)
C1B C -0.2021(3) 1.0536(5) 0.4480(2)
C2B C -0.2030(2) 0.9008(5) 0.3852(2)
C3B C -0.2776(3) 0.8557(5) 0.3229(2)
H1B H -0.3268 0.9258 0.3169
C4B C -0.2789(3) 0.7067(5) 0.2700(3)
H2B H -0.3294 0.6758 0.2292
C5B C -0.2060(2) 0.6029(5) 0.2767(2)
C6B C -0.1300(2) 0.6451(5) 0.3392(2)
C7B C -0.1309(2) 0.7960(5) 0.3924(2)
H3B H -0.0809 0.8264 0.4341
C8B C -0.2112(3) 0.4554(5) 0.2100(2)
C9B C -0.0508(2) 0.5365(5) 0.3529(2)
C10B C -0.0490(3) 0.3458(5) 0.3552(3)
H4B H -0.0995 0.2797 0.3472
C11B C 0.0280(3) 0.2551(5) 0.3694(3)
H5B H 0.0297 0.1274 0.3691
C12B C 0.1022(3) 0.3544(5) 0.3838(3)
H6B H 0.1540 0.2923 0.3942
C13B C 0.0270(2) 0.6247(5) 0.3678(2)
H7B H 0.0272 0.7524 0.3669
N1B N 0.1023(2) 0.5380(4) 0.3835(2)
O1B O -0.27208(19) 1.1257(4) 0.44943(18)
O2B O -0.1335(2) 1.1007(4) 0.49720(19)
O3B O -0.27509(19) 0.3537(4) 0.1895(2)
O4B O -0.1536(2) 0.4449(4) 0.17443(19)
Cd1A Cd -0.218767(17) 0.22590(3) 0.077061(16)
Cd1B_2 Cd 0.781233(17) -0.72590(3) 0.577061(16)
Cd1C Cd 0.218767(17) 1.77410(3) 0.922939(16)
N2B_2 N -0.3248(2) 1.4877(4) 0.5491(2)
O3A O -0.27509(19) 1.1463(4) 0.6895(2)
O3C O 0.27509(19) 0.8537(4) 0.3105(2)
O4A O -0.1536(2) 1.0551(4) 0.67443(19)
O4C O 0.1536(2) 0.9449(4) 0.32557(19)
O5 O 0.3760(3) 0.7977(5) 0.1991(3)
O6 O 0.4903(3) -0.0063(7) 0.7212(4)
loop_
_geom_bond_atom_site_label_1
_geom_bond_atom_site_label_2
_geom_bond_site_symmetry_1
_geom_bond_site_symmetry_2
Cd1 N2 1_555 1_555
C1 C2 1_555 1_555
C2 C3 1_555 1_555
C3 H1 1_555 1_555
C4 C3 1_555 1_555
H2 C4 1_555 1_555
C5 C4 1_555 1_555
C6 C5 1_555 1_555
C7 C2 1_555 1_555
H3 C7 1_555 1_555
C8 C5 1_555 1_555
C9 C6 1_555 1_555
C10 C9 1_555 1_555
H4 C10 1_555 1_555
C11 C10 1_555 1_555
H5 C11 1_555 1_555
C12 C11 1_555 1_555
H6 C12 1_555 1_555
C13 C9 1_555 1_555
H7 C13 1_555 1_555
C14 H8 1_555 1_555
C15 C14 1_555 1_555
H9 C15 1_555 1_555
C16 C15 1_555 1_555
C17 C16 1_555 1_555
H10 C17 1_555 1_555
C18 C17 1_555 1_555
H11 C18 1_555 1_555
C19 C16 1_555 1_555
H12 C19 1_555 1_555
H13 C19 1_555 1_555
N1 C12 1_555 1_555
N2 C14 1_555 1_555
O1 Cd1 1_555 1_555
O2 Cd1 1_555 1_555
O3 C8 1_555 1_555
O4 C8 1_555 1_555
C14B H8B 1_555 1_555
C15B C14B 1_555 1_555
H9B C15B 1_555 1_555
C16B C15B 1_555 1_555
C17B C16B 1_555 1_555
H10B C17B 1_555 1_555
C18B C17B 1_555 1_555
H11B C18B 1_555 1_555
C19B C19 1_555 1_555
H12B C19B 1_555 1_555
H13B C19B 1_555 1_555
N2B C14B 1_555 1_555
Cd1B N1 1_555 1_555
C1B C2B 1_555 1_555
C2B C3B 1_555 1_555
C3B H1B 1_555 1_555
C4B C3B 1_555 1_555
H2B C4B 1_555 1_555
C5B C4B 1_555 1_555
C6B C5B 1_555 1_555
C7B C2B 1_555 1_555
H3B C7B 1_555 1_555
C8B C5B 1_555 1_555
C9B C6B 1_555 1_555
C10B C9B 1_555 1_555
H4B C10B 1_555 1_555
C11B C10B 1_555 1_555
H5B C11B 1_555 1_555
C12B C11B 1_555 1_555
H6B C12B 1_555 1_555
C13B C9B 1_555 1_555
H7B C13B 1_555 1_555
N1B Cd1 1_555 1_555
O1B Cd1B 1_555 1_555
O2B Cd1B 1_555 1_555
O3B C8B 1_555 1_555
O4B C8B 1_555 1_555
Cd1A O3B 1_555 1_555
Cd1B_2 N2B 1_555 1_555
Cd1C O3 1_555 1_555
N2B_2 Cd1B 1_555 1_555
O3A Cd1B 1_555 1_555
O3C Cd1 1_555 1_555
O4A Cd1B 1_555 1_555
O4C Cd1 1_555 1_555
C1 O1 1_555 1_555
C1 O2 1_555 1_555
C6 C7 1_555 1_555
C13 N1 1_555 1_555
C18 N2 1_555 1_555
O4 Cd1C 1_555 1_555
C16B C19B 1_555 1_555
C18B N2B 1_555 1_555
C1B O1B 1_555 1_555
C1B O2B 1_555 1_555
C6B C7B 1_555 1_555
C12B N1B 1_555 1_555
C13B N1B 1_555 1_555
O4B Cd1A 1_555 1_555

#END
