
#######################################################################
#
#                 Cambridge Crystallographic Data Centre
#                                CCDC 
#
#######################################################################
#
# If this CIF has been generated from an entry in the Cambridge 
# Structural Database, then it will include bibliographic, chemical, 
# crystal, experimental, refinement or atomic coordinate data resulting 
# from the CCDC's data processing and validation procedures.
#
#######################################################################

data_SOJDEB
_symmetry_cell_setting           orthorhombic
_symmetry_space_group_name_H-M   'P b c a'
_symmetry_Int_Tables_number      61
_space_group_name_Hall           '-P 2ac 2ab'
loop_
_symmetry_equiv_pos_site_id
_symmetry_equiv_pos_as_xyz
1 x,y,z
2 1/2-x,-y,1/2+z
3 1/2+x,1/2-y,-z
4 -x,1/2+y,1/2-z
5 -x,-y,-z
6 1/2+x,y,1/2-z
7 1/2-x,1/2+y,z
8 x,1/2-y,1/2+z
_cell_length_a                   11.4787(5)
_cell_length_b                   11.3966(3)
_cell_length_c                   16.8775(7)
_cell_angle_alpha                90
_cell_angle_beta                 90
_cell_angle_gamma                90
_cell_volume                     2207.88
loop_
_atom_site_label
_atom_site_type_symbol
_atom_site_fract_x
_atom_site_fract_y
_atom_site_fract_z
Cr1 Cr 0.5000 0.0000 0.5000
N1 N 0.4385(3) 0.1546(3) 0.45150(19)
N2 N 0.1623(4) 0.4017(3) 0.4446(2)
N3 N 0.5722(4) 0.2516(3) 0.2495(2)
N4 N 0.4177(3) 0.4667(3) 0.10677(19)
N5 N 0.1496(4) 0.5562(4) 0.2736(2)
C1 C 0.3962(3) 0.2284(3) 0.4152(2)
C2 C 0.2414(4) 0.3658(4) 0.4097(2)
C3 C 0.4875(4) 0.2940(4) 0.2699(2)
C4 C 0.3821(4) 0.4519(4) 0.1689(2)
C5 C 0.2304(4) 0.5002(4) 0.2622(2)
C6 C 0.3402(4) 0.3178(3) 0.3719(2)
C7 C 0.3803(4) 0.3509(3) 0.2967(2)
C8 C 0.3328(4) 0.4333(3) 0.2453(2)
Cr1F Cr 0.0000 0.5000 0.5000
Cr1G Cr 0.5000 0.5000 0.0000
Cr1F_2 Cr 0.0000 -0.5000 0.5000
Cr1E Cr 0.0000 0.0000 0.0000
N1F N 0.0615(3) -0.3454(3) 0.45150(19)
N1D N 0.5615(3) -0.1546(3) 0.54850(19)
N2F N 0.3377(4) -0.0983(3) 0.4446(2)
N2B N 0.6623(4) 0.0983(3) 0.5554(2)
N3F N -0.0722(4) -0.2484(3) 0.2495(2)
N4F N 0.0823(3) -0.0333(3) 0.10677(19)
N4G N 0.4177(3) 0.0333(3) 0.60677(19)
N4C N 0.5823(3) -0.0333(3) 0.39323(19)
N5F N 0.3504(4) 0.0562(4) 0.2736(2)
C1F C 0.1038(3) -0.2716(3) 0.4152(2)
C2F C 0.2586(4) -0.1342(4) 0.4097(2)
C3F C 0.0125(4) -0.2060(4) 0.2699(2)
C4F C 0.1179(4) -0.0481(4) 0.1689(2)
C5F C 0.2696(4) 0.0002(4) 0.2622(2)
C6F C 0.1598(4) -0.1822(3) 0.3719(2)
C7F C 0.1197(4) -0.1491(3) 0.2967(2)
C8F C 0.1672(4) -0.0667(3) 0.2453(2)
O1 O -0.1953(8) 0.1877(8) 0.3911(5)
N6 N 0.6091(5) 0.4566(5) 0.4360(3)
C9 C 0.5792(9) 0.5247(9) 0.4357(6)
C10 C 0.4891(16) 0.6066(19) 0.4185(13)
H1 H 0.5147 0.6857 0.4332
H2 H 0.4191 0.5861 0.4489
H3 H 0.4713 0.6044 0.3618
N7? N 0.582(2) 0.602(2) 0.4004(17)
C11? C 0.6196(10) 0.4109(10) 0.4834(7)
H4? H 0.5512 0.3714 0.5056
H5? H 0.6720 0.4342 0.5265
H6? H 0.6605 0.3573 0.4476
C12? C 0.3947(9) 0.5966(9) 0.4674(7)
loop_
_geom_bond_atom_site_label_1
_geom_bond_atom_site_label_2
_geom_bond_site_symmetry_1
_geom_bond_site_symmetry_2
Cr1 N1 1_555 1_555
N1 C1 1_555 1_555
N2 C2 1_555 1_555
N3 C3 1_555 1_555
N4 C4 1_555 1_555
N5 C5 1_555 1_555
C1 C6 1_555 1_555
C2 C6 1_555 1_555
C3 C7 1_555 1_555
C4 C8 1_555 1_555
C5 C8 1_555 1_555
C6 C7 1_555 1_555
C7 C8 1_555 1_555
N6 C9 1_555 1_555
C9 C10 1_555 1_555
C10 H1 1_555 1_555
H2 C10 1_555 1_555
H3 C10 1_555 1_555
Cr1F N2 1_555 1_555
Cr1G N4 1_555 1_555
Cr1F_2 N1F 1_555 1_555
Cr1E N4F 1_555 1_555
N1F C1F 1_555 1_555
N1D Cr1 1_555 1_555
N2F Cr1 1_555 1_555
N2B Cr1 1_555 1_555
N3F C3F 1_555 1_555
N4F C4F 1_555 1_555
N4G Cr1 1_555 1_555
N4C Cr1 1_555 1_555
N5F C5F 1_555 1_555
C1F C6F 1_555 1_555
C2F N2F 1_555 1_555
C3F C7F 1_555 1_555
C4F C8F 1_555 1_555
C5F C8F 1_555 1_555
C6F C2F 1_555 1_555
C7F C6F 1_555 1_555
C8F C7F 1_555 1_555

#END
