
#######################################################################
#
#                 Cambridge Crystallographic Data Centre
#                                CCDC 
#
#######################################################################
#
# If this CIF has been generated from an entry in the Cambridge 
# Structural Database, then it will include bibliographic, chemical, 
# crystal, experimental, refinement or atomic coordinate data resulting 
# from the CCDC's data processing and validation procedures.
#
#######################################################################

data_SOMCON
_symmetry_cell_setting           orthorhombic
_symmetry_space_group_name_H-M   'P b c a'
_symmetry_Int_Tables_number      61
_space_group_name_Hall           '-P 2ac 2ab'
loop_
_symmetry_equiv_pos_site_id
_symmetry_equiv_pos_as_xyz
1 x,y,z
2 1/2-x,-y,1/2+z
3 -x,1/2+y,1/2-z
4 1/2+x,1/2-y,-z
5 -x,-y,-z
6 1/2+x,y,1/2-z
7 x,1/2-y,1/2+z
8 1/2-x,1/2+y,z
_cell_length_a                   27.9987(2)
_cell_length_b                   13.8164(3)
_cell_length_c                   44.1589(5)
_cell_angle_alpha                90
_cell_angle_beta                 90
_cell_angle_gamma                90
_cell_volume                     17082.5
loop_
_atom_site_label
_atom_site_type_symbol
_atom_site_fract_x
_atom_site_fract_y
_atom_site_fract_z
Zn1 Zn 0.45206(3) -0.13888(5) 0.089348(17)
Zn2 Zn 0.26149(3) -0.18873(5) -0.178950(16)
Zn3 Zn 0.47549(3) 0.61851(5) -0.086590(19)
I1 I 0.446129(18) -0.32302(3) 0.085736(14)
I2 I 0.516304(16) -0.05450(4) 0.119696(12)
I3 I 0.17264(2) -0.18645(4) -0.165980(13)
I4 I 0.30354(2) -0.35109(3) -0.184730(12)
I5 I 0.42642(2) 0.70143(4) -0.126870(18)
I6 I 0.491780(19) 0.69517(3) -0.034720(13)
C1 C 0.3165(2) -0.1510(4) -0.12367(15)
H1 H 0.3135 -0.2192 -0.1218
C2 C 0.3401(2) -0.1007(4) -0.10101(16)
H2 H 0.3525 -0.1341 -0.0839
C3 C 0.3032(3) -0.0120(5) -0.15045(15)
H3 H 0.2901 0.0193 -0.1677
C4 C 0.3271(3) 0.0442(5) -0.12886(15)
H4 H 0.3306 0.1120 -0.1315
C5 C 0.3454(2) -0.0013(4) -0.10356(13)
C6 C 0.3709(2) 0.0532(4) -0.08000(14)
C7 C 0.4276(2) 0.4313(5) -0.10056(16)
H5 H 0.4246 0.4600 -0.1200
C8 C 0.4128(3) 0.3364(5) -0.09687(16)
H6 H 0.4002 0.3006 -0.1134
C9 C 0.4500(2) 0.4437(4) -0.05052(16)
H7 H 0.4637 0.4803 -0.0345
C10 C 0.4349(3) 0.3497(5) -0.04489(15)
H8 H 0.4369 0.3232 -0.0251
C11 C 0.4168(2) 0.2953(4) -0.06857(15)
C12 C 0.4040(2) 0.1915(4) -0.06351(14)
C13 C 0.4576(2) 0.0123(5) 0.04232(15)
H9 H 0.4724 0.0479 0.0581
C14 C 0.4457(2) 0.0595(5) 0.01566(15)
H10 H 0.4517 0.1268 0.0134
C15 C 0.4310(3) -0.1336(4) 0.02317(15)
H11 H 0.4268 -0.2015 0.0254
C16 C 0.4185(2) -0.0913(5) -0.00401(15)
H12 H 0.4058 -0.1292 -0.0200
C17 C 0.4251(2) 0.0076(4) -0.00745(13)
C18 C 0.4096(2) 0.0576(4) -0.03549(14)
C19 C 0.3455(2) -0.1019(5) 0.09071(14)
H13 H 0.3468 -0.1205 0.0700
C20 C 0.3014(2) -0.0841(4) 0.10331(13)
H14 H 0.2731 -0.0889 0.0915
C21 C 0.3847(2) -0.0659(5) 0.13517(14)
H15 H 0.4136 -0.0575 0.1461
C22 C 0.3424(2) -0.0484(5) 0.14985(14)
H16 H 0.3421 -0.0295 0.1705
C23 C 0.2995(2) -0.0588(4) 0.13369(13)
C24 C 0.2534(2) -0.0429(4) 0.14971(12)
C25 C 0.2659(3) 0.0697(4) 0.26804(13)
H17 H 0.2957 0.0673 0.2783
C26 C 0.2625(2) 0.0302(4) 0.23907(14)
H18 H 0.2896 0.0023 0.2295
C27 C 0.1865(2) 0.1126(5) 0.26792(15)
H19 H 0.1602 0.1419 0.2779
C28 C 0.1791(3) 0.0730(5) 0.23909(15)
H20 H 0.1484 0.0735 0.2299
C29 C 0.2185(2) 0.0326(4) 0.22440(13)
C30 C 0.2149(2) -0.0026(4) 0.19257(12)
C31 C 0.0418(2) -0.0602(5) 0.13575(16)
H21 H 0.0126 -0.0540 0.1465
C32 C 0.0840(2) -0.0431(5) 0.15097(15)
H22 H 0.0838 -0.0240 0.1716
C33 C 0.0815(2) -0.0934(5) 0.09154(14)
H23 H 0.0807 -0.1098 0.0707
C34 C 0.1252(2) -0.0790(4) 0.10514(14)
H24 H 0.1538 -0.0862 0.0938
C35 C 0.1271(2) -0.0543(4) 0.13526(13)
C36 C 0.1737(2) -0.0407(4) 0.15082(13)
N1 N 0.2979(2) -0.1082(4) -0.14786(11)
N2 N 0.44591(18) 0.4843(4) -0.07820(13)
N3 N 0.44865(18) -0.0830(4) 0.04649(12)
N4 N 0.37780(18) 0.1486(4) -0.08493(12)
N5 N 0.42040(18) 0.1510(4) -0.03856(12)
N6 N 0.38542(18) 0.0047(4) -0.05580(12)
N7 N 0.38717(18) -0.0947(4) 0.10606(12)
N8 N 0.2285(2) 0.1111(4) 0.28192(12)
N9 N 0.04023(18) -0.0852(4) 0.10658(12)
N10 N 0.25680(18) -0.0166(3) 0.17867(10)
N11 N 0.17235(18) -0.0134(4) 0.18010(11)
N12 N 0.21291(17) -0.0563(3) 0.13480(11)
Zn2A Zn 0.23851(3) 0.18873(5) 0.321050(16)
Zn3C Zn -0.02451(3) -0.11851(5) 0.086590(19)
N8A N 0.2715(2) -0.1111(4) -0.21808(12)
N9C N 0.54023(18) 0.5852(4) -0.10658(12)
C37 C 0.2219(7) 0.687(5) 0.1325(6)
C38 C 0.2434(7) 0.669(4) 0.1043(5)
H25 H 0.2243 0.6554 0.0870
C39 C 0.2907(8) 0.672(3) 0.1020(5)
C40 C 0.3201(8) 0.689(4) 0.1265(6)
H26 H 0.3539 0.6894 0.1243
C41 C 0.2991(7) 0.704(3) 0.1548(4)
H27 H 0.3185 0.7096 0.1724
C42 C 0.2500(7) 0.712(6) 0.1571(7)
C43 C 0.2276(8) 0.736(3) 0.1860(5)
C44 C 0.2566(10) 0.767(4) 0.2109(6)
H28 H 0.2903 0.7711 0.2093
C45 C 0.2326(10) 0.792(3) 0.2377(6)
H29 H 0.2513 0.8155 0.2541
C46 C 0.1827(9) 0.785(2) 0.2419(5)
H30 H 0.1680 0.7995 0.2608
C47 C 0.1566(9) 0.757(3) 0.2167(5)
H31 H 0.1229 0.7510 0.2183
C48 C 0.1790(9) 0.736(4) 0.1888(6)
C49 C 0.1492(8) 0.716(3) 0.1628(6)
C50 C 0.0965(8) 0.704(3) 0.1639(6)
H32 H 0.0811 0.7100 0.1830
C51 C 0.0694(8) 0.686(2) 0.1395(6)
H33 H 0.0356 0.6817 0.1414
C52 C 0.0902(9) 0.675(2) 0.1126(6)
H34 H 0.0707 0.6644 0.0953
C53 C 0.1389(9) 0.679(4) 0.1092(6)
H35 H 0.1521 0.6761 0.0894
C54 C 0.1701(7) 0.687(3) 0.1347(5)
C55 C 0.2926(11) 0.608(4) 0.0478(7)
C56 C 0.3348(9) 0.590(3) 0.0254(5)
H36 H 0.3539 0.5329 0.0267
N13 N 0.3154(9) 0.633(3) 0.0745(6)
H37 H 0.3466 0.6254 0.0753
O1 O 0.2507(11) 0.574(4) 0.0472(8)
C57 C 0.3434(10) 0.6600(18) 0.0034(5)
H38 H 0.3677 0.6497 -0.0112
C58 C 0.3104(9) 0.765(2) 0.0024(6)
O2 O 0.2998(5) 0.7981(11) 0.0239(4)
O3 O 0.3160(7) 0.7929(19) -0.0272(5)
O4 O 0.2783(7) 0.9589(17) 0.9961(5)
O5 O 0.3157(7) 0.1619(14) 0.0049(4)
C59 C 0.2803(3) 0.2821(7) 0.9305(2)
H39 H 0.3036 0.2952 0.9465
H40 H 0.2535 0.3273 0.9322
H41 H 0.2956 0.2902 0.9107
C60 C 0.2627(4) 0.1823(9) 0.9334(3)
C61 C 0.2097(7) 0.0510(10) 0.9082(4)
H42 H 0.1961 0.0409 0.8877
H43 H 0.2350 0.0025 0.9121
C62 C 0.1751(6) 0.0509(17) 0.9304(6)
H44 H 0.1593 -0.0124 0.9309
H45 H 0.1514 0.1013 0.9260
H46 H 0.1899 0.0639 0.9501
O6 O 0.2780(3) 0.1205(6) 0.95066(19)
O7 O 0.2291(4) 0.1640(8) 0.9132(4)
C63? C 0.2204(7) 0.697(5) 0.1315(6)
C64? C 0.2455(9) 0.667(4) 0.1056(6)
H47? H 0.2287 0.6503 0.0877
C65? C 0.2929(9) 0.661(3) 0.1064(5)
C66? C 0.3179(9) 0.685(4) 0.1323(6)
H48? H 0.3518 0.6810 0.1325
C67? C 0.2934(9) 0.717(3) 0.1582(7)
H49? H 0.3106 0.7376 0.1756
C68? C 0.2441(8) 0.717(6) 0.1584(7)
C69? C 0.2175(8) 0.744(3) 0.1854(5)
C70? C 0.2422(9) 0.773(3) 0.2124(6)
H50? H 0.2760 0.7799 0.2127
C71? C 0.2147(10) 0.791(3) 0.2384(6)
H51? H 0.2306 0.8116 0.2563
C72? C 0.1644(11) 0.781(3) 0.2393(6)
H52? H 0.1463 0.7958 0.2569
C73? C 0.1431(10) 0.749(4) 0.2129(6)
H53? H 0.1096 0.7382 0.2128
C74? C 0.1690(8) 0.730(4) 0.1862(6)
C75? C 0.1435(7) 0.703(3) 0.1590(5)
C76? C 0.0909(8) 0.693(3) 0.1557(6)
H54? H 0.0719 0.6996 0.1735
C77? C 0.0686(10) 0.676(3) 0.1296(7)
H55? H 0.0347 0.6758 0.1288
C78? C 0.0938(10) 0.660(3) 0.1046(7)
H56? H 0.0777 0.6450 0.0863
C79? C 0.1427(9) 0.664(4) 0.1048(6)
H57? H 0.1599 0.6441 0.0873
C80? C 0.1684(7) 0.697(3) 0.1307(5)
C81? C 0.3049(8) 0.601(3) 0.0521(6)
C82? C 0.3490(10) 0.588(4) 0.0310(7)
H58? H 0.3689 0.6418 0.0272
N14? N 0.3213(9) 0.645(3) 0.0781(6)
H59? H 0.3511 0.6651 0.0781
O8? O 0.2619(6) 0.590(3) 0.0449(5)
C83? C 0.3616(10) 0.490(2) 0.0160(5)
H60? H 0.3845 0.4906 0.0002
C84? C 0.3376(7) 0.383(2) 0.0260(5)
O9? O 0.3158(6) 0.3740(12) 0.0453(3)
O10? O 0.3474(6) 0.314(2) 0.0056(7)
loop_
_geom_bond_atom_site_label_1
_geom_bond_atom_site_label_2
_geom_bond_site_symmetry_1
_geom_bond_site_symmetry_2
Zn1 I1 1_555 1_555
Zn2 I3 1_555 1_555
Zn3 I5 1_555 1_555
I2 Zn1 1_555 1_555
I4 Zn2 1_555 1_555
I6 Zn3 1_555 1_555
C1 H1 1_555 1_555
C2 C1 1_555 1_555
H2 C2 1_555 1_555
C3 H3 1_555 1_555
C4 C3 1_555 1_555
H4 C4 1_555 1_555
C5 C2 1_555 1_555
C6 C5 1_555 1_555
C7 H5 1_555 1_555
C8 C7 1_555 1_555
H6 C8 1_555 1_555
C9 H7 1_555 1_555
C10 C9 1_555 1_555
H8 C10 1_555 1_555
C11 C8 1_555 1_555
C12 C11 1_555 1_555
C13 H9 1_555 1_555
C14 C13 1_555 1_555
H10 C14 1_555 1_555
C15 H11 1_555 1_555
C16 C15 1_555 1_555
H12 C16 1_555 1_555
C17 C14 1_555 1_555
C18 C17 1_555 1_555
C19 H13 1_555 1_555
C20 C19 1_555 1_555
H14 C20 1_555 1_555
C21 H15 1_555 1_555
C22 C21 1_555 1_555
H16 C22 1_555 1_555
C23 C20 1_555 1_555
C24 C23 1_555 1_555
C25 H17 1_555 1_555
C26 C25 1_555 1_555
H18 C26 1_555 1_555
C27 H19 1_555 1_555
C28 C27 1_555 1_555
H20 C28 1_555 1_555
C29 C26 1_555 1_555
C30 C29 1_555 1_555
C31 H21 1_555 1_555
C32 C31 1_555 1_555
H22 C32 1_555 1_555
C33 H23 1_555 1_555
C34 C33 1_555 1_555
H24 C34 1_555 1_555
C35 C32 1_555 1_555
C36 C35 1_555 1_555
N1 Zn2 1_555 1_555
N2 Zn3 1_555 1_555
N3 Zn1 1_555 1_555
N4 C6 1_555 1_555
N5 C12 1_555 1_555
N6 C6 1_555 1_555
N7 Zn1 1_555 1_555
N8 C25 1_555 1_555
N9 C31 1_555 1_555
N10 C24 1_555 1_555
N11 C30 1_555 1_555
N12 C24 1_555 1_555
C37 C38 1_555 1_555
C38 H25 1_555 1_555
C39 C38 1_555 1_555
C40 C39 1_555 1_555
H26 C40 1_555 1_555
C41 C40 1_555 1_555
H27 C41 1_555 1_555
C42 C37 1_555 1_555
C43 C42 1_555 1_555
C44 C43 1_555 1_555
H28 C44 1_555 1_555
C45 C44 1_555 1_555
H29 C45 1_555 1_555
C46 C45 1_555 1_555
H30 C46 1_555 1_555
C47 C46 1_555 1_555
H31 C47 1_555 1_555
C48 C43 1_555 1_555
C49 C48 1_555 1_555
C50 C49 1_555 1_555
H32 C50 1_555 1_555
C51 C50 1_555 1_555
H33 C51 1_555 1_555
C52 C51 1_555 1_555
H34 C52 1_555 1_555
C53 C52 1_555 1_555
H35 C53 1_555 1_555
C54 C37 1_555 1_555
C55 C56 1_555 1_555
C56 H36 1_555 1_555
N13 C39 1_555 1_555
H37 N13 1_555 1_555
O1 C55 1_555 1_555
C57 C56 1_555 1_555
H38 C57 1_555 1_555
C58 C57 1_555 1_555
O2 C58 1_555 1_555
O3 C58 1_555 1_555
C59 H39 1_555 1_555
H40 C59 1_555 1_555
H41 C59 1_555 1_555
C60 C59 1_555 1_555
C61 H42 1_555 1_555
H43 C61 1_555 1_555
C62 C61 1_555 1_555
H44 C62 1_555 1_555
H45 C62 1_555 1_555
H46 C62 1_555 1_555
O6 C60 1_555 1_555
O7 C60 1_555 1_555
Zn2A N8 1_555 1_555
Zn3C N9 1_555 1_555
N8A Zn2 1_555 1_555
N9C Zn3 1_555 1_555
C1 N1 1_555 1_555
C3 N1 1_555 1_555
C4 C5 1_555 1_555
C7 N2 1_555 1_555
C9 N2 1_555 1_555
C10 C11 1_555 1_555
C12 N4 1_555 1_555
C13 N3 1_555 1_555
C15 N3 1_555 1_555
C16 C17 1_555 1_555
C18 N5 1_555 1_555
C18 N6 1_555 1_555
C19 N7 1_555 1_555
C21 N7 1_555 1_555
C22 C23 1_555 1_555
C27 N8 1_555 1_555
C28 C29 1_555 1_555
C30 N10 1_555 1_555
C33 N9 1_555 1_555
C34 C35 1_555 1_555
C36 N11 1_555 1_555
C36 N12 1_555 1_555
C41 C42 1_555 1_555
C47 C48 1_555 1_555
C49 C54 1_555 1_555
C53 C54 1_555 1_555
C55 N13 1_555 1_555
C61 O7 1_555 1_555

#END
