
#######################################################################
#
#                 Cambridge Crystallographic Data Centre
#                                CCDC 
#
#######################################################################
#
# If this CIF has been generated from an entry in the Cambridge 
# Structural Database, then it will include bibliographic, chemical, 
# crystal, experimental, refinement or atomic coordinate data resulting 
# from the CCDC's data processing and validation procedures.
#
#######################################################################

data_SOVHAM
_symmetry_cell_setting           monoclinic
_symmetry_space_group_name_H-M   'P 2/m'
_symmetry_Int_Tables_number      10
_space_group_name_Hall           '-P 2y'
loop_
_symmetry_equiv_pos_site_id
_symmetry_equiv_pos_as_xyz
1 x,y,z
2 -x,y,-z
3 -x,-y,-z
4 x,-y,z
_cell_length_a                   11.513(4)
_cell_length_b                   7.626(1)
_cell_length_c                   7.101(1)
_cell_angle_alpha                90
_cell_angle_beta                 109.63(3)
_cell_angle_gamma                90
_cell_volume                     587.22
loop_
_atom_site_label
_atom_site_type_symbol
_atom_site_fract_x
_atom_site_fract_y
_atom_site_fract_z
N3 N 0.254(4) 0.50000 0.035(6)
C6 C 0.368(3) 0.50000 0.064(5)
C7 C 0.426(3) 0.50000 -0.0113(5)
C8 C 0.474(2) 0.50000 0.097(4)
C10 C 0.581(4) 0.50000 0.270(6)
C11 C 0.467(4) 0.50000 0.255(6)
C12 C 0.679(3) 0.50000 0.292(6)
C7A C 0.574(3) 0.50000 0.0113(5)
C6A C 0.632(3) 0.50000 -0.064(5)
N3A N 0.746(4) 0.50000 -0.035(6)
C8A C 0.526(2) 0.50000 -0.097(4)
C10A C 0.419(4) 0.50000 -0.270(6)
C11A C 0.533(4) 0.50000 -0.255(6)
C12A C 0.321(3) 0.50000 -0.292(6)
Cd1 Cd 1.00000 0.00000 0.00000
Ni1 Ni 1.00000 0.50000 0.50000
N1 N 1.0573(5) 0.2230(6) 0.2455(6)
N2 N 0.8051(6) 0.00000 0.0172(9)
C1 C 1.0380(5) 0.3287(6) 0.3449(6)
C2 C 0.7879(7) 0.00000 0.212(1)
C3 C 0.6548(7) 0.00000 0.202(1)
C4 C 0.6424(7) 0.00000 0.409(1)
C5 C 0.5065(8) 0.00000 0.396(1)
H1 H 0.75741 0.11525 -0.06358
H2 H 0.83291 0.11525 0.29379
H3 H 0.60835 0.11525 0.11907
H4 H 0.68800 0.11525 0.49098
C5A C 0.4935(8) 0.00000 0.604(1)
C4A C 0.3576(7) 0.00000 0.591(1)
C3A C 0.3452(7) 0.00000 0.798(1)
C2A C 0.2121(7) 0.00000 0.788(1)
N2A N 0.1949(6) 0.00000 0.9828(9)
H1A H 0.24259 0.11525 1.06358
H1B H 0.24259 -0.11525 1.06358
H2A H 0.16709 0.11525 0.70621
H2B H 0.16709 -0.11525 0.70621
H3A H 0.39165 0.11525 0.88093
H3B H 0.39165 -0.11525 0.88093
H4A H 0.31200 0.11525 0.50902
H4B H 0.31200 -0.11525 0.50902
H4C H 0.68800 -0.11525 0.49098
H3C H 0.60835 -0.11525 0.11907
H2C H 0.83291 -0.11525 0.29379
H1C H 0.75741 -0.11525 -0.06358
N1A N 0.9427(5) 0.2230(6) -0.2455(6)
C1A C 0.9620(5) 0.3287(6) -0.3449(6)
N1B N 0.9427(5) -0.2230(6) -0.2455(6)
C1B C 0.9620(5) -0.3287(6) -0.3449(6)
N1C N 1.0573(5) -0.2230(6) 0.2455(6)
C1C C 1.0380(5) -0.3287(6) 0.3449(6)
N2A_2 N 1.1949(6) 0.00000 -0.0172(9)
C1A_2 C 0.9620(5) 0.3287(6) 0.6551(6)
C1B_2 C 0.9620(5) 0.6713(6) 0.6551(6)
C1C_2 C 1.0380(5) 0.6713(6) 0.3449(6)
Cd1_2 Cd 0.00000 0.00000 1.00000
Ni1_2 Ni 1.00000 0.50000 -0.50000
Ni1_3 Ni 1.00000 -0.50000 -0.50000
Ni1_4 Ni 1.00000 -0.50000 0.50000
H1A_2 H 1.24259 0.11525 0.06358
H1B_2 H 1.24259 -0.11525 0.06358
C9? C 0.650(4) 0.50000 0.105(6)
H5? H 0.45984 0.15258 0.31265
loop_
_geom_bond_atom_site_label_1
_geom_bond_atom_site_label_2
_geom_bond_site_symmetry_1
_geom_bond_site_symmetry_2
Cd1 N1 1_555 1_555
Ni1 C1 1_555 1_555
N1 C1 1_555 1_555
N2 Cd1 1_555 1_555
N3 C6 1_555 1_555
C2 N2 1_555 1_555
C3 C2 1_555 1_555
C4 C3 1_555 1_555
C5 C4 1_555 1_555
C6 C7 1_555 1_555
C7 C8 1_555 1_555
C8 C6 1_555 1_555
C10 C8 1_555 1_555
C11 C6 1_555 1_555
C12 C10 1_555 1_555
H1 N2 1_555 1_555
H2 C2 1_555 1_555
H3 C3 1_555 1_555
H4 C4 1_555 1_555
C5A C5 1_555 1_555
C4A C5A 1_555 1_555
C3A C4A 1_555 1_555
C2A C3A 1_555 1_555
N2A C2A 1_555 1_555
H1A N2A 1_555 1_555
H1B N2A 1_555 1_555
H2A C2A 1_555 1_555
H2B C2A 1_555 1_555
H3A C3A 1_555 1_555
H3B C3A 1_555 1_555
H4A C4A 1_555 1_555
H4B C4A 1_555 1_555
H4C C4 1_555 1_555
H3C C3 1_555 1_555
H2C C2 1_555 1_555
H1C N2 1_555 1_555
C7A C7 1_555 1_555
C6A C7A 1_555 1_555
N3A C6A 1_555 1_555
C8A C7 1_555 1_555
C10A C8A 1_555 1_555
C11A C6A 1_555 1_555
C12A C10A 1_555 1_555
N1A Cd1 1_555 1_555
C1A N1A 1_555 1_555
N1B Cd1 1_555 1_555
C1B N1B 1_555 1_555
N1C Cd1 1_555 1_555
C1C N1C 1_555 1_555
N2A_2 Cd1 1_555 1_555
C1A_2 Ni1 1_555 1_555
C1B_2 Ni1 1_555 1_555
C1C_2 Ni1 1_555 1_555
Cd1_2 N2A 1_555 1_555
Ni1_2 C1A 1_555 1_555
Ni1_3 C1B 1_555 1_555
Ni1_4 C1C 1_555 1_555
H1A_2 N2A_2 1_555 1_555
H1B_2 N2A_2 1_555 1_555
C8 C11 1_555 1_555
C8 C7A 1_555 1_555
C8 C8A 1_555 1_555
C10 C11 1_555 1_555
C7A C8A 1_555 1_555
C6A C8A 1_555 1_555
C8A C11A 1_555 1_555
C10A C11A 1_555 1_555

#END
