
#######################################################################
#
#                 Cambridge Crystallographic Data Centre
#                                CCDC 
#
#######################################################################
#
# If this CIF has been generated from an entry in the Cambridge 
# Structural Database, then it will include bibliographic, chemical, 
# crystal, experimental, refinement or atomic coordinate data resulting 
# from the CCDC's data processing and validation procedures.
#
#######################################################################

data_SUPQEA
_symmetry_cell_setting           orthorhombic
_symmetry_space_group_name_H-M   'P 21 21 21'
_symmetry_Int_Tables_number      19
_space_group_name_Hall           'P 2ac 2ab'
loop_
_symmetry_equiv_pos_site_id
_symmetry_equiv_pos_as_xyz
1 x,y,z
2 1/2-x,-y,1/2+z
3 1/2+x,1/2-y,-z
4 -x,1/2+y,1/2-z
_cell_length_a                   8.6896(10)
_cell_length_b                   18.229(2)
_cell_length_c                   24.344(3)
_cell_angle_alpha                90
_cell_angle_beta                 90
_cell_angle_gamma                90
_cell_volume                     3856.16
loop_
_atom_site_label
_atom_site_type_symbol
_atom_site_fract_x
_atom_site_fract_y
_atom_site_fract_z
Cu1 Cu 0.70797(5) 0.52161(2) 0.388598(15)
O1 O 0.7757(3) 0.46501(14) 0.45315(9)
O2 O 0.8109(3) 0.37377(14) 0.39410(9)
O3 O 0.7913(4) 0.49286(15) 0.76080(10)
O4 O 0.8645(3) 0.41711(15) 0.82796(9)
N1 N 0.5072(4) 0.46323(18) 0.38802(14)
N2 N 0.9322(4) 0.55483(19) 0.37841(12)
N3 N 0.6362(4) 0.6161(2) 0.44923(13)
N4 N 1.0785(4) 0.24010(18) 0.61640(12)
H1 H 1.1347 0.2007 0.6180
C1 C 0.8209(4) 0.4002(2) 0.44105(13)
C2 C 0.8872(4) 0.35589(19) 0.48698(13)
C3 C 0.9677(5) 0.2899(2) 0.47468(13)
H2 H 0.9731 0.2742 0.4379
C4 C 1.0383(5) 0.2480(2) 0.51464(14)
H3 H 1.0947 0.2057 0.5057
C5 C 1.0219(5) 0.2714(2) 0.56913(14)
C6 C 0.9380(5) 0.3350(2) 0.58332(13)
C7 C 0.8716(4) 0.3775(2) 0.54152(13)
H4 H 0.8168 0.4203 0.5503
C8 C 0.8847(5) 0.3912(2) 0.68021(13)
H5 H 0.8260 0.4314 0.6682
C9 C 0.9423(4) 0.3411(2) 0.64269(13)
C10 C 1.0316(5) 0.2814(2) 0.66099(14)
C11 C 1.0619(5) 0.2702(2) 0.71695(15)
H6 H 1.1215 0.2303 0.7291
C12 C 1.0006(5) 0.3203(2) 0.75349(14)
H7 H 1.0169 0.3131 0.7913
C13 C 0.9151(5) 0.3811(2) 0.73641(14)
C14 C 0.8514(4) 0.4358(2) 0.77698(14)
C15 C 0.4568(5) 0.4333(3) 0.34175(18)
H8 H 0.5135 0.4400 0.3093
C16 C 0.3230(6) 0.3924(3) 0.3401(2)
H9 H 0.2902 0.3708 0.3071
C17 C 0.2384(7) 0.3838(4) 0.3872(3)
H10 H 0.1455 0.3574 0.3866
C18 C 0.2906(7) 0.4139(4) 0.4350(2)
H11 H 0.2357 0.4078 0.4679
C19 C 0.4257(5) 0.4534(3) 0.43371(19)
H12 H 0.4618 0.4744 0.4665
C20 C 1.0082(5) 0.5462(3) 0.33130(18)
H13 H 0.9572 0.5249 0.3012
C21 C 1.1597(6) 0.5676(4) 0.3254(2)
H14 H 1.2106 0.5619 0.2916
C22 C 1.2349(6) 0.5973(3) 0.3697(2)
H15 H 1.3386 0.6113 0.3668
C23 C 1.1575(6) 0.6062(3) 0.4178(2)
H16 H 1.2063 0.6275 0.4484
C24 C 1.0076(5) 0.5836(3) 0.42115(18)
H17 H 0.9556 0.5886 0.4548
C25 C 0.5815(6) 0.6789(3) 0.43102(19)
H18 H 0.5891 0.6887 0.3932
C26 C 0.5137(9) 0.7312(3) 0.4642(3)
H19 H 0.4745 0.7748 0.4490
C27 C 0.5046(10) 0.7189(3) 0.5181(3)
H20 H 0.4581 0.7536 0.5414
C28 C 0.5638(9) 0.6552(4) 0.5392(2)
H21 H 0.5598 0.6456 0.5771
C29 C 0.6284(7) 0.6061(3) 0.50384(17)
H22 H 0.6700 0.5627 0.5185
Cu1A Cu 0.79203(5) 0.47839(2) 0.888598(15)
O4A O 0.6355(3) 0.58289(15) 0.32796(9)
N5 N 0.9328(6) 0.5308(3) 0.1041(2)
C30 C 0.9724(9) 0.4977(4) 0.1498(3)
H23 H 0.9075 0.4603 0.1630
C31 C 1.1018(9) 0.5138(4) 0.1795(3)
H24 H 1.1238 0.4885 0.2123
C32 C 1.1972(11) 0.5666(4) 0.1610(3)
H25 H 1.2905 0.5764 0.1791
C33 C 1.1565(10) 0.6054(5) 0.1157(3)
H26 H 1.2167 0.6453 0.1040
C34 C 1.0258(8) 0.5859(4) 0.0870(3)
H27 H 1.0006 0.6115 0.0548
N6 N 0.7155(10) 0.8645(5) 0.3838(3)
C35 C 0.6131(11) 0.8558(5) 0.3430(4)
H28 H 0.6355 0.8251 0.3131
C36 C 0.4727(12) 0.8929(5) 0.3458(4)
H29 H 0.4028 0.8890 0.3165
C37 C 0.4345(10) 0.9354(5) 0.3908(3)
H30 H 0.3369 0.9571 0.3944
C38 C 0.5452(9) 0.9441(4) 0.4294(3)
H31 H 0.5243 0.9753 0.4592
C39 C 0.6778(10) 0.9122(4) 0.4277(3)
H32 H 0.7498 0.9206 0.4559
N7 N 1.5035(11) 0.2352(5) 0.8168(3)
C40 C 1.5754(9) 0.2749(4) 0.7778(3)
H33 H 1.6361 0.3152 0.7884
C41 C 1.5632(11) 0.2589(5) 0.7261(4)
H34 H 1.6113 0.2866 0.6984
C42 C 1.4689(9) 0.1947(4) 0.7143(3)
H35 H 1.4552 0.1786 0.6780
C43 C 1.4048(10) 0.1605(5) 0.7544(3)
H36 H 1.3471 0.1182 0.7463
C44 C 1.4154(9) 0.1815(5) 0.8065(3)
H37 H 1.3601 0.1576 0.8345
loop_
_geom_bond_atom_site_label_1
_geom_bond_atom_site_label_2
_geom_bond_site_symmetry_1
_geom_bond_site_symmetry_2
Cu1 O1 1_555 1_555
O1 C1 1_555 1_555
O2 C1 1_555 1_555
O3 C14 1_555 1_555
O4 C14 1_555 1_555
N1 Cu1 1_555 1_555
N2 Cu1 1_555 1_555
N3 Cu1 1_555 1_555
N4 H1 1_555 1_555
N5 C30 1_555 1_555
N6 C35 1_555 1_555
N7 C40 1_555 1_555
C1 C2 1_555 1_555
C2 C3 1_555 1_555
C3 H2 1_555 1_555
C4 C3 1_555 1_555
H3 C4 1_555 1_555
C5 N4 1_555 1_555
C6 C5 1_555 1_555
C7 C2 1_555 1_555
H4 C7 1_555 1_555
C8 H5 1_555 1_555
C9 C6 1_555 1_555
C10 N4 1_555 1_555
C11 C10 1_555 1_555
H6 C11 1_555 1_555
C12 C11 1_555 1_555
H7 C12 1_555 1_555
C13 C8 1_555 1_555
C14 C13 1_555 1_555
C15 N1 1_555 1_555
H8 C15 1_555 1_555
C16 C15 1_555 1_555
H9 C16 1_555 1_555
C17 C16 1_555 1_555
H10 C17 1_555 1_555
C18 C17 1_555 1_555
H11 C18 1_555 1_555
C19 N1 1_555 1_555
H12 C19 1_555 1_555
C20 N2 1_555 1_555
H13 C20 1_555 1_555
C21 C20 1_555 1_555
H14 C21 1_555 1_555
C22 C21 1_555 1_555
H15 C22 1_555 1_555
C23 C22 1_555 1_555
H16 C23 1_555 1_555
C24 N2 1_555 1_555
H17 C24 1_555 1_555
C25 N3 1_555 1_555
H18 C25 1_555 1_555
C26 C25 1_555 1_555
H19 C26 1_555 1_555
C27 C26 1_555 1_555
H20 C27 1_555 1_555
C28 C27 1_555 1_555
H21 C28 1_555 1_555
C29 N3 1_555 1_555
H22 C29 1_555 1_555
C30 H23 1_555 1_555
C31 C30 1_555 1_555
H24 C31 1_555 1_555
C32 C31 1_555 1_555
H25 C32 1_555 1_555
C33 C32 1_555 1_555
H26 C33 1_555 1_555
C34 N5 1_555 1_555
H27 C34 1_555 1_555
C35 H28 1_555 1_555
C36 C35 1_555 1_555
H29 C36 1_555 1_555
C37 C36 1_555 1_555
H30 C37 1_555 1_555
C38 C37 1_555 1_555
H31 C38 1_555 1_555
C39 N6 1_555 1_555
H32 C39 1_555 1_555
C40 H33 1_555 1_555
C41 C40 1_555 1_555
H34 C41 1_555 1_555
C42 C41 1_555 1_555
H35 C42 1_555 1_555
C43 C42 1_555 1_555
H36 C43 1_555 1_555
C44 N7 1_555 1_555
H37 C44 1_555 1_555
Cu1A O4 1_555 1_555
O4A Cu1 1_555 1_555
C4 C5 1_555 1_555
C6 C7 1_555 1_555
C8 C9 1_555 1_555
C9 C10 1_555 1_555
C12 C13 1_555 1_555
C18 C19 1_555 1_555
C23 C24 1_555 1_555
C28 C29 1_555 1_555
C33 C34 1_555 1_555
C38 C39 1_555 1_555
C43 C44 1_555 1_555

#END
