
#######################################################################
#
#                 Cambridge Crystallographic Data Centre
#                                CCDC 
#
#######################################################################
#
# If this CIF has been generated from an entry in the Cambridge 
# Structural Database, then it will include bibliographic, chemical, 
# crystal, experimental, refinement or atomic coordinate data resulting 
# from the CCDC's data processing and validation procedures.
#
#######################################################################

data_TAPXOZ
_symmetry_cell_setting           orthorhombic
_symmetry_space_group_name_H-M   'C m c 21'
_symmetry_Int_Tables_number      36
_space_group_name_Hall           'C 2n -2'
loop_
_symmetry_equiv_pos_site_id
_symmetry_equiv_pos_as_xyz
1 x,y,z
2 -x,-y,1/2+z
3 x,-y,1/2+z
4 -x,y,z
5 1/2+x,1/2+y,z
6 1/2-x,1/2-y,1/2+z
7 1/2+x,1/2-y,1/2+z
8 1/2-x,1/2+y,z
_cell_length_a                   26.9201(13)
_cell_length_b                   15.1196(5)
_cell_length_c                   7.2696(3)
_cell_angle_alpha                90
_cell_angle_beta                 90
_cell_angle_gamma                90
_cell_volume                     2958.88
loop_
_atom_site_label
_atom_site_type_symbol
_atom_site_fract_x
_atom_site_fract_y
_atom_site_fract_z
Tb1 Tb 0.5000 0.13659(3) 0.23029(11)
Na1 Na 0.0000 0.3206(5) 0.2192(12)
O1 O 0.4379(3) 0.2519(4) 0.2183(18)
O2 O 0.4579(4) 0.2175(7) 0.4808(11)
O3 O 0.2688(3) 0.4512(7) 0.6584(15)
O4 O 0.0545(2) 0.5322(5) 0.3334(13)
O5 O 0.0409(2) 0.3977(5) 0.4522(9)
C1 C 0.4293(4) 0.2538(7) 0.3752(12)
C2 C 0.3856(4) 0.3047(7) 0.4435(13)
C3 C 0.3515(5) 0.3393(10) 0.3279(16)
H1 H 0.3565 0.3339 0.2018
C4 C 0.3794(5) 0.3208(14) 0.636(2)
H2 H 0.4048 0.3009 0.7125
C5 C 0.3096(5) 0.3824(11) 0.390(2)
H3 H 0.2858 0.4044 0.3092
C6 C 0.3392(6) 0.3635(8) 0.725(4)
H4 H 0.3356 0.3720 0.8507
C7 C 0.3044(4) 0.3916(10) 0.582(2)
C8 C 0.2208(4) 0.4525(12) 0.5663(18)
C9 C 0.1998(4) 0.5361(7) 0.5357(16)
H5 H 0.2178 0.5883 0.5461
C10 C 0.1942(5) 0.3716(8) 0.556(2)
H6 H 0.2088 0.3174 0.5822
C11 C 0.1539(6) 0.5342(10) 0.4922(17)
H7 H 0.1381 0.5881 0.4734
C12 C 0.1445(5) 0.3794(8) 0.504(2)
H8 H 0.1248 0.3292 0.4917
C13 C 0.1257(5) 0.4584(6) 0.4709(13)
C14 C 0.0699(3) 0.4651(6) 0.4153(12)
Tb1_2 Tb -0.5000 0.13659(3) 0.23029(11)
Tb1D Tb 0.0000 0.63659(3) 0.23029(11)
Tb1E Tb 0.0000 0.36341(3) 0.73029(11)
Na1E Na -0.5000 0.1794(5) 0.7192(12)
Na1E_2 Na 0.5000 0.1794(5) 0.7192(12)
O1C O -0.4379(3) 0.2519(4) 0.2183(18)
O1C_2 O 0.5621(3) 0.2519(4) 0.2183(18)
O2C O -0.4579(4) 0.2175(7) 0.4808(11)
O2C_2 O 0.5421(4) 0.2175(7) 0.4808(11)
O2E O 0.0421(4) 0.2825(7) -0.0192(11)
O2F O -0.0421(4) 0.2825(7) -0.0192(11)
O3C O -0.2688(3) 0.4512(7) 0.6584(15)
O4C O -0.0545(2) 0.5322(5) 0.3334(13)
O4D O 0.5545(2) 0.0322(5) 0.3334(13)
O4G O 0.4455(2) 0.0322(5) 0.3334(13)
O5C O -0.0409(2) 0.3977(5) 0.4522(9)
O5E O 0.4591(2) 0.1023(5) -0.0478(9)
O5F O 0.5409(2) 0.1023(5) -0.0478(9)
C1C C -0.4293(4) 0.2538(7) 0.3752(12)
C1C_2 C 0.5707(4) 0.2538(7) 0.3752(12)
C2C C -0.3856(4) 0.3047(7) 0.4435(13)
C3C C -0.3515(5) 0.3393(10) 0.3279(16)
H1C H -0.3565 0.3339 0.2018
C4C C -0.3794(5) 0.3208(14) 0.636(2)
H2C H -0.4048 0.3009 0.7125
C5C C -0.3096(5) 0.3824(11) 0.390(2)
H3C H -0.2858 0.4044 0.3092
C6C C -0.3392(6) 0.3635(8) 0.725(4)
H4C H -0.3356 0.3720 0.8507
C7C C -0.3044(4) 0.3916(10) 0.582(2)
C8C C -0.2208(4) 0.4525(12) 0.5663(18)
C9C C -0.1998(4) 0.5361(7) 0.5357(16)
H5C H -0.2178 0.5883 0.5461
C10C C -0.1942(5) 0.3716(8) 0.556(2)
H6C H -0.2088 0.3174 0.5822
C11C C -0.1539(6) 0.5342(10) 0.4922(17)
H7C H -0.1381 0.5881 0.4734
C12C C -0.1445(5) 0.3794(8) 0.504(2)
H8C H -0.1248 0.3292 0.4917
C13C C -0.1257(5) 0.4584(6) 0.4709(13)
C14C C -0.0699(3) 0.4651(6) 0.4153(12)
loop_
_geom_bond_atom_site_label_1
_geom_bond_atom_site_label_2
_geom_bond_site_symmetry_1
_geom_bond_site_symmetry_2
Tb1 O1 1_555 1_555
Na1 O5 1_555 1_555
O1 C1 1_555 1_555
O2 Tb1 1_555 1_555
O3 C7 1_555 1_555
O4 C14 1_555 1_555
O5 C14 1_555 1_555
C1 O2 1_555 1_555
C2 C1 1_555 1_555
C3 C2 1_555 1_555
H1 C3 1_555 1_555
C4 C2 1_555 1_555
H2 C4 1_555 1_555
C5 C3 1_555 1_555
H3 C5 1_555 1_555
C6 C4 1_555 1_555
H4 C6 1_555 1_555
C7 C5 1_555 1_555
C8 O3 1_555 1_555
C9 C8 1_555 1_555
H5 C9 1_555 1_555
C10 C8 1_555 1_555
H6 C10 1_555 1_555
C11 C9 1_555 1_555
H7 C11 1_555 1_555
C12 C10 1_555 1_555
H8 C12 1_555 1_555
C13 C11 1_555 1_555
C14 C13 1_555 1_555
Tb1_2 O1C 1_555 1_555
Tb1D O4 1_555 1_555
Tb1E O5 1_555 1_555
Na1E O2C 1_555 1_555
Na1E_2 O2 1_555 1_555
O1C C1C 1_555 1_555
O1C_2 Tb1 1_555 1_555
O2C Tb1_2 1_555 1_555
O2C_2 Tb1 1_555 1_555
O2E Na1 1_555 1_555
O2F Na1 1_555 1_555
O3C C7C 1_555 1_555
O4C Tb1D 1_555 1_555
O4D Tb1 1_555 1_555
O4G Tb1 1_555 1_555
O5C Na1 1_555 1_555
O5E Tb1 1_555 1_555
O5F Tb1 1_555 1_555
C1C O2C 1_555 1_555
C1C_2 O1C_2 1_555 1_555
C2C C1C 1_555 1_555
C3C C2C 1_555 1_555
H1C C3C 1_555 1_555
C4C C2C 1_555 1_555
H2C C4C 1_555 1_555
C5C C3C 1_555 1_555
H3C C5C 1_555 1_555
C6C C4C 1_555 1_555
H4C C6C 1_555 1_555
C7C C5C 1_555 1_555
C8C O3C 1_555 1_555
C9C C8C 1_555 1_555
H5C C9C 1_555 1_555
C10C C8C 1_555 1_555
H6C C10C 1_555 1_555
C11C C9C 1_555 1_555
H7C C11C 1_555 1_555
C12C C10C 1_555 1_555
H8C C12C 1_555 1_555
C13C C11C 1_555 1_555
C14C O4C 1_555 1_555
C6 C7 1_555 1_555
C12 C13 1_555 1_555
Tb1E O5C 1_555 1_555
Na1E_2 O2C_2 1_555 1_555
O2C_2 C1C_2 1_555 1_555
O5C C14C 1_555 1_555
C6C C7C 1_555 1_555
C12C C13C 1_555 1_555
C13C C14C 1_555 1_555

#END
