
#######################################################################
#
#                 Cambridge Crystallographic Data Centre
#                                CCDC 
#
#######################################################################
#
# If this CIF has been generated from an entry in the Cambridge 
# Structural Database, then it will include bibliographic, chemical, 
# crystal, experimental, refinement or atomic coordinate data resulting 
# from the CCDC's data processing and validation procedures.
#
#######################################################################

data_TATSIS
_symmetry_cell_setting           monoclinic
_symmetry_space_group_name_H-M   'P 21'
_symmetry_Int_Tables_number      4
_space_group_name_Hall           'P 2yb'
loop_
_symmetry_equiv_pos_site_id
_symmetry_equiv_pos_as_xyz
1 x,y,z
2 -x,1/2+y,-z
_cell_length_a                   9.819(2)
_cell_length_b                   12.6499(13)
_cell_length_c                   11.0731(15)
_cell_angle_alpha                90
_cell_angle_beta                 99.852(17)
_cell_angle_gamma                90
_cell_volume                     1355.1
loop_
_atom_site_label
_atom_site_type_symbol
_atom_site_fract_x
_atom_site_fract_y
_atom_site_fract_z
C1 C 0.3479(13) 0.3352(10) 0.1022(11)
C2 C 0.3479(11) 0.2459(9) 0.0108(10)
C3 C -0.1046(10) 0.6093(7) 0.6003(8)
H1 H -0.1034 0.5414 0.6326
C4 C 0.1469(10) 0.5530(7) 0.0143(7)
H2 H 0.1485 0.4845 -0.0159
C5 C 0.4677(9) 0.2230(7) -0.0300(9)
H3 H 0.5456 0.2650 -0.0078
C6 C -0.1072(10) 0.6984(8) 0.6751(8)
H4 H -0.1029 0.6873 0.7587
C7 C 0.5926(11) 0.0331(8) 0.6018(9)
C8 C -0.0929(10) 0.5335(8) 0.3952(9)
C9 C 0.6025(12) 0.1250(10) 0.5131(11)
C10 C -0.1039(12) 0.6259(10) 0.4761(12)
C11 C 0.4815(8) 0.1798(7) 0.4667(8)
H5 H 0.3971 0.1606 0.4874
C12 C -0.1079(10) 0.7276(7) 0.4352(8)
H6 H -0.1055 0.7412 0.3531
C13 C 0.4716(10) 0.1336(7) -0.1071(9)
H7 H 0.5546 0.1152 -0.1314
C14 C 0.1526(9) 0.6360(8) -0.0667(8)
H8 H 0.1589 0.6230 -0.1482
C15 C -0.1154(9) 0.8087(7) 0.5131(8)
H9 H -0.1209 0.8767 0.4808
C16 C 0.7228(9) 0.2363(8) 0.3983(9)
H10 H 0.8053 0.2542 0.3728
C17 C 0.4917(9) 0.2637(7) 0.3887(8)
H11 H 0.4121 0.3018 0.3582
C18 C 0.2314(9) 0.1843(7) -0.0315(8)
H12 H 0.1472 0.1999 -0.0078
C19 C 0.1359(9) 0.7510(7) 0.0987(8)
H13 H 0.1284 0.8181 0.1312
C20 C 0.1337(9) 0.6661(7) 0.1723(8)
H14 H 0.1282 0.6768 0.2544
C21 C 0.7257(9) 0.1546(7) 0.4768(8)
H15 H 0.8077 0.1191 0.5058
C22 C 0.1534(13) 0.8324(10) -0.1090(10)
C23 C 0.2420(9) 0.1006(7) -0.1083(8)
H16 H 0.1635 0.0602 -0.1353
C24 C 0.1487(12) 0.7417(10) -0.0226(10)
Co1 Co 0.1272(2) 0.43368(14) 0.24923(17)
Co2 Co 0.6236(2) 0.43564(13) 0.25188(17)
N1 N -0.1154(9) 0.7980(7) 0.6348(8)
N2 N 0.6121(9) 0.2930(7) 0.3546(8)
N3 N 0.1393(9) 0.5650(7) 0.1303(8)
N4 N 0.3582(9) 0.0749(7) -0.1457(8)
O1 O 0.4448(8) 0.3945(6) 0.1248(7)
O2 O 0.7010(8) -0.0208(6) 0.6291(7)
O3 O 0.0152(8) 0.5256(6) 0.3544(7)
O4 O 0.4818(9) 0.0192(6) 0.6353(7)
O5 O -0.1938(8) 0.4677(6) 0.3743(7)
O6 O 0.2660(9) 0.8404(6) -0.1472(8)
O7 O 0.0525(9) 0.8911(6) -0.1263(8)
O8 O 0.2323(8) 0.3355(6) 0.1484(7)
Co1A Co -0.1272(2) 0.93368(14) -0.24923(17)
Co1A_2 Co -0.1272(2) 0.93368(14) 0.75077(17)
Co1A_3 Co 0.8728(2) -0.06632(14) 0.75077(17)
Co2_2 Co -0.3764(2) 0.43564(13) 0.25188(17)
Co2A Co 0.3764(2) -0.06436(13) -0.25188(17)
Co2A_2 Co 0.3764(2) -0.06436(13) 0.74812(17)
Co2A_3 Co 0.3764(2) 0.93564(13) -0.25188(17)
N1A N 0.1154(9) 0.2980(7) 0.3652(8)
N4A N 0.6418(9) 0.5749(7) 0.1457(8)
O2A O 0.2990(8) 0.4792(6) 0.3709(7)
O4A O 0.5182(9) 0.5192(6) 0.3647(7)
O5_2 O 0.8062(8) 0.4677(6) 0.3743(7)
O6A O 0.7340(9) 0.3404(6) 0.1472(8)
O7A O -0.0525(9) 0.3911(6) 0.1263(8)
C25 C 0.389(2) 0.4839(18) 0.7988(19)
O9 O 0.2530(12) 0.4350(9) 0.7474(9)
N5 N 0.4722(12) 0.4415(10) 0.7480(10)
C26 C 0.510(2) 0.375(2) 0.668(2)
C27 C 0.590(2) 0.4928(18) 0.824(2)
loop_
_geom_bond_atom_site_label_1
_geom_bond_atom_site_label_2
_geom_bond_site_symmetry_1
_geom_bond_site_symmetry_2
C1 C2 1_555 1_555
C2 C5 1_555 1_555
C3 H1 1_555 1_555
C4 H2 1_555 1_555
C5 H3 1_555 1_555
C6 C3 1_555 1_555
H4 C6 1_555 1_555
C7 C9 1_555 1_555
C8 C10 1_555 1_555
C9 C11 1_555 1_555
C10 C3 1_555 1_555
C11 H5 1_555 1_555
C12 C10 1_555 1_555
H6 C12 1_555 1_555
C13 C5 1_555 1_555
H7 C13 1_555 1_555
C14 C4 1_555 1_555
H8 C14 1_555 1_555
C15 C12 1_555 1_555
H9 C15 1_555 1_555
C16 H10 1_555 1_555
C17 C11 1_555 1_555
H11 C17 1_555 1_555
C18 C2 1_555 1_555
H12 C18 1_555 1_555
C19 H13 1_555 1_555
C20 C19 1_555 1_555
H14 C20 1_555 1_555
C21 C9 1_555 1_555
H15 C21 1_555 1_555
C22 C24 1_555 1_555
C23 C18 1_555 1_555
H16 C23 1_555 1_555
C24 C14 1_555 1_555
Co1 N3 1_555 1_555
Co2 N2 1_555 1_555
N1 C6 1_555 1_555
N2 C16 1_555 1_555
N3 C4 1_555 1_555
N4 C13 1_555 1_555
O1 C1 1_555 1_555
O2 C7 1_555 1_555
O3 C8 1_555 1_555
O4 C7 1_555 1_555
O5 C8 1_555 1_555
O6 C22 1_555 1_555
O7 C22 1_555 1_555
O8 C1 1_555 1_555
C25 O9 1_555 1_555
N5 C25 1_555 1_555
C26 N5 1_555 1_555
C27 N5 1_555 1_555
Co1A O7 1_555 1_555
Co1A_2 N1 1_555 1_555
Co1A_3 O2 1_555 1_555
Co2_2 O5 1_555 1_555
Co2A N4 1_555 1_555
Co2A_2 O4 1_555 1_555
Co2A_3 O6 1_555 1_555
N1A Co1 1_555 1_555
N4A Co2 1_555 1_555
O2A Co1 1_555 1_555
O4A Co2 1_555 1_555
O5_2 Co2 1_555 1_555
O6A Co2 1_555 1_555
O7A Co1 1_555 1_555
C15 N1 1_555 1_555
C16 C21 1_555 1_555
C17 N2 1_555 1_555
C19 C24 1_555 1_555
C20 N3 1_555 1_555
C23 N4 1_555 1_555
Co1 O3 1_555 1_555
Co1 O8 1_555 1_555
Co2 O1 1_555 1_555

#END
