
#######################################################################
#
#                 Cambridge Crystallographic Data Centre
#                                CCDC 
#
#######################################################################
#
# If this CIF has been generated from an entry in the Cambridge 
# Structural Database, then it will include bibliographic, chemical, 
# crystal, experimental, refinement or atomic coordinate data resulting 
# from the CCDC's data processing and validation procedures.
#
#######################################################################

data_TAXHUX
_symmetry_cell_setting           monoclinic
_symmetry_space_group_name_H-M   'C 2'
_symmetry_Int_Tables_number      5
_space_group_name_Hall           'C 2y'
loop_
_symmetry_equiv_pos_site_id
_symmetry_equiv_pos_as_xyz
1 x,y,z
2 -x,y,-z
3 1/2+x,1/2+y,z
4 1/2-x,1/2+y,-z
_cell_length_a                   25.302(7)
_cell_length_b                   4.9327(13)
_cell_length_c                   19.808(6)
_cell_angle_alpha                90
_cell_angle_beta                 107.377(8)
_cell_angle_gamma                90
_cell_volume                     2359.35
loop_
_atom_site_label
_atom_site_type_symbol
_atom_site_fract_x
_atom_site_fract_y
_atom_site_fract_z
Zn1 Zn 0.0000 0.9568(5) 0.0000
Zn2 Zn 0.0000 0.0701(5) 0.5000
Zn3 Zn 0.05890(5) 0.2927(3) 0.23723(6)
Zn4 Zn -0.05574(5) 0.7320(3) 0.26317(6)
P1 P -0.00784(12) 0.2539(9) 0.34901(16)
P2 P 0.01269(12) 0.7715(10) 0.15126(16)
O1 O 0.0416(3) 0.355(2) 0.3246(3)
O2 O -0.0628(3) 0.383(2) 0.3047(4)
O3 O 0.0043(3) 0.322(2) 0.4282(3)
O4 O -0.0112(3) -0.052(2) 0.3422(4)
O5 O -0.0004(3) 0.691(2) 0.0736(3)
O6 O 0.0678(3) 0.640(2) 0.1954(4)
O7 O -0.0348(3) 0.662(2) 0.1782(4)
O8 O 0.0164(4) 1.082(2) 0.1586(4)
N1 N 0.1334(3) 0.104(3) 0.2742(4)
H1 H 0.1326 -0.0049 0.3116
H2 H 0.1381 -0.0069 0.2391
C1 C 0.1820(4) 0.287(4) 0.2978(6)
H3 H 0.1768 0.4099 0.3347
H4 H 0.1840 0.3994 0.2573
C2 C 0.2373(4) 0.134(3) 0.3275(6)
H5 H 0.2445 0.0230 0.2896
H6 H 0.2347 0.0106 0.3658
C3 C 0.2856(4) 0.334(3) 0.3568(6)
H7 H 0.2899 0.4452 0.3172
H8 H 0.2760 0.4572 0.3907
C4 C 0.3400(4) 0.201(3) 0.3930(5)
H9 H 0.3525 0.0942 0.3582
H10 H 0.3355 0.0748 0.4298
C5 C 0.3835(4) 0.416(3) 0.4270(6)
H11 H 0.3889 0.5356 0.3894
H12 H 0.3695 0.5295 0.4592
N2 N 0.4373(3) 0.299(3) 0.4670(4)
H13 H 0.4471 0.1717 0.4392
H14 H 0.4330 0.2112 0.5060
N3 N 0.0636(3) 1.228(3) 0.0286(4)
H15 H 0.0641 1.3237 -0.0110
H16 H 0.0562 1.3490 0.0599
C6 C 0.1190(4) 1.114(3) 0.0610(6)
H17 H 0.1275 0.9896 0.0265
H18 H 0.1179 1.0046 0.1024
C7 C 0.1660(4) 1.317(3) 0.0850(5)
H19 H 0.1680 1.4242 0.0436
H20 H 0.1578 1.4432 0.1193
C8 C 0.2218(4) 1.187(3) 0.1188(6)
H21 H 0.2182 1.0623 0.1564
H22 H 0.2315 1.0759 0.0826
C9 C 0.2681(4) 1.376(3) 0.1501(6)
H23 H 0.2577 1.4939 0.1846
H24 H 0.2732 1.4941 0.1121
C10 C 0.3226(4) 1.242(3) 0.1869(6)
H25 H 0.3170 1.1205 0.2240
H26 H 0.3330 1.1261 0.1520
N4 N 0.3696(3) 1.422(3) 0.2199(5)
H27 H 0.3612 1.5206 0.2548
H28 H 0.3734 1.5434 0.1863
Zn2B Zn 0.5000 0.5701(5) 0.5000
Zn2_2 Zn 0.0000 1.0701(5) 0.5000
Zn2B_2 Zn -0.5000 0.5701(5) -0.5000
Zn3A Zn -0.05890(5) 0.2927(3) -0.23723(6)
Zn3_2 Zn 0.05890(5) 1.2927(3) 0.23723(6)
Zn3A_2 Zn -0.05890(5) 1.2927(3) -0.23723(6)
Zn4A Zn 0.05574(5) 0.7320(3) -0.26317(6)
Zn4_2 Zn -0.05574(5) -0.2680(3) 0.26317(6)
Zn4B Zn 0.44426(5) 1.2320(3) 0.26317(6)
Zn4C Zn -0.44426(5) 1.2320(3) -0.26317(6)
Zn4_3 Zn -0.05574(5) 1.7320(3) 0.26317(6)
P1_2 P -0.00784(12) 1.2539(9) 0.34901(16)
P2A P -0.01269(12) 0.7715(10) -0.15126(16)
O1_2 O 0.0416(3) 1.355(2) 0.3246(3)
O1A O -0.0416(3) 0.355(2) -0.3246(3)
O2_2 O -0.0628(3) 1.383(2) 0.3047(4)
O2A O 0.0628(3) 0.383(2) -0.3047(4)
O3_2 O 0.0043(3) 1.322(2) 0.4282(3)
O3A O -0.0043(3) 0.322(2) 0.5718(3)
O4_2 O -0.0112(3) 0.948(2) 0.3422(4)
O4A O 0.0112(3) 0.948(2) -0.3422(4)
O5A O 0.0004(3) 0.691(2) -0.0736(3)
O6A O -0.0678(3) 0.640(2) -0.1954(4)
O7A O 0.0348(3) 0.662(2) -0.1782(4)
O8A O -0.0164(4) 1.082(2) -0.1586(4)
O8_2 O 0.0164(4) 0.082(2) 0.1586(4)
O8A_2 O -0.0164(4) 0.082(2) -0.1586(4)
N1A N -0.1334(3) 0.104(3) -0.2742(4)
H1A H -0.1326 -0.0049 -0.3116
H2A H -0.1381 -0.0069 -0.2391
C1A C -0.1820(4) 0.287(4) -0.2978(6)
H3A H -0.1768 0.4099 -0.3347
H4A H -0.1840 0.3994 -0.2573
C2A C -0.2373(4) 0.134(3) -0.3275(6)
H5A H -0.2445 0.0230 -0.2896
H6A H -0.2347 0.0106 -0.3658
C3A C -0.2856(4) 0.334(3) -0.3568(6)
H7A H -0.2899 0.4452 -0.3172
H8A H -0.2760 0.4572 -0.3907
C4A C -0.3400(4) 0.201(3) -0.3930(5)
H9A H -0.3525 0.0942 -0.3582
H10A H -0.3355 0.0748 -0.4298
C5A C -0.3835(4) 0.416(3) -0.4270(6)
H11A H -0.3889 0.5356 -0.3894
H12A H -0.3695 0.5295 -0.4592
N2A N -0.4373(3) 0.299(3) -0.4670(4)
N2B N -0.0627(3) -0.201(3) 0.4670(4)
N2C N 0.0627(3) -0.201(3) 0.5330(4)
H13A H -0.4471 0.1717 -0.4392
H13B H -0.0529 -0.3283 0.4392
H13C H 0.0529 -0.3283 0.5608
H14A H -0.4330 0.2112 -0.5060
H14B H -0.0670 -0.2888 0.5060
H14C H 0.0670 -0.2888 0.4940
N3A N -0.0636(3) 1.228(3) -0.0286(4)
H15A H -0.0641 1.3237 0.0110
H16A H -0.0562 1.3490 -0.0599
C6A C -0.1190(4) 1.114(3) -0.0610(6)
H17A H -0.1275 0.9896 -0.0265
H18A H -0.1179 1.0046 -0.1024
C7A C -0.1660(4) 1.317(3) -0.0850(5)
H19A H -0.1680 1.4242 -0.0436
H20A H -0.1578 1.4432 -0.1193
C8A C -0.2218(4) 1.187(3) -0.1188(6)
H21A H -0.2182 1.0623 -0.1564
H22A H -0.2315 1.0759 -0.0826
C9A C -0.2681(4) 1.376(3) -0.1501(6)
H23A H -0.2577 1.4939 -0.1846
H24A H -0.2732 1.4941 -0.1121
C10A C -0.3226(4) 1.242(3) -0.1869(6)
H25A H -0.3170 1.1205 -0.2240
H26A H -0.3330 1.1261 -0.1520
N4A N -0.3696(3) 1.422(3) -0.2199(5)
N4B N -0.1304(3) 0.922(3) 0.2199(5)
N4C N 0.1304(3) 0.922(3) -0.2199(5)
H27A H -0.3612 1.5206 -0.2548
H27B H -0.1388 1.0206 0.2548
H27C H 0.1388 1.0206 -0.2548
H28A H -0.3734 1.5434 -0.1863
H28B H -0.1266 1.0434 0.1863
H28C H 0.1266 1.0434 -0.1863
O9 O 0.1001(3) 1.246(3) -0.1105(4)
H29 H 0.0893 1.4106 -0.1294
H30 H 0.0712 1.1400 -0.1332
O10 O 0.1063(3) 0.771(3) 0.3948(4)
H31 H 0.0816 0.8983 0.3998
H32 H 0.0842 0.6295 0.3762
O11 O 0.2758(3) 0.2091(19) 0.5260(4)
H33 H 0.3123 0.2465 0.5428
H34 H 0.2625 0.3592 0.5009
loop_
_geom_bond_atom_site_label_1
_geom_bond_atom_site_label_2
_geom_bond_site_symmetry_1
_geom_bond_site_symmetry_2
Zn1 O5 1_555 1_555
Zn2 O3 1_555 1_555
Zn3 O1 1_555 1_555
Zn4 O2 1_555 1_555
P1 O1 1_555 1_555
P2 O5 1_555 1_555
O2 P1 1_555 1_555
O3 P1 1_555 1_555
O4 P1 1_555 1_555
O6 Zn3 1_555 1_555
O7 Zn4 1_555 1_555
O8 P2 1_555 1_555
N1 Zn3 1_555 1_555
H1 N1 1_555 1_555
H2 N1 1_555 1_555
C1 N1 1_555 1_555
H3 C1 1_555 1_555
H4 C1 1_555 1_555
C2 C1 1_555 1_555
H5 C2 1_555 1_555
H6 C2 1_555 1_555
C3 C2 1_555 1_555
H7 C3 1_555 1_555
H8 C3 1_555 1_555
C4 C3 1_555 1_555
H9 C4 1_555 1_555
H10 C4 1_555 1_555
C5 C4 1_555 1_555
H11 C5 1_555 1_555
H12 C5 1_555 1_555
N2 C5 1_555 1_555
H13 N2 1_555 1_555
H14 N2 1_555 1_555
N3 Zn1 1_555 1_555
H15 N3 1_555 1_555
H16 N3 1_555 1_555
C6 N3 1_555 1_555
H17 C6 1_555 1_555
H18 C6 1_555 1_555
C7 C6 1_555 1_555
H19 C7 1_555 1_555
H20 C7 1_555 1_555
C8 C7 1_555 1_555
H21 C8 1_555 1_555
H22 C8 1_555 1_555
C9 C8 1_555 1_555
H23 C9 1_555 1_555
H24 C9 1_555 1_555
C10 C9 1_555 1_555
H25 C10 1_555 1_555
H26 C10 1_555 1_555
N4 C10 1_555 1_555
H27 N4 1_555 1_555
H28 N4 1_555 1_555
O9 H29 1_555 1_555
H30 O9 1_555 1_555
O10 H31 1_555 1_555
H32 O10 1_555 1_555
O11 H33 1_555 1_555
H34 O11 1_555 1_555
Zn2B N2 1_555 1_555
Zn2_2 O3_2 1_555 1_555
Zn2B_2 N2A 1_555 1_555
Zn3A O1A 1_555 1_555
Zn3_2 O8 1_555 1_555
Zn3A_2 O8A 1_555 1_555
Zn4A O2A 1_555 1_555
Zn4_2 O4 1_555 1_555
Zn4B N4 1_555 1_555
Zn4C N4A 1_555 1_555
Zn4_3 O2_2 1_555 1_555
P1_2 O1_2 1_555 1_555
P2A O5A 1_555 1_555
O1_2 Zn3_2 1_555 1_555
O2_2 P1_2 1_555 1_555
O3_2 P1_2 1_555 1_555
O3A Zn2 1_555 1_555
O4_2 Zn4 1_555 1_555
O4A Zn4A 1_555 1_555
O5A Zn1 1_555 1_555
O6A Zn3A 1_555 1_555
O7A Zn4A 1_555 1_555
O8A P2A 1_555 1_555
O8_2 Zn3 1_555 1_555
O8A_2 Zn3A 1_555 1_555
N1A Zn3A 1_555 1_555
H1A N1A 1_555 1_555
H2A N1A 1_555 1_555
C1A N1A 1_555 1_555
H3A C1A 1_555 1_555
H4A C1A 1_555 1_555
C2A C1A 1_555 1_555
H5A C2A 1_555 1_555
H6A C2A 1_555 1_555
C3A C2A 1_555 1_555
H7A C3A 1_555 1_555
H8A C3A 1_555 1_555
C4A C3A 1_555 1_555
H9A C4A 1_555 1_555
H10A C4A 1_555 1_555
C5A C4A 1_555 1_555
H11A C5A 1_555 1_555
H12A C5A 1_555 1_555
N2A C5A 1_555 1_555
N2B Zn2 1_555 1_555
N2C Zn2 1_555 1_555
H13A N2A 1_555 1_555
H13B N2B 1_555 1_555
H13C N2C 1_555 1_555
H14A N2A 1_555 1_555
H14B N2B 1_555 1_555
H14C N2C 1_555 1_555
N3A Zn1 1_555 1_555
H15A N3A 1_555 1_555
H16A N3A 1_555 1_555
C6A N3A 1_555 1_555
H17A C6A 1_555 1_555
H18A C6A 1_555 1_555
C7A C6A 1_555 1_555
H19A C7A 1_555 1_555
H20A C7A 1_555 1_555
C8A C7A 1_555 1_555
H21A C8A 1_555 1_555
H22A C8A 1_555 1_555
C9A C8A 1_555 1_555
H23A C9A 1_555 1_555
H24A C9A 1_555 1_555
C10A C9A 1_555 1_555
H25A C10A 1_555 1_555
H26A C10A 1_555 1_555
N4A C10A 1_555 1_555
N4B Zn4 1_555 1_555
N4C Zn4A 1_555 1_555
H27A N4A 1_555 1_555
H27B N4B 1_555 1_555
H27C N4C 1_555 1_555
H28A N4A 1_555 1_555
H28B N4B 1_555 1_555
H28C N4C 1_555 1_555
P2 O6 1_555 1_555
P2 O7 1_555 1_555
P1_2 O4_2 1_555 1_555
P2A O6A 1_555 1_555
P2A O7A 1_555 1_555

#END
