
#######################################################################
#
#                 Cambridge Crystallographic Data Centre
#                                CCDC 
#
#######################################################################
#
# If this CIF has been generated from an entry in the Cambridge 
# Structural Database, then it will include bibliographic, chemical, 
# crystal, experimental, refinement or atomic coordinate data resulting 
# from the CCDC's data processing and validation procedures.
#
#######################################################################

data_TEBYIK
_symmetry_cell_setting           monoclinic
_symmetry_space_group_name_H-M   'P 21/n'
_symmetry_Int_Tables_number      14
_space_group_name_Hall           '-P 2yn'
loop_
_symmetry_equiv_pos_site_id
_symmetry_equiv_pos_as_xyz
1 x,y,z
2 1/2-x,1/2+y,1/2-z
3 -x,-y,-z
4 1/2+x,1/2-y,1/2+z
_cell_length_a                   16.2527(16)
_cell_length_b                   6.0705(6)
_cell_length_c                   21.847(2)
_cell_angle_alpha                90
_cell_angle_beta                 96.496(2)
_cell_angle_gamma                90
_cell_volume                     2141.63
loop_
_atom_site_label
_atom_site_type_symbol
_atom_site_fract_x
_atom_site_fract_y
_atom_site_fract_z
Co1 Co 0.24055(5) 0.61615(13) 0.15152(3)
N1 N 0.3332(3) 0.4440(8) 0.1117(2)
N2 N 0.1385(3) 0.7427(8) 0.1931(2)
O1 O 0.2241(3) 0.3749(7) 0.21430(19)
O2 O -0.0154(3) 1.1726(8) 0.1961(2)
C1 C 0.1761(4) 0.4216(9) 0.2539(3)
C2 C 0.1202(4) 0.6160(10) 0.2401(3)
C3 C 0.0539(4) 0.6641(11) 0.2730(3)
H1 H 0.0415 0.5730 0.3050
C4 C 0.0072(4) 0.8490(12) 0.2574(3)
H2 H -0.0373 0.8851 0.2788
C5 C 0.0268(4) 0.9785(11) 0.2102(3)
C6 C 0.0933(4) 0.9230(10) 0.1786(3)
H3 H 0.1066 1.0131 0.1468
C7 C -0.0494(4) 1.2017(11) 0.1349(3)
C8 C -0.0894(5) 1.0380(13) 0.1017(3)
H4 H -0.0922 0.8980 0.1186
C9 C -0.0414(5) 1.4077(12) 0.1097(3)
H5 H -0.0124 1.5179 0.1326
C10 C 0.4078(4) 0.5252(11) 0.1047(3)
H6 H 0.4215 0.6639 0.1208
C11 C 0.4657(4) 0.4144(11) 0.0747(3)
H7 H 0.5172 0.4772 0.0713
C12 C 0.4459(4) 0.2064(11) 0.0495(3)
C13 C 0.5068(5) 0.0918(11) 0.0163(4)
H8 H 0.5594 0.1531 0.0182
C14 C 0.3699(4) 0.1210(11) 0.0579(3)
H9 H 0.3549 -0.0182 0.0427
C15 C 0.3152(4) 0.2425(11) 0.0890(3)
H10 H 0.2640 0.1813 0.0943
O3 O -0.2107(3) 1.1869(7) -0.07273(19)
O4 O -0.1513(3) 1.5121(8) -0.0726(2)
C16 C -0.0769(4) 1.4496(12) 0.0501(3)
H11 H -0.0713 1.5878 0.0326
C17 C -0.1206(4) 1.2859(10) 0.0166(3)
C18 C -0.1263(5) 1.0797(12) 0.0422(3)
H12 H -0.1549 0.9682 0.0196
C19 C -0.1628(4) 1.3328(10) -0.0466(3)
O5 O 0.1719(3) 0.3187(7) 0.30286(19)
Co1B Co 0.75945(5) -0.61615(13) -0.15152(3)
Co1B_2 Co -0.24055(5) 1.38385(13) -0.15152(3)
Co1A Co 0.25945(5) 0.11615(13) 0.34848(3)
Co1C Co -0.25945(5) 1.88385(13) -0.34848(3)
N1B N 0.6668(3) -0.4440(8) -0.1117(2)
N2B N -0.1385(3) 1.2573(8) -0.1931(2)
N2B_2 N 0.8615(3) -0.7427(8) -0.1931(2)
O1B O -0.2241(3) 1.6251(7) -0.21430(19)
O1B_2 O 0.7759(3) -0.3749(7) -0.21430(19)
O2B O 0.0154(3) 0.8274(8) -0.1961(2)
C1B C -0.1761(4) 1.5784(9) -0.2539(3)
C2B C -0.1202(4) 1.3840(10) -0.2401(3)
C3B C -0.0539(4) 1.3359(11) -0.2730(3)
H1B H -0.0415 1.4270 -0.3050
C4B C -0.0072(4) 1.1510(12) -0.2574(3)
H2B H 0.0373 1.1149 -0.2788
C5B C -0.0268(4) 1.0215(11) -0.2102(3)
C6B C -0.0933(4) 1.0770(10) -0.1786(3)
H3B H -0.1066 0.9869 -0.1468
C7B C 0.0494(4) 0.7983(11) -0.1349(3)
C8B C 0.0894(5) 0.9620(13) -0.1017(3)
H4B H 0.0922 1.1020 -0.1186
C9B C 0.0414(5) 0.5923(12) -0.1097(3)
H5B H 0.0124 0.4821 -0.1326
C10B C 0.5922(4) -0.5252(11) -0.1047(3)
H6B H 0.5785 -0.6639 -0.1208
C11B C 0.5343(4) -0.4144(11) -0.0747(3)
H7B H 0.4828 -0.4772 -0.0713
C12B C 0.5541(4) -0.2064(11) -0.0495(3)
C13B C 0.4932(5) -0.0918(11) -0.0163(4)
H8B H 0.4406 -0.1531 -0.0182
C14B C 0.6301(4) -0.1210(11) -0.0579(3)
H9B H 0.6451 0.0182 -0.0427
C15B C 0.6848(4) -0.2425(11) -0.0890(3)
H10B H 0.7360 -0.1813 -0.0943
O3B O 0.2107(3) 0.8131(7) 0.07273(19)
O3_2 O 0.7893(3) -0.8131(7) -0.07273(19)
O4B O 0.1513(3) 0.4879(8) 0.0726(2)
O4_2 O 0.8487(3) -0.4879(8) -0.0726(2)
C16B C 0.0769(4) 0.5504(12) -0.0501(3)
H11B H 0.0713 0.4122 -0.0326
C17B C 0.1206(4) 0.7141(10) -0.0166(3)
C18B C 0.1263(5) 0.9203(12) -0.0422(3)
H12B H 0.1549 1.0318 -0.0196
C19B C 0.1628(4) 0.6672(10) 0.0466(3)
O5B O -0.1719(3) 1.6813(7) -0.30286(19)
O5A O 0.3281(3) 0.8187(7) 0.19714(19)
O5C O 0.6719(3) -0.8187(7) -0.19714(19)
loop_
_geom_bond_atom_site_label_1
_geom_bond_atom_site_label_2
_geom_bond_site_symmetry_1
_geom_bond_site_symmetry_2
Co1 N1 1_555 1_555
N1 C10 1_555 1_555
N2 Co1 1_555 1_555
O1 Co1 1_555 1_555
O2 C5 1_555 1_555
C1 O1 1_555 1_555
C2 N2 1_555 1_555
C3 C2 1_555 1_555
H1 C3 1_555 1_555
C4 C3 1_555 1_555
H2 C4 1_555 1_555
C5 C4 1_555 1_555
C6 N2 1_555 1_555
H3 C6 1_555 1_555
C7 O2 1_555 1_555
C8 C7 1_555 1_555
H4 C8 1_555 1_555
C9 C7 1_555 1_555
H5 C9 1_555 1_555
C10 H6 1_555 1_555
C11 C10 1_555 1_555
H7 C11 1_555 1_555
C12 C11 1_555 1_555
C13 C12 1_555 1_555
H8 C13 1_555 1_555
C14 C12 1_555 1_555
H9 C14 1_555 1_555
C15 N1 1_555 1_555
H10 C15 1_555 1_555
O3 C19 1_555 1_555
O4 C19 1_555 1_555
C16 C9 1_555 1_555
H11 C16 1_555 1_555
C17 C16 1_555 1_555
C18 C8 1_555 1_555
H12 C18 1_555 1_555
C19 C17 1_555 1_555
O5 C1 1_555 1_555
Co1B N1B 1_555 1_555
Co1B_2 O3 1_555 1_555
Co1A O5 1_555 1_555
Co1C O5B 1_555 1_555
N1B C10B 1_555 1_555
N2B Co1B_2 1_555 1_555
N2B_2 Co1B 1_555 1_555
O1B Co1B_2 1_555 1_555
O1B_2 Co1B 1_555 1_555
O2B C5B 1_555 1_555
C1B O1B 1_555 1_555
C2B N2B 1_555 1_555
C3B C2B 1_555 1_555
H1B C3B 1_555 1_555
C4B C3B 1_555 1_555
H2B C4B 1_555 1_555
C5B C4B 1_555 1_555
C6B N2B 1_555 1_555
H3B C6B 1_555 1_555
C7B O2B 1_555 1_555
C8B C7B 1_555 1_555
H4B C8B 1_555 1_555
C9B C7B 1_555 1_555
H5B C9B 1_555 1_555
C10B H6B 1_555 1_555
C11B C10B 1_555 1_555
H7B C11B 1_555 1_555
C12B C11B 1_555 1_555
C13B C13 1_555 1_555
H8B C13B 1_555 1_555
C14B C12B 1_555 1_555
H9B C14B 1_555 1_555
C15B N1B 1_555 1_555
H10B C15B 1_555 1_555
O3B Co1 1_555 1_555
O3_2 Co1B 1_555 1_555
O4B Co1 1_555 1_555
O4_2 Co1B 1_555 1_555
C16B C9B 1_555 1_555
H11B C16B 1_555 1_555
C17B C16B 1_555 1_555
C18B C8B 1_555 1_555
H12B C18B 1_555 1_555
C19B O3B 1_555 1_555
O5B C1B 1_555 1_555
O5A Co1 1_555 1_555
O5C Co1B 1_555 1_555
C1 C2 1_555 1_555
C5 C6 1_555 1_555
C14 C15 1_555 1_555
O4 Co1B_2 1_555 1_555
C17 C18 1_555 1_555
C1B C2B 1_555 1_555
C5B C6B 1_555 1_555
C12B C13B 1_555 1_555
C14B C15B 1_555 1_555
O4B C19B 1_555 1_555
C17B C18B 1_555 1_555
C17B C19B 1_555 1_555

#END
