
#######################################################################
#
#                 Cambridge Crystallographic Data Centre
#                                CCDC 
#
#######################################################################
#
# If this CIF has been generated from an entry in the Cambridge 
# Structural Database, then it will include bibliographic, chemical, 
# crystal, experimental, refinement or atomic coordinate data resulting 
# from the CCDC's data processing and validation procedures.
#
#######################################################################

data_TEJQAC
_symmetry_cell_setting           orthorhombic
_symmetry_space_group_name_H-M   'P b c n'
_symmetry_Int_Tables_number      60
_space_group_name_Hall           '-P 2n 2ab'
loop_
_symmetry_equiv_pos_site_id
_symmetry_equiv_pos_as_xyz
1 x,y,z
2 1/2-x,1/2-y,1/2+z
3 1/2+x,1/2-y,-z
4 -x,y,1/2-z
5 -x,-y,-z
6 1/2+x,1/2+y,1/2-z
7 1/2-x,1/2+y,z
8 x,-y,1/2+z
_cell_length_a                   21.1570(8)
_cell_length_b                   24.0130(11)
_cell_length_c                   14.2140(13)
_cell_angle_alpha                90
_cell_angle_beta                 90
_cell_angle_gamma                90
_cell_volume                     7221.32
loop_
_atom_site_label
_atom_site_type_symbol
_atom_site_fract_x
_atom_site_fract_y
_atom_site_fract_z
Cu1 Cu 0.54575(6) 0.96476(6) 0.13017(11)
Cu2 Cu 1.19788(6) 0.82215(6) 0.07042(9)
C1 C 0.4734(5) 0.8565(6) 0.1263(10)
H1 H 0.4369 0.8781 0.1283
C2 C 0.4678(6) 0.7985(6) 0.1164(12)
H2 H 0.4284 0.7815 0.1117
C3 C 0.5224(6) 0.7675(6) 0.1137(13)
H3 H 0.5200 0.7291 0.1071
C4 C 0.5811(5) 0.7930(5) 0.1209(10)
H4 H 0.6180 0.7721 0.1181
C5 C 0.5832(5) 0.8496(5) 0.1322(9)
C6 C 0.6405(5) 0.8829(4) 0.1353(9)
C7 C 0.7025(5) 0.8620(5) 0.1359(9)
H5 H 0.7090 0.8237 0.1352
C8 C 0.7542(5) 0.8974(5) 0.1376(8)
C9 C 0.7406(5) 0.9546(5) 0.1386(8)
H6 H 0.7736 0.9801 0.1407
C10 C 0.6781(5) 0.9738(5) 0.1365(8)
C11 C 0.6573(5) 1.0314(5) 0.1347(8)
C12 C 0.6970(6) 1.0790(6) 0.1274(10)
H7 H 0.7407 1.0749 0.1267
C13 C 0.6711(7) 1.1296(6) 0.1215(11)
H8 H 0.6965 1.1608 0.1135
C14 C 0.6065(7) 1.1354(7) 0.1274(14)
H9 H 0.5879 1.1705 0.1262
C15 C 0.5723(6) 1.0914(5) 0.1346(12)
H10 H 0.5287 1.0964 0.1381
C16 C 0.8202(5) 0.8777(5) 0.1386(8)
C17 C 0.8343(5) 0.8235(6) 0.1628(9)
H11 H 0.8017 0.7999 0.1813
C18 C 0.8702(6) 0.9097(6) 0.1088(11)
H12 H 0.8626 0.9459 0.0889
C19 C 0.8942(5) 0.8035(6) 0.1605(9)
H13 H 0.9021 0.7669 0.1779
C20 C 0.9300(5) 0.8902(5) 0.1075(11)
H14 H 0.9629 0.9134 0.0891
C21 C 0.9420(5) 0.8364(6) 0.1332(8)
C22 C 1.0594(5) 0.8437(6) 0.1152(9)
H15 H 1.0638 0.8821 0.1113
C23 C 1.0785(6) 0.7578(7) 0.1205(11)
H16 H 1.1009 0.7245 0.1194
C24 C 0.4289(5) 1.0166(5) 0.0948(8)
C25 C 0.3603(5) 1.0232(5) 0.1081(8)
C26 C 0.3221(5) 0.9784(5) 0.1187(8)
H17 H 0.3395 0.9429 0.1219
C27 C 0.3342(6) 1.0770(6) 0.1049(10)
H18 H 0.3603 1.1076 0.0954
C28 C 0.2701(7) 1.0846(6) 0.1159(11)
H19 H 0.2529 1.1203 0.1181
C29 C 0.2302(6) 1.0363(7) 0.1237(10)
H20 H 0.1866 1.0405 0.1280
C30 C 0.2560(5) 0.9853(5) 0.1249(8)
C31 C 0.2140(6) 0.9332(7) 0.1283(9)
C32 C 1.2895(7) 0.7469(7) 0.0958(11)
C33 C 1.3304(5) 0.7060(4) 0.1474(7)
C34 C 1.3780(5) 0.6770(5) 0.1016(8)
H21 H 1.3864 0.6846 0.0387
C35 C 1.3211(4) 0.6952(4) 0.2425(7)
H22 H 1.2892 0.7138 0.2746
C36 C 1.4138(5) 0.6361(5) 0.1487(8)
H23 H 1.4441 0.6157 0.1163
C37 C 1.4038(5) 0.6268(5) 0.2422(9)
H24 H 1.4274 0.5999 0.2736
C38 C 1.3587(5) 0.6571(5) 0.2907(8)
C39 C 1.3475(7) 0.6484(7) 0.3950(9)
N1 N 0.5305(4) 0.8819(4) 0.1332(7)
N2 N 0.6317(4) 0.9377(4) 0.1375(7)
N3 N 0.5938(4) 1.0384(4) 0.1375(7)
N4 N 1.0049(4) 0.8157(4) 0.1270(7)
N5 N 1.0173(5) 0.7598(5) 0.1327(9)
N6 N 1.1058(4) 0.8063(5) 0.1100(7)
O1 O 0.4580(3) 0.9833(3) 0.1498(6)
O2 O 0.4564(4) 1.0474(3) 0.0349(6)
O3 O 0.2413(4) 0.8880(4) 0.1095(7)
O4 O 0.1571(4) 0.9385(5) 0.1482(8)
O5 O 1.2376(4) 0.7586(4) 0.1327(6)
O6 O 1.3130(5) 0.7713(5) 0.0286(8)
O7 O 1.3138(4) 0.6859(4) 0.4342(6)
O8 O 1.3707(8) 0.6088(6) 0.4351(9)
Cu1D Cu 0.45425(6) 1.03524(6) -0.13017(11)
Cu2_2 Cu 0.19788(6) 0.82215(6) 0.07042(9)
Cu2A Cu 1.30212(6) 0.67785(6) 0.57042(9)
O2D O 0.5436(4) 0.9526(3) -0.0349(6)
O3_2 O 1.2413(4) 0.8880(4) 0.1095(7)
O7A O 1.1862(4) 0.8141(4) -0.0658(6)
O9 O 0.0437(6) 0.9922(6) 0.1781(15)
H25 H 0.0779 0.9756 0.1641
H26 H 0.0356 1.0001 0.2351
O10 O 0.9606(12) 0.0329(10) 0.045(2)
H27 H 0.9239 0.0318 0.0689
H28 H 0.9873 0.0202 0.0841
loop_
_geom_bond_atom_site_label_1
_geom_bond_atom_site_label_2
_geom_bond_site_symmetry_1
_geom_bond_site_symmetry_2
Cu1 N1 1_555 1_555
Cu2 N6 1_555 1_555
C1 H1 1_555 1_555
C2 C1 1_555 1_555
H2 C2 1_555 1_555
C3 C2 1_555 1_555
H3 C3 1_555 1_555
C4 C3 1_555 1_555
H4 C4 1_555 1_555
C5 C4 1_555 1_555
C6 C5 1_555 1_555
C7 C6 1_555 1_555
H5 C7 1_555 1_555
C8 C7 1_555 1_555
C9 C8 1_555 1_555
H6 C9 1_555 1_555
C10 C9 1_555 1_555
C11 C10 1_555 1_555
C12 C11 1_555 1_555
H7 C12 1_555 1_555
C13 C12 1_555 1_555
H8 C13 1_555 1_555
C14 C13 1_555 1_555
H9 C14 1_555 1_555
C15 C14 1_555 1_555
H10 C15 1_555 1_555
C16 C8 1_555 1_555
C17 C16 1_555 1_555
H11 C17 1_555 1_555
C18 C16 1_555 1_555
H12 C18 1_555 1_555
C19 C17 1_555 1_555
H13 C19 1_555 1_555
C20 C18 1_555 1_555
H14 C20 1_555 1_555
C21 C19 1_555 1_555
C22 H15 1_555 1_555
C23 H16 1_555 1_555
C24 C25 1_555 1_555
C25 C26 1_555 1_555
C26 H17 1_555 1_555
C27 C25 1_555 1_555
H18 C27 1_555 1_555
C28 C27 1_555 1_555
H19 C28 1_555 1_555
C29 C28 1_555 1_555
H20 C29 1_555 1_555
C30 C26 1_555 1_555
C31 C30 1_555 1_555
C32 C33 1_555 1_555
C33 C34 1_555 1_555
C34 H21 1_555 1_555
C35 C33 1_555 1_555
H22 C35 1_555 1_555
C36 C34 1_555 1_555
H23 C36 1_555 1_555
C37 C36 1_555 1_555
H24 C37 1_555 1_555
C38 C35 1_555 1_555
C39 C38 1_555 1_555
N1 C1 1_555 1_555
N2 Cu1 1_555 1_555
N3 Cu1 1_555 1_555
N4 C21 1_555 1_555
N5 C23 1_555 1_555
N6 C22 1_555 1_555
O1 Cu1 1_555 1_555
O2 C24 1_555 1_555
O3 C31 1_555 1_555
O4 C31 1_555 1_555
O5 Cu2 1_555 1_555
O6 C32 1_555 1_555
O7 C39 1_555 1_555
O8 C39 1_555 1_555
O9 H25 1_555 1_555
H26 O9 1_555 1_555
O10 H27 1_555 1_555
H28 O10 1_555 1_555
Cu1D O2 1_555 1_555
Cu2_2 O3 1_555 1_555
Cu2A O7 1_555 1_555
O2D Cu1 1_555 1_555
O3_2 Cu2 1_555 1_555
O7A Cu2 1_555 1_555
C5 N1 1_555 1_555
C6 N2 1_555 1_555
C10 N2 1_555 1_555
C11 N3 1_555 1_555
C15 N3 1_555 1_555
C20 C21 1_555 1_555
C22 N4 1_555 1_555
C23 N6 1_555 1_555
C24 O1 1_555 1_555
C29 C30 1_555 1_555
C32 O5 1_555 1_555
C37 C38 1_555 1_555
N4 N5 1_555 1_555

#END
