
#######################################################################
#
#                 Cambridge Crystallographic Data Centre
#                                CCDC 
#
#######################################################################
#
# If this CIF has been generated from an entry in the Cambridge 
# Structural Database, then it will include bibliographic, chemical, 
# crystal, experimental, refinement or atomic coordinate data resulting 
# from the CCDC's data processing and validation procedures.
#
#######################################################################

data_TEMPAE
_symmetry_cell_setting           rhombohedral
_symmetry_space_group_name_H-M   'R -3 c'
_symmetry_Int_Tables_number      167
_space_group_name_Hall           '-R 3 2"c'
loop_
_symmetry_equiv_pos_site_id
_symmetry_equiv_pos_as_xyz
1 x,y,z
2 -y,x-y,z
3 -x+y,-x,z
4 y,x,1/2-z
5 x-y,-y,1/2-z
6 -x,-x+y,1/2-z
7 2/3+x,1/3+y,1/3+z
8 2/3-y,1/3+x-y,1/3+z
9 2/3-x+y,1/3-x,1/3+z
10 2/3+y,1/3+x,5/6-z
11 2/3+x-y,1/3-y,5/6-z
12 2/3-x,1/3-x+y,5/6-z
13 1/3+x,2/3+y,2/3+z
14 1/3-y,2/3+x-y,2/3+z
15 1/3-x+y,2/3-x,2/3+z
16 1/3+y,2/3+x,1/6-z
17 1/3+x-y,2/3-y,1/6-z
18 1/3-x,2/3-x+y,1/6-z
19 -x,-y,-z
20 y,-x+y,-z
21 x-y,x,-z
22 -y,-x,1/2+z
23 -x+y,y,1/2+z
24 x,x-y,1/2+z
25 1/3-x,2/3-y,2/3-z
26 1/3+y,2/3-x+y,2/3-z
27 1/3+x-y,2/3+x,2/3-z
28 1/3-y,2/3-x,1/6+z
29 1/3-x+y,2/3+y,1/6+z
30 1/3+x,2/3+x-y,1/6+z
31 2/3-x,1/3-y,1/3-z
32 2/3+y,1/3-x+y,1/3-z
33 2/3+x-y,1/3+x,1/3-z
34 2/3-y,1/3-x,5/6+z
35 2/3-x+y,1/3+y,5/6+z
36 2/3+x,1/3+x-y,5/6+z
_cell_length_a                   22.7345(13)
_cell_length_b                   22.7345(13)
_cell_length_c                   64.308(7)
_cell_angle_alpha                90
_cell_angle_beta                 90
_cell_angle_gamma                120
_cell_volume                     28785
loop_
_atom_site_label
_atom_site_type_symbol
_atom_site_fract_x
_atom_site_fract_y
_atom_site_fract_z
C1 C -0.0366(2) -0.1402(2) 0.04434(7)
C2 C -0.0562(3) -0.1963(2) 0.02915(7)
C3 C -0.0930(4) -0.2632(3) 0.03600(9)
H1 H -0.1015 -0.2730 0.0501
C4 C -0.1169(4) -0.3153(3) 0.02135(10)
C5 C -0.1038(3) -0.3016(3) 0.00060(8)
C6 C -0.0642(3) -0.2340(3) -0.00632(8)
C7 C -0.0413(2) -0.1822(2) 0.00838(7)
H2 H -0.0156 -0.1373 0.0041
C8 C -0.1582(8) -0.3890(4) 0.02876(13)
H3 H -0.1513 -0.4179 0.0194
H4 H -0.2056 -0.4025 0.0290
H5 H -0.1438 -0.3927 0.0425
C9 C -0.0468(4) -0.2166(3) -0.02900(9)
H6 H -0.0401 -0.1721 -0.0317
H7 H -0.0834 -0.2492 -0.0375
H8 H -0.0060 -0.2174 -0.0323
C10 C -0.2342(3) -0.5161(4) -0.06040(11)
C11 C -0.1994(3) -0.4591(3) -0.04461(9)
C12 C -0.2309(3) -0.4255(3) -0.03709(10)
H9 H -0.2743 -0.4379 -0.0418
C13 C -0.2001(3) -0.3743(3) -0.02294(10)
C14 C -0.1372(3) -0.3571(3) -0.01533(8)
C15 C -0.1042(3) -0.3918(4) -0.02211(11)
C16 C -0.1350(3) -0.4434(4) -0.03707(11)
H10 H -0.1136 -0.4665 -0.0419
C17 C -0.2364(5) -0.3369(4) -0.01569(16)
H11 H -0.2478 -0.3463 -0.0013
H12 H -0.2071 -0.2889 -0.0176
H13 H -0.2771 -0.3518 -0.0237
C18 C -0.0319(5) -0.3715(5) -0.01493(18)
H14 H -0.0343 -0.3986 -0.0032
H15 H -0.0081 -0.3787 -0.0261
H16 H -0.0081 -0.3244 -0.0111
C19 C -0.0940(13) -0.2421(7) 0.1017(3)
C20 C -0.0997(14) -0.2834(14) 0.1362(5)
C21 C -0.1716(15) -0.3673(14) 0.1231(7)
C22 C -0.0383(12) -0.0731(12) 0.1382(2)
C23 C -0.0939(15) -0.064(3) 0.1742(4)
N1 N -0.1211(14) -0.2999(10) 0.1140(4)
N2 N -0.0627(10) -0.0452(10) 0.1529(3)
O1 O -0.0534(2) -0.15377(17) 0.06318(5)
O2 O -0.00446(19) -0.08024(16) 0.03687(5)
O3 O -0.2032(3) -0.5490(3) -0.06469(9)
O4 O -0.2956(2) -0.5299(4) -0.06533(10)
O5 O 0.0000 0.0000 0.07841(7)
O6 O -0.0588(6) -0.1806(6) 0.10861(16)
O7 O -0.0107(6) -0.0394(6) 0.12123(14)
Zn1 Zn 0.0000 0.0000 0.048529(11)
Zn2 Zn -0.03230(2) -0.09266(2) 0.087623(8)
C1B C -0.1036(3) 0.0366(2) 0.04434(7)
C1A C 0.1402(2) 0.1036(3) 0.04434(7)
C2B C -0.1401(4) 0.0562(3) 0.02915(7)
C2A C 0.1963(2) 0.1401(4) 0.02915(7)
C3B C -0.1702(5) 0.0930(4) 0.03600(9)
C3A C 0.2632(3) 0.1702(5) 0.03600(9)
H1B H -0.1715 0.1015 0.0501
H1A H 0.2730 0.1715 0.0501
C4B C -0.1984(5) 0.1169(4) 0.02135(10)
C4A C 0.3153(3) 0.1984(5) 0.02135(10)
C5B C -0.1978(4) 0.1038(3) 0.00060(8)
C5A C 0.3016(3) 0.1978(4) 0.00060(8)
C6B C -0.1698(4) 0.0642(3) -0.00632(8)
C6A C 0.2340(3) 0.1698(4) -0.00632(8)
C7B C -0.1409(3) 0.0413(2) 0.00838(7)
C7A C 0.1822(2) 0.1409(3) 0.00838(7)
H2B H -0.1217 0.0156 0.0041
H2A H 0.1373 0.1217 0.0041
C8B C -0.2308(9) 0.1582(8) 0.02876(13)
C8A C 0.3890(4) 0.2308(9) 0.02876(13)
H3B H -0.2666 0.1513 0.0194
H3A H 0.4179 0.2666 0.0194
H4B H -0.1969 0.2056 0.0290
H4A H 0.4025 0.1969 0.0290
H5B H -0.2489 0.1438 0.0425
H5A H 0.3927 0.2489 0.0425
C9B C -0.1698(5) 0.0468(4) -0.02900(9)
C9A C 0.2166(3) 0.1698(5) -0.02900(9)
H6B H -0.1320 0.0401 -0.0317
H6A H 0.1721 0.1320 -0.0317
H7B H -0.1658 0.0834 -0.0375
H7A H 0.2492 0.1658 -0.0375
H8B H -0.2114 0.0060 -0.0323
H8A H 0.2174 0.2114 -0.0323
C10B C -0.2819(5) 0.2342(3) -0.06040(11)
C10A C 0.5161(4) 0.2819(5) -0.06040(11)
C11B C -0.2597(4) 0.1994(3) -0.04461(9)
C11A C 0.4591(3) 0.2597(4) -0.04461(9)
C12B C -0.1946(4) 0.2309(3) -0.03709(10)
C12A C 0.4255(3) 0.1946(4) -0.03709(10)
H9B H -0.1636 0.2743 -0.0418
H9A H 0.4379 0.1636 -0.0418
C13B C -0.1742(4) 0.2001(3) -0.02294(10)
C13A C 0.3743(3) 0.1742(4) -0.02294(10)
C14B C -0.2199(4) 0.1372(3) -0.01533(8)
C14A C 0.3571(3) 0.2199(4) -0.01533(8)
C15B C -0.2876(5) 0.1042(3) -0.02211(11)
C15A C 0.3918(4) 0.2876(5) -0.02211(11)
C16B C -0.3084(5) 0.1350(3) -0.03707(11)
C16A C 0.4434(4) 0.3084(5) -0.03707(11)
H10B H -0.3529 0.1136 -0.0419
H10A H 0.4665 0.3529 -0.0419
C17B C -0.1005(6) 0.2364(5) -0.01569(16)
C17A C 0.3369(4) 0.1005(6) -0.01569(16)
H11B H -0.0985 0.2478 -0.0013
H11A H 0.3463 0.0985 -0.0013
H12B H -0.0818 0.2071 -0.0176
H12A H 0.2889 0.0818 -0.0176
H13B H -0.0747 0.2771 -0.0237
H13A H 0.3518 0.0747 -0.0237
C18B C -0.3396(7) 0.0319(5) -0.01493(18)
C18A C 0.3715(5) 0.3396(7) -0.01493(18)
H14B H -0.3643 0.0343 -0.0032
H14A H 0.3986 0.3643 -0.0032
H15B H -0.3706 0.0081 -0.0261
H15A H 0.3787 0.3706 -0.0261
H16B H -0.3163 0.0081 -0.0111
H16A H 0.3244 0.3163 -0.0111
C19B C -0.1481(15) 0.0940(13) 0.1017(3)
C19A C 0.2421(7) 0.1481(15) 0.1017(3)
C20B C -0.1837(20) 0.0997(14) 0.1362(5)
C20A C 0.2834(14) 0.1837(20) 0.1362(5)
C21B C -0.1957(21) 0.1716(15) 0.1231(7)
C21A C 0.3673(14) 0.1957(21) 0.1231(7)
C22B C -0.0348(17) 0.0383(12) 0.1382(2)
C22A C 0.0731(12) 0.0348(17) 0.1382(2)
C23A C 0.064(3) -0.0299(34) 0.1742(4)
C23B C 0.0299(34) 0.0939(15) 0.1742(4)
N1B N -0.1788(17) 0.1211(14) 0.1140(4)
N1A N 0.2999(10) 0.1788(17) 0.1140(4)
N2B N 0.0175(14) 0.0627(10) 0.1529(3)
N2A N 0.0452(10) -0.0175(14) 0.1529(3)
O1B O -0.10037(26) 0.0534(2) 0.06318(5)
O1A O 0.15377(17) 0.10037(26) 0.06318(5)
O2B O -0.07578(25) 0.00446(19) 0.03687(5)
O2A O 0.08024(16) 0.07578(25) 0.03687(5)
O3B O -0.3458(4) 0.2032(3) -0.06469(9)
O3A O 0.5490(3) 0.3458(4) -0.06469(9)
O3AA O -0.1177(3) -0.1301(3) 0.10198(9)
O3BA O -0.0125(4) 0.1177(3) 0.10198(9)
O3CA O 0.1301(3) 0.0125(4) 0.10198(9)
O4B O -0.2343(4) 0.2956(2) -0.06533(10)
O4A O 0.5299(4) 0.2343(4) -0.06533(10)
O4CA O 0.0377(2) -0.0990(4) 0.10134(10)
O4AA O -0.1368(4) -0.0377(2) 0.10134(10)
O4BA O 0.0990(4) 0.1368(4) 0.10134(10)
O6B O -0.1218(8) 0.0588(6) 0.10861(16)
O6A O 0.1806(6) 0.1218(8) 0.10861(16)
O7A O 0.0394(6) 0.0287(8) 0.12123(14)
O7B O -0.0287(8) 0.0107(6) 0.12123(14)
Zn2B Zn -0.06036(3) 0.03230(2) 0.087623(8)
Zn2A Zn 0.09266(2) 0.06036(3) 0.087623(8)
Zn2GA Zn -0.24067(2) -0.63437(2) -0.079044(8)
Zn2IA Zn -0.36563(2) -0.60631(3) -0.079044(8)
Zn2HA Zn -0.39369(3) 0.24067(2) -0.079044(8)
Zn2GA_2 Zn -0.24067(2) 0.36563(2) -0.079044(8)
Zn2IA_2 Zn 0.63437(2) 0.39369(3) -0.079044(8)
Zn2HA_2 Zn 0.60631(3) 0.24067(2) -0.079044(8)
loop_
_geom_bond_atom_site_label_1
_geom_bond_atom_site_label_2
_geom_bond_site_symmetry_1
_geom_bond_site_symmetry_2
C1 C2 1_555 1_555
C2 C3 1_555 1_555
C3 H1 1_555 1_555
C4 C3 1_555 1_555
C5 C4 1_555 1_555
C6 C5 1_555 1_555
C7 C2 1_555 1_555
H2 C7 1_555 1_555
C8 C4 1_555 1_555
H3 C8 1_555 1_555
H4 C8 1_555 1_555
H5 C8 1_555 1_555
C9 C6 1_555 1_555
H6 C9 1_555 1_555
H7 C9 1_555 1_555
H8 C9 1_555 1_555
C10 C11 1_555 1_555
C11 C12 1_555 1_555
C12 H9 1_555 1_555
C13 C12 1_555 1_555
C14 C5 1_555 1_555
C15 C14 1_555 1_555
C16 C11 1_555 1_555
H10 C16 1_555 1_555
C17 C13 1_555 1_555
H11 C17 1_555 1_555
H12 C17 1_555 1_555
H13 C17 1_555 1_555
C18 C15 1_555 1_555
H14 C18 1_555 1_555
H15 C18 1_555 1_555
H16 C18 1_555 1_555
C19 N1 1_555 1_555
C20 N1 1_555 1_555
C21 N1 1_555 1_555
C22 N2 1_555 1_555
C23 N2 1_555 1_555
N2 C22B 1_555 1_555
O1 C1 1_555 1_555
O2 C1 1_555 1_555
O3 C10 1_555 1_555
O4 C10 1_555 1_555
O5 Zn1 1_555 1_555
O6 C19 1_555 1_555
O7 C22 1_555 1_555
Zn1 O2 1_555 1_555
Zn2 O1 1_555 1_555
C1B C2B 1_555 1_555
C1A C2A 1_555 1_555
C2B C3B 1_555 1_555
C2A C3A 1_555 1_555
C3B H1B 1_555 1_555
C3A H1A 1_555 1_555
C4B C3B 1_555 1_555
C4A C3A 1_555 1_555
C5B C4B 1_555 1_555
C5A C4A 1_555 1_555
C6B C5B 1_555 1_555
C6A C5A 1_555 1_555
C7B C2B 1_555 1_555
C7A C2A 1_555 1_555
H2B C7B 1_555 1_555
H2A C7A 1_555 1_555
C8B C4B 1_555 1_555
C8A C4A 1_555 1_555
H3B C8B 1_555 1_555
H3A C8A 1_555 1_555
H4B C8B 1_555 1_555
H4A C8A 1_555 1_555
H5B C8B 1_555 1_555
H5A C8A 1_555 1_555
C9B C6B 1_555 1_555
C9A C6A 1_555 1_555
H6B C9B 1_555 1_555
H6A C9A 1_555 1_555
H7B C9B 1_555 1_555
H7A C9A 1_555 1_555
H8B C9B 1_555 1_555
H8A C9A 1_555 1_555
C10B C11B 1_555 1_555
C10A C11A 1_555 1_555
C11B C12B 1_555 1_555
C11A C12A 1_555 1_555
C12B H9B 1_555 1_555
C12A H9A 1_555 1_555
C13B C12B 1_555 1_555
C13A C12A 1_555 1_555
C14B C5B 1_555 1_555
C14A C5A 1_555 1_555
C15B C14B 1_555 1_555
C15A C14A 1_555 1_555
C16B C11B 1_555 1_555
C16A C11A 1_555 1_555
H10B C16B 1_555 1_555
H10A C16A 1_555 1_555
C17B C13B 1_555 1_555
C17A C13A 1_555 1_555
H11B C17B 1_555 1_555
H11A C17A 1_555 1_555
H12B C17B 1_555 1_555
H12A C17A 1_555 1_555
H13B C17B 1_555 1_555
H13A C17A 1_555 1_555
C18B C15B 1_555 1_555
C18A C15A 1_555 1_555
H14B C18B 1_555 1_555
H14A C18A 1_555 1_555
H15B C18B 1_555 1_555
H15A C18A 1_555 1_555
H16B C18B 1_555 1_555
H16A C18A 1_555 1_555
C19B N1B 1_555 1_555
C19A N1A 1_555 1_555
C20B N1B 1_555 1_555
C20A N1A 1_555 1_555
C21B N1B 1_555 1_555
C21A N1A 1_555 1_555
C22B N2B 1_555 1_555
C22A N2B 1_555 1_555
C23A N2A 1_555 1_555
C23B N2B 1_555 1_555
N2A C22 1_555 1_555
O1B C1B 1_555 1_555
O1A C1A 1_555 1_555
O2B Zn1 1_555 1_555
O2A Zn1 1_555 1_555
O3B C10B 1_555 1_555
O3A C10A 1_555 1_555
O3AA Zn2 1_555 1_555
O3BA Zn2B 1_555 1_555
O3CA Zn2A 1_555 1_555
O4B C10B 1_555 1_555
O4A C10A 1_555 1_555
O4CA Zn2 1_555 1_555
O4AA Zn2B 1_555 1_555
O4BA Zn2A 1_555 1_555
O6B C19B 1_555 1_555
O6A C19A 1_555 1_555
O7A O7 1_555 1_555
O7B O7 1_555 1_555
Zn2B O5 1_555 1_555
Zn2A O5 1_555 1_555
Zn2GA O3 1_555 1_555
Zn2IA O4 1_555 1_555
Zn2HA O3B 1_555 1_555
Zn2GA_2 O4B 1_555 1_555
Zn2IA_2 O3A 1_555 1_555
Zn2HA_2 O4A 1_555 1_555
C6 C7 1_555 1_555
C13 C14 1_555 1_555
C15 C16 1_555 1_555
O5 Zn2 1_555 1_555
O6 Zn2 1_555 1_555
O7 Zn2 1_555 1_555
C1B O2B 1_555 1_555
C1A O2A 1_555 1_555
C6B C7B 1_555 1_555
C6A C7A 1_555 1_555
C13B C14B 1_555 1_555
C13A C14A 1_555 1_555
C15B C16B 1_555 1_555
C15A C16A 1_555 1_555
C22B O7B 1_555 1_555
C22A N2A 1_555 1_555
C22A O7A 1_555 1_555
O1B Zn2B 1_555 1_555
O1A Zn2A 1_555 1_555
O6B Zn2B 1_555 1_555
O6A Zn2A 1_555 1_555
O7A O7B 1_555 1_555
O7A Zn2A 1_555 1_555
O7B Zn2B 1_555 1_555

#END
