
#######################################################################
#
#                 Cambridge Crystallographic Data Centre
#                                CCDC 
#
#######################################################################
#
# If this CIF has been generated from an entry in the Cambridge 
# Structural Database, then it will include bibliographic, chemical, 
# crystal, experimental, refinement or atomic coordinate data resulting 
# from the CCDC's data processing and validation procedures.
#
#######################################################################

data_TEQTEQ
_symmetry_cell_setting           monoclinic
_symmetry_space_group_name_H-M   'P 21/c'
_symmetry_Int_Tables_number      14
_space_group_name_Hall           '-P 2ybc'
loop_
_symmetry_equiv_pos_site_id
_symmetry_equiv_pos_as_xyz
1 x,y,z
2 -x,1/2+y,1/2-z
3 -x,-y,-z
4 x,1/2-y,1/2+z
_cell_length_a                   9.1726(18)
_cell_length_b                   18.956(4)
_cell_length_c                   16.748(3)
_cell_angle_alpha                90
_cell_angle_beta                 102.13(3)
_cell_angle_gamma                90
_cell_volume                     2847.06
loop_
_atom_site_label
_atom_site_type_symbol
_atom_site_fract_x
_atom_site_fract_y
_atom_site_fract_z
Mn1 Mn 0.18163(4) 0.437875(18) 0.02118(2)
S1 S 0.02007(7) 0.66637(3) -0.18452(4)
S2 S 0.43300(7) 0.24042(4) 0.21005(4)
O1 O 0.02932(18) 0.55778(9) -0.05911(10)
O2 O 0.23198(17) 0.50175(8) -0.07639(10)
O3 O 0.26070(19) 0.35509(9) 0.11585(12)
O4 O 0.39831(19) 0.37043(9) 0.02431(11)
N1 N -0.0698(2) 0.85970(10) -0.42478(12)
N2 N 0.2146(2) 0.65203(11) -0.27320(13)
N3 N 0.7207(2) 0.02151(10) 0.38687(12)
N4 N 0.6444(2) 0.19204(11) 0.14771(13)
C1 C -0.1091(3) 0.85192(14) -0.35371(18)
H1 H -0.1769 0.8839 -0.3403
C2 C -0.0559(3) 0.79923(15) -0.29806(17)
H2 H -0.0869 0.7964 -0.2488
C3 C 0.0449(3) 0.75048(13) -0.31710(15)
C4 C 0.0889(3) 0.76016(15) -0.38948(18)
H3 H 0.1593 0.7301 -0.4040
C5 C 0.0295(3) 0.81404(16) -0.44071(18)
H4 H 0.0610 0.8188 -0.4897
C6 C 0.1023(3) 0.69122(13) -0.26308(15)
C7 C 0.1462(2) 0.59806(12) -0.16261(14)
C8 C 0.2416(3) 0.59916(13) -0.21508(15)
C9 C 0.1360(3) 0.54947(12) -0.09512(14)
C10 C 0.3685(3) 0.54979(15) -0.21564(18)
H5 H 0.4109 0.5353 -0.1608
H6 H 0.4431 0.5733 -0.2384
H7 H 0.3328 0.5091 -0.2481
C11 C 0.6185(3) 0.06918(13) 0.39743(14)
H8 H 0.5805 0.0668 0.4447
C12 C 0.5672(3) 0.12161(13) 0.34139(15)
H9 H 0.4959 0.1535 0.3512
C13 C 0.6218(3) 0.12680(12) 0.27039(15)
C14 C 0.7248(3) 0.07591(14) 0.25854(16)
H10 H 0.7626 0.0762 0.2112
C15 C 0.7699(3) 0.02543(13) 0.31712(16)
H11 H 0.8386 -0.0080 0.3079
C16 C 0.5763(3) 0.18246(12) 0.20853(16)
C17 C 0.4657(3) 0.27954(13) 0.12304(15)
C18 C 0.5822(3) 0.24680(13) 0.09885(16)
C19 C 0.3701(3) 0.33940(13) 0.08519(16)
C20 C 0.6435(3) 0.26393(16) 0.02534(17)
H12 H 0.5776 0.2460 -0.0226
H13 H 0.7400 0.2426 0.0306
H14 H 0.6523 0.3142 0.0208
Mn1B Mn -0.18163(4) 0.562125(18) -0.02118(2)
Mn1A Mn -0.18163(4) 0.937875(18) -0.52118(2)
Mn1A_2 Mn 0.81837(4) -0.062125(18) 0.47882(2)
Mn1C Mn -0.81837(4) 1.062125(18) -0.47882(2)
Mn1C_2 Mn 0.18163(4) 0.062125(18) 0.52118(2)
S1B S -0.02007(7) 0.33363(3) 0.18452(4)
S2B S -0.43300(7) 0.75958(4) -0.21005(4)
O1B O -0.02932(18) 0.44222(9) 0.05911(10)
O2B O -0.23198(17) 0.49825(8) 0.07639(10)
O3B O -0.26070(19) 0.64491(9) -0.11585(12)
O4B O -0.39831(19) 0.62957(9) -0.02431(11)
N1B N 0.0698(2) 0.14030(10) 0.42478(12)
N1A N 0.0698(2) 0.35970(10) -0.07522(12)
N1C N -0.0698(2) 0.64030(10) 0.07522(12)
N2B N -0.2146(2) 0.34797(11) 0.27320(13)
N3B N -0.7207(2) 0.97849(10) -0.38687(12)
N3A N 0.2793(2) 0.52151(10) 0.11313(12)
N3C N -0.2793(2) 0.47849(10) -0.11313(12)
N4B N -0.6444(2) 0.80796(11) -0.14771(13)
C1B C 0.1091(3) 0.14808(14) 0.35371(18)
H1B H 0.1769 0.1161 0.3403
C2B C 0.0559(3) 0.20077(15) 0.29806(17)
H2B H 0.0869 0.2036 0.2488
C3B C -0.0449(3) 0.24952(13) 0.31710(15)
C4B C -0.0889(3) 0.23984(15) 0.38948(18)
H3B H -0.1593 0.2699 0.4040
C5B C -0.0295(3) 0.18596(16) 0.44071(18)
H4B H -0.0610 0.1812 0.4897
C6B C -0.1023(3) 0.30878(13) 0.26308(15)
C7B C -0.1462(2) 0.40194(12) 0.16261(14)
C8B C -0.2416(3) 0.40084(13) 0.21508(15)
C9B C -0.1360(3) 0.45053(12) 0.09512(14)
C10B C -0.3685(3) 0.45021(15) 0.21564(18)
H5B H -0.4109 0.4647 0.1608
H6B H -0.4431 0.4267 0.2384
H7B H -0.3328 0.4909 0.2481
C11B C -0.6185(3) 0.93082(13) -0.39743(14)
H8B H -0.5805 0.9332 -0.4447
C12B C -0.5672(3) 0.87839(13) -0.34139(15)
H9B H -0.4959 0.8465 -0.3512
C13B C -0.6218(3) 0.87320(12) -0.27039(15)
C14B C -0.7248(3) 0.92409(14) -0.25854(16)
H10B H -0.7626 0.9238 -0.2112
C15B C -0.7699(3) 0.97457(13) -0.31712(16)
H11B H -0.8386 1.0080 -0.3079
C16B C -0.5763(3) 0.81754(12) -0.20853(16)
C17B C -0.4657(3) 0.72046(13) -0.12304(15)
C18B C -0.5822(3) 0.75320(13) -0.09885(16)
C19B C -0.3701(3) 0.66060(13) -0.08519(16)
C20B C -0.6435(3) 0.73607(16) -0.02534(17)
H12B H -0.5776 0.7540 0.0226
H13B H -0.7400 0.7574 -0.0306
H14B H -0.6523 0.6858 -0.0208
loop_
_geom_bond_atom_site_label_1
_geom_bond_atom_site_label_2
_geom_bond_site_symmetry_1
_geom_bond_site_symmetry_2
Mn1 O2 1_555 1_555
S1 C6 1_555 1_555
S2 C16 1_555 1_555
O1 C9 1_555 1_555
O2 C9 1_555 1_555
O3 Mn1 1_555 1_555
O4 Mn1 1_555 1_555
N1 C1 1_555 1_555
N2 C6 1_555 1_555
N3 C11 1_555 1_555
N4 C16 1_555 1_555
C1 H1 1_555 1_555
C2 C1 1_555 1_555
H2 C2 1_555 1_555
C3 C2 1_555 1_555
C4 C3 1_555 1_555
H3 C4 1_555 1_555
C5 N1 1_555 1_555
H4 C5 1_555 1_555
C6 C3 1_555 1_555
C7 S1 1_555 1_555
C8 N2 1_555 1_555
C9 C7 1_555 1_555
C10 C8 1_555 1_555
H5 C10 1_555 1_555
H6 C10 1_555 1_555
H7 C10 1_555 1_555
C11 H8 1_555 1_555
C12 C11 1_555 1_555
H9 C12 1_555 1_555
C13 C12 1_555 1_555
C14 C13 1_555 1_555
H10 C14 1_555 1_555
C15 N3 1_555 1_555
H11 C15 1_555 1_555
C16 C13 1_555 1_555
C17 S2 1_555 1_555
C18 N4 1_555 1_555
C19 O3 1_555 1_555
C20 C18 1_555 1_555
H12 C20 1_555 1_555
H13 C20 1_555 1_555
H14 C20 1_555 1_555
Mn1B O1 1_555 1_555
Mn1A N1 1_555 1_555
Mn1A_2 N3 1_555 1_555
Mn1C N3B 1_555 1_555
Mn1C_2 N1B 1_555 1_555
S1B C6B 1_555 1_555
S2B C16B 1_555 1_555
O1B Mn1 1_555 1_555
O2B Mn1B 1_555 1_555
O3B Mn1B 1_555 1_555
O4B Mn1B 1_555 1_555
N1B C1B 1_555 1_555
N1A Mn1 1_555 1_555
N1C Mn1B 1_555 1_555
N2B C6B 1_555 1_555
N3B C11B 1_555 1_555
N3A Mn1 1_555 1_555
N3C Mn1B 1_555 1_555
N4B C16B 1_555 1_555
C1B H1B 1_555 1_555
C2B C1B 1_555 1_555
H2B C2B 1_555 1_555
C3B C2B 1_555 1_555
C4B C3B 1_555 1_555
H3B C4B 1_555 1_555
C5B N1B 1_555 1_555
H4B C5B 1_555 1_555
C6B C3B 1_555 1_555
C7B S1B 1_555 1_555
C8B N2B 1_555 1_555
C9B O1B 1_555 1_555
C10B C8B 1_555 1_555
H5B C10B 1_555 1_555
H6B C10B 1_555 1_555
H7B C10B 1_555 1_555
C11B H8B 1_555 1_555
C12B C11B 1_555 1_555
H9B C12B 1_555 1_555
C13B C12B 1_555 1_555
C14B C13B 1_555 1_555
H10B C14B 1_555 1_555
C15B N3B 1_555 1_555
H11B C15B 1_555 1_555
C16B C13B 1_555 1_555
C17B S2B 1_555 1_555
C18B N4B 1_555 1_555
C19B O3B 1_555 1_555
C20B C18B 1_555 1_555
H12B C20B 1_555 1_555
H13B C20B 1_555 1_555
H14B C20B 1_555 1_555
O4 C19 1_555 1_555
C4 C5 1_555 1_555
C7 C8 1_555 1_555
C14 C15 1_555 1_555
C17 C18 1_555 1_555
C17 C19 1_555 1_555
O2B C9B 1_555 1_555
O4B C19B 1_555 1_555
C4B C5B 1_555 1_555
C7B C8B 1_555 1_555
C7B C9B 1_555 1_555
C14B C15B 1_555 1_555
C17B C18B 1_555 1_555
C17B C19B 1_555 1_555

#END
