
#######################################################################
#
#                 Cambridge Crystallographic Data Centre
#                                CCDC 
#
#######################################################################
#
# If this CIF has been generated from an entry in the Cambridge 
# Structural Database, then it will include bibliographic, chemical, 
# crystal, experimental, refinement or atomic coordinate data resulting 
# from the CCDC's data processing and validation procedures.
#
#######################################################################

data_TESGOO
_symmetry_cell_setting           monoclinic
_symmetry_space_group_name_H-M   'P 21/c'
_symmetry_Int_Tables_number      14
_space_group_name_Hall           '-P 2ybc'
loop_
_symmetry_equiv_pos_site_id
_symmetry_equiv_pos_as_xyz
1 x,y,z
2 -x,1/2+y,1/2-z
3 -x,-y,-z
4 x,1/2-y,1/2+z
_cell_length_a                   11.3108(2)
_cell_length_b                   9.8274(2)
_cell_length_c                   18.1577(5)
_cell_angle_alpha                90
_cell_angle_beta                 126.9960(10)
_cell_angle_gamma                90
_cell_volume                     1612
loop_
_atom_site_label
_atom_site_type_symbol
_atom_site_fract_x
_atom_site_fract_y
_atom_site_fract_z
Zn1 Zn 0.37463(5) 0.08071(5) 0.13250(3)
Zn2 Zn 0.57184(5) -0.10555(5) 0.31324(3)
Zn3 Zn 0.5000 0.0000 0.0000
Zn4 Zn 0.0000 0.0000 0.0000
O1 O 0.4362(3) 0.2030(3) 0.2456(2)
O2 O 0.5510(3) 0.0638(3) 0.3689(2)
O3 O 0.5887(3) -0.0034(3) 0.2196(2)
O4 O 0.6795(3) -0.0008(3) 0.1392(2)
O5 O 0.4576(3) 0.2577(3) 0.1102(2)
O6 O 0.4872(3) 0.2109(3) 0.0016(2)
O7 O 0.3443(3) -0.0806(3) 0.1958(2)
O8 O 0.0990(3) -0.0986(3) 0.1241(2)
O9 O 0.3389(3) -0.0225(3) 0.0234(2)
O10 O 0.1196(3) -0.1166(3) -0.0305(2)
O11 O 0.1620(3) 0.1568(3) 0.0598(2)
O12 O 0.2032(3) 0.3806(3) 0.0918(2)
C1 C 0.4978(4) 0.1761(4) 0.3299(3)
H1 H 0.5041 0.2482 0.3669
C2 C 0.6920(5) -0.0148(4) 0.2116(3)
H2 H 0.7877 -0.0359 0.2658
C3 C 0.4778(4) 0.2899(4) 0.0510(3)
H3 H 0.4866 0.3842 0.0438
C4 C 0.2302(5) -0.1250(5) 0.1871(3)
H4 H 0.2479 -0.1846 0.2340
C5 C 0.2287(5) -0.1019(4) -0.0296(3)
H5 H 0.2315 -0.1547 -0.0724
C6 C 0.1214(5) 0.2812(4) 0.0510(3)
H6 H 0.0182 0.2989 0.0088
Zn1B Zn 0.62537(5) -0.08071(5) -0.13250(3)
Zn1A Zn 0.62537(5) -0.41929(5) 0.36750(3)
Zn1B_2 Zn -0.37463(5) -0.08071(5) -0.13250(3)
Zn2B Zn 0.42816(5) 0.10555(5) -0.31324(3)
Zn2A Zn 0.42816(5) 0.39445(5) 0.18676(3)
Zn2C Zn 0.57184(5) -0.39445(5) -0.18676(3)
Zn2A_2 Zn 0.42816(5) -0.60555(5) 0.18676(3)
Zn2B_2 Zn -0.57184(5) 0.10555(5) -0.31324(3)
Zn4_2 Zn 1.0000 0.0000 0.0000
Zn4C Zn 1.0000 -0.5000 0.5000
O1A O 0.5638(3) -0.2970(3) 0.2544(2)
O1B O 0.5638(3) -0.2030(3) -0.2456(2)
O1C O 0.4362(3) 0.2970(3) -0.2544(2)
O2A O 0.4490(3) -0.4362(3) 0.1311(2)
O2B O 0.4490(3) -0.0638(3) -0.3689(2)
O3B O 0.4113(3) 0.0034(3) -0.2196(2)
O4B O 0.3205(3) 0.0008(3) -0.1392(2)
O5B O 0.5424(3) -0.2577(3) -0.1102(2)
O5A O 0.5424(3) -0.2423(3) 0.3898(2)
O5C O 0.4576(3) 0.2423(3) -0.3898(2)
O6B O 0.5128(3) -0.2109(3) -0.0016(2)
O7B O -0.3443(3) 0.0806(3) -0.1958(2)
O7B_2 O 0.6557(3) 0.0806(3) -0.1958(2)
O8B O -0.0990(3) 0.0986(3) -0.1241(2)
O9B O 0.6611(3) 0.0225(3) -0.0234(2)
O10B O 0.8804(3) 0.1166(3) 0.0305(2)
O10B_2 O -0.1196(3) 0.1166(3) 0.0305(2)
O11A O 0.8380(3) -0.3432(3) 0.4402(2)
O11B O -0.1620(3) -0.1568(3) -0.0598(2)
O11B_2 O 0.8380(3) -0.1568(3) -0.0598(2)
O12A O 0.7968(3) -0.1194(3) 0.4082(2)
O12C O 0.2032(3) 0.1194(3) -0.4082(2)
C1A C 0.5022(4) -0.3239(4) 0.1701(3)
H1A H 0.4959 -0.2518 0.1331
C2B C 0.3080(5) 0.0148(4) -0.2116(3)
H2B H 0.2123 0.0359 -0.2658
C3B C 0.5222(4) -0.2899(4) -0.0510(3)
H3B H 0.5134 -0.3842 -0.0438
C4B C -0.2302(5) 0.1250(5) -0.1871(3)
H4B H -0.2479 0.1846 -0.2340
C5B C 0.7713(5) 0.1019(4) 0.0296(3)
H5B H 0.7685 0.1547 0.0724
C6A C 0.8786(5) -0.2188(4) 0.4490(3)
H6A H 0.9818 -0.2011 0.4912
I1 I -0.06062(4) -0.30494(4) 0.21402(3)
I2 I -0.14818(4) -0.53994(4) 0.12015(3)
loop_
_geom_bond_atom_site_label_1
_geom_bond_atom_site_label_2
_geom_bond_site_symmetry_1
_geom_bond_site_symmetry_2
Zn1 O1 1_555 1_555
Zn2 O2 1_555 1_555
Zn3 O4 1_555 1_555
Zn4 O8 1_555 1_555
O1 C1 1_555 1_555
O2 C1 1_555 1_555
O3 Zn1 1_555 1_555
O4 C2 1_555 1_555
O5 Zn1 1_555 1_555
O6 Zn3 1_555 1_555
O7 Zn1 1_555 1_555
O8 C4 1_555 1_555
O9 Zn1 1_555 1_555
O10 Zn4 1_555 1_555
O11 Zn1 1_555 1_555
O12 C6 1_555 1_555
C1 H1 1_555 1_555
C2 O3 1_555 1_555
H2 C2 1_555 1_555
C3 O5 1_555 1_555
H3 C3 1_555 1_555
C4 O7 1_555 1_555
H4 C4 1_555 1_555
C5 O9 1_555 1_555
H5 C5 1_555 1_555
C6 O11 1_555 1_555
H6 C6 1_555 1_555
I1 I2 1_555 1_555
Zn1B O1B 1_555 1_555
Zn1A O1A 1_555 1_555
Zn1B_2 O7B 1_555 1_555
Zn2B O1C 1_555 1_555
Zn2A O1 1_555 1_555
Zn2C O1B 1_555 1_555
Zn2A_2 O2A 1_555 1_555
Zn2B_2 O7B 1_555 1_555
Zn4_2 O10B 1_555 1_555
Zn4C O11A 1_555 1_555
O1A Zn2 1_555 1_555
O2A C1A 1_555 1_555
O2B Zn2B 1_555 1_555
O3B Zn1B 1_555 1_555
O4B Zn3 1_555 1_555
O5B Zn1B 1_555 1_555
O5A Zn2 1_555 1_555
O5C Zn2B 1_555 1_555
O6B Zn3 1_555 1_555
O7B C4B 1_555 1_555
O7B_2 Zn1B 1_555 1_555
O8B Zn4 1_555 1_555
O9B Zn3 1_555 1_555
O10B C5B 1_555 1_555
O10B_2 Zn4 1_555 1_555
O11A Zn1A 1_555 1_555
O11B Zn4 1_555 1_555
O11B_2 Zn1B 1_555 1_555
O12A Zn2 1_555 1_555
O12C Zn2B 1_555 1_555
C1A O1A 1_555 1_555
H1A C1A 1_555 1_555
C2B O3B 1_555 1_555
H2B C2B 1_555 1_555
C3B O5B 1_555 1_555
H3B C3B 1_555 1_555
C4B O8B 1_555 1_555
H4B C4B 1_555 1_555
C5B O9B 1_555 1_555
H5B C5B 1_555 1_555
C6A O11A 1_555 1_555
H6A C6A 1_555 1_555
Zn2 O3 1_555 1_555
Zn2 O7 1_555 1_555
Zn3 O9 1_555 1_555
Zn4 O11 1_555 1_555
O5 Zn2A 1_555 1_555
O6 C3 1_555 1_555
O10 C5 1_555 1_555
O12 Zn2A 1_555 1_555
Zn1B O9B 1_555 1_555
Zn1A O5A 1_555 1_555
Zn1B_2 O11B 1_555 1_555
Zn2B O3B 1_555 1_555
Zn2B O7B_2 1_555 1_555
Zn2C O5B 1_555 1_555
Zn4_2 O11B_2 1_555 1_555
O4B C2B 1_555 1_555
O6B C3B 1_555 1_555
O12A C6A 1_555 1_555

#END
