
#######################################################################
#
#                 Cambridge Crystallographic Data Centre
#                                CCDC 
#
#######################################################################
#
# If this CIF has been generated from an entry in the Cambridge 
# Structural Database, then it will include bibliographic, chemical, 
# crystal, experimental, refinement or atomic coordinate data resulting 
# from the CCDC's data processing and validation procedures.
#
#######################################################################

data_TESHAB
_symmetry_cell_setting           monoclinic
_symmetry_space_group_name_H-M   'P 21/c'
_symmetry_Int_Tables_number      14
_space_group_name_Hall           '-P 2ybc'
loop_
_symmetry_equiv_pos_site_id
_symmetry_equiv_pos_as_xyz
1 x,y,z
2 -x,1/2+y,1/2-z
3 -x,-y,-z
4 x,1/2-y,1/2+z
_cell_length_a                   11.3647(2)
_cell_length_b                   9.9781(2)
_cell_length_c                   18.7044(5)
_cell_angle_alpha                90
_cell_angle_beta                 126.4130(10)
_cell_angle_gamma                90
_cell_volume                     1706.93
loop_
_atom_site_label
_atom_site_type_symbol
_atom_site_fract_x
_atom_site_fract_y
_atom_site_fract_z
Zn1 Zn 0.37783(4) 0.06976(3) 0.13241(2)
Zn2 Zn 0.56088(4) -0.12463(3) 0.30279(2)
Zn3 Zn 0.5000 0.0000 0.0000
Zn4 Zn 0.0000 0.0000 0.0000
O1 O 0.4417(2) 0.18466(19) 0.24777(13)
O2 O 0.5487(2) 0.03952(19) 0.36147(13)
O3 O 0.5825(2) -0.02126(19) 0.21346(13)
O4 O 0.6712(2) -0.0272(2) 0.13384(14)
O5 O 0.4701(2) 0.24571(19) 0.12076(13)
O6 O 0.5127(2) 0.20558(19) 0.01965(14)
O7 O 0.3406(2) -0.09456(18) 0.18834(13)
O8 O 0.0992(2) -0.1320(2) 0.10644(13)
O9 O 0.3351(2) -0.01943(19) 0.02046(13)
O10 O 0.1059(2) -0.09415(19) -0.04478(14)
O11 O 0.1691(2) 0.14559(18) 0.06968(13)
O12 O 0.2160(2) 0.36372(19) 0.10792(13)
C1 C 0.5019(3) 0.1525(3) 0.3280(2)
H1 H 0.5124 0.2214 0.3664
C2 C 0.6829(3) -0.0392(3) 0.2032(2)
H2 H 0.7764 -0.0645 0.2546
C3 C 0.5086(3) 0.2792(3) 0.0713(2)
H3 H 0.5368 0.3699 0.0746
C4 C 0.2272(3) -0.1563(3) 0.1688(2)
H4 H 0.2426 -0.2290 0.2063
C5 C 0.2201(3) -0.0853(3) -0.0384(2)
H5 H 0.2231 -0.1320 -0.0815
C6 C 0.1321(3) 0.2677(3) 0.0678(2)
H6 H 0.0303 0.2865 0.0323
Zn1B Zn 0.62217(4) -0.06976(3) -0.13241(2)
Zn1A Zn 0.62217(4) -0.43024(3) 0.36759(2)
Zn1B_2 Zn -0.37783(4) -0.06976(3) -0.13241(2)
Zn2B Zn 0.43912(4) 0.12463(3) -0.30279(2)
Zn2A Zn 0.43912(4) 0.37537(3) 0.19721(2)
Zn2C Zn 0.56088(4) -0.37537(3) -0.19721(2)
Zn2A_2 Zn 0.43912(4) -0.62463(3) 0.19721(2)
Zn2B_2 Zn -0.56088(4) 0.12463(3) -0.30279(2)
Zn4_2 Zn 1.0000 0.0000 0.0000
Zn4C Zn 1.0000 -0.5000 0.5000
O1A O 0.5583(2) -0.31534(19) 0.25223(13)
O1B O 0.5583(2) -0.18466(19) -0.24777(13)
O1C O 0.4417(2) 0.31534(19) -0.25223(13)
O2A O 0.4513(2) -0.46048(19) 0.13853(13)
O2B O 0.4513(2) -0.03952(19) -0.36147(13)
O3B O 0.4175(2) 0.02126(19) -0.21346(13)
O4B O 0.3288(2) 0.0272(2) -0.13384(14)
O5B O 0.5299(2) -0.24571(19) -0.12076(13)
O5A O 0.5299(2) -0.25429(19) 0.37924(13)
O5C O 0.4701(2) 0.25429(19) -0.37924(13)
O6B O 0.4873(2) -0.20558(19) -0.01965(14)
O7B O -0.3406(2) 0.09456(18) -0.18834(13)
O7B_2 O 0.6594(2) 0.09456(18) -0.18834(13)
O8B O -0.0992(2) 0.1320(2) -0.10644(13)
O9B O 0.6649(2) 0.01943(19) -0.02046(13)
O10B O 0.8941(2) 0.09415(19) 0.04478(14)
O10B_2 O -0.1059(2) 0.09415(19) 0.04478(14)
O11A O 0.8309(2) -0.35441(18) 0.43032(13)
O11B O -0.1691(2) -0.14559(18) -0.06968(13)
O11B_2 O 0.8309(2) -0.14559(18) -0.06968(13)
O12A O 0.7840(2) -0.13628(19) 0.39208(13)
O12C O 0.2160(2) 0.13628(19) -0.39208(13)
C1A C 0.4981(3) -0.3475(3) 0.1720(2)
H1A H 0.4876 -0.2786 0.1336
C2B C 0.3171(3) 0.0392(3) -0.2032(2)
H2B H 0.2236 0.0645 -0.2546
C3B C 0.4914(3) -0.2792(3) -0.0713(2)
H3B H 0.4632 -0.3699 -0.0746
C4B C -0.2272(3) 0.1563(3) -0.1688(2)
H4B H -0.2426 0.2290 -0.2063
C5B C 0.7799(3) 0.0853(3) 0.0384(2)
H5B H 0.7769 0.1320 0.0815
C6A C 0.8679(3) -0.2323(3) 0.4322(2)
H6A H 0.9697 -0.2135 0.4677
C7 C 0.1788(4) 0.3969(4) -0.0896(3)
H7 H 0.2130 0.3350 -0.0424
C8 C 0.1262(4) 0.5198(4) -0.0874(2)
H8 H 0.1270 0.5440 -0.0380
C9 C 0.0722(4) 0.6079(3) -0.1572(2)
H9 H 0.0342 0.6922 -0.1563
C10 C 0.0732(4) 0.5741(3) -0.2280(2)
H10 H 0.0353 0.6347 -0.2762
C11 C 0.1301(4) 0.4502(3) -0.2290(2)
H11 H 0.1327 0.4269 -0.2773
C12 C 0.1821(4) 0.3631(3) -0.1598(2)
H12 H 0.2207 0.2788 -0.1602
loop_
_geom_bond_atom_site_label_1
_geom_bond_atom_site_label_2
_geom_bond_site_symmetry_1
_geom_bond_site_symmetry_2
Zn1 O1 1_555 1_555
Zn2 O2 1_555 1_555
Zn3 O4 1_555 1_555
Zn4 O8 1_555 1_555
O1 C1 1_555 1_555
O2 C1 1_555 1_555
O3 Zn1 1_555 1_555
O4 C2 1_555 1_555
O5 Zn1 1_555 1_555
O6 Zn3 1_555 1_555
O7 Zn1 1_555 1_555
O8 C4 1_555 1_555
O9 Zn1 1_555 1_555
O10 Zn4 1_555 1_555
O11 Zn1 1_555 1_555
O12 C6 1_555 1_555
C1 H1 1_555 1_555
C2 O3 1_555 1_555
H2 C2 1_555 1_555
C3 O5 1_555 1_555
H3 C3 1_555 1_555
C4 O7 1_555 1_555
H4 C4 1_555 1_555
C5 O9 1_555 1_555
H5 C5 1_555 1_555
C6 O11 1_555 1_555
H6 C6 1_555 1_555
C7 H7 1_555 1_555
C8 C7 1_555 1_555
H8 C8 1_555 1_555
C9 C8 1_555 1_555
H9 C9 1_555 1_555
C10 C9 1_555 1_555
H10 C10 1_555 1_555
C11 C10 1_555 1_555
H11 C11 1_555 1_555
C12 C7 1_555 1_555
H12 C12 1_555 1_555
Zn1B O1B 1_555 1_555
Zn1A O1A 1_555 1_555
Zn1B_2 O7B 1_555 1_555
Zn2B O1C 1_555 1_555
Zn2A O1 1_555 1_555
Zn2C O1B 1_555 1_555
Zn2A_2 O2A 1_555 1_555
Zn2B_2 O7B 1_555 1_555
Zn4_2 O10B 1_555 1_555
Zn4C O11A 1_555 1_555
O1A Zn2 1_555 1_555
O2A C1A 1_555 1_555
O2B Zn2B 1_555 1_555
O3B Zn1B 1_555 1_555
O4B Zn3 1_555 1_555
O5B Zn1B 1_555 1_555
O5A Zn2 1_555 1_555
O5C Zn2B 1_555 1_555
O6B Zn3 1_555 1_555
O7B C4B 1_555 1_555
O7B_2 Zn1B 1_555 1_555
O8B Zn4 1_555 1_555
O9B Zn3 1_555 1_555
O10B C5B 1_555 1_555
O10B_2 Zn4 1_555 1_555
O11A Zn1A 1_555 1_555
O11B Zn4 1_555 1_555
O11B_2 Zn1B 1_555 1_555
O12A Zn2 1_555 1_555
O12C Zn2B 1_555 1_555
C1A O1A 1_555 1_555
H1A C1A 1_555 1_555
C2B O3B 1_555 1_555
H2B C2B 1_555 1_555
C3B O5B 1_555 1_555
H3B C3B 1_555 1_555
C4B O8B 1_555 1_555
H4B C4B 1_555 1_555
C5B O9B 1_555 1_555
H5B C5B 1_555 1_555
C6A O11A 1_555 1_555
H6A C6A 1_555 1_555
Zn2 O3 1_555 1_555
Zn2 O7 1_555 1_555
Zn3 O9 1_555 1_555
Zn4 O11 1_555 1_555
O5 Zn2A 1_555 1_555
O6 C3 1_555 1_555
O10 C5 1_555 1_555
O12 Zn2A 1_555 1_555
C11 C12 1_555 1_555
Zn1B O9B 1_555 1_555
Zn1A O5A 1_555 1_555
Zn1B_2 O11B 1_555 1_555
Zn2B O3B 1_555 1_555
Zn2B O7B_2 1_555 1_555
Zn2C O5B 1_555 1_555
Zn4_2 O11B_2 1_555 1_555
O4B C2B 1_555 1_555
O6B C3B 1_555 1_555
O12A C6A 1_555 1_555

#END
