
#######################################################################
#
#                 Cambridge Crystallographic Data Centre
#                                CCDC 
#
#######################################################################
#
# If this CIF has been generated from an entry in the Cambridge 
# Structural Database, then it will include bibliographic, chemical, 
# crystal, experimental, refinement or atomic coordinate data resulting 
# from the CCDC's data processing and validation procedures.
#
#######################################################################

data_TETWUM
_symmetry_cell_setting           monoclinic
_symmetry_space_group_name_H-M   'C 2/c'
_symmetry_Int_Tables_number      15
_space_group_name_Hall           '-C 2yn'
loop_
_symmetry_equiv_pos_site_id
_symmetry_equiv_pos_as_xyz
1 x,y,z
2 -x,y,1/2-z
3 1/2+x,1/2+y,z
4 1/2-x,1/2+y,1/2-z
5 -x,-y,-z
6 x,-y,1/2+z
7 1/2-x,1/2-y,-z
8 1/2+x,1/2-y,1/2+z
_cell_length_a                   30.306(3)
_cell_length_b                   14.6161(14)
_cell_length_c                   12.0026(11)
_cell_angle_alpha                90
_cell_angle_beta                 107.468(2)
_cell_angle_gamma                90
_cell_volume                     5071.44
loop_
_atom_site_label
_atom_site_type_symbol
_atom_site_fract_x
_atom_site_fract_y
_atom_site_fract_z
Cd1 Cd 0.215882(15) 0.04140(3) 0.93133(3)
Cd2 Cd 0.176610(15) -0.33727(3) 1.32755(3)
C1 C 0.2823(2) -0.1905(4) 1.1338(4)
H1 H 0.2854 -0.2383 1.0794
C2 C 0.2570(2) -0.2348(3) 1.2126(5)
H2 H 0.2320 -0.2736 1.1653
C3 C 0.29653(19) -0.2961(4) 1.2879(4)
H3 H 0.3021 -0.3409 1.2330
C4 C 0.33956(19) -0.2337(4) 1.3190(5)
H4 H 0.3668 -0.2717 1.3252
C5 C 0.3321(2) -0.1696(4) 1.2119(5)
H5 H 0.3545 -0.1825 1.1707
H6 H 0.3351 -0.1060 1.2360
C6 C 0.2572(2) -0.1118(4) 1.0586(5)
C7 C 0.2374(2) -0.1661(4) 1.2806(5)
C8 C 0.2914(2) -0.3527(4) 1.3888(5)
C9 C 0.3477(2) -0.1803(4) 1.4329(5)
C10 C 0.1332(2) 0.0079(4) 0.6918(5)
H7 H 0.1509 0.0477 0.6625
C11 C 0.0925(2) -0.0256(4) 0.6169(5)
H8 H 0.0835 -0.0073 0.5391
C12 C 0.0653(2) -0.0848(4) 0.6541(6)
C13 C 0.0811(2) -0.1083(5) 0.7723(6)
H9 H 0.0640 -0.1480 0.8037
C14 C 0.1223(2) -0.0723(4) 0.8425(6)
H10 H 0.1325 -0.0895 0.9206
C15 C 0.0273(3) -0.1873(8) 0.4873(8)
H11 H 0.0470 -0.2378 0.5248
H12 H 0.0426 -0.1553 0.4384
C16 C 0.0214(2) -0.1249(5) 0.5765(6)
H13 H 0.0060 -0.1575 0.6247
H14 H 0.0012 -0.0753 0.5382
C17 C -0.0889(3) -0.2111(5) 0.2535(7)
H15 H -0.1068 -0.1779 0.1900
C18 C -0.0459(3) -0.1760(6) 0.3156(8)
H16 H -0.0354 -0.1210 0.2938
C19 C -0.0188(3) -0.2250(7) 0.4111(9)
C20 C -0.0349(4) -0.3052(8) 0.4357(9)
H17 H -0.0170 -0.3411 0.4966
C21 C -0.0789(3) -0.3352(6) 0.3691(8)
H18 H -0.0898 -0.3904 0.3891
O1 O 0.28042(16) -0.0568(3) 1.0159(4)
O2 O 0.21476(15) -0.1037(3) 1.0351(3)
O3 O 0.25468(14) -0.0874(3) 1.3022(3)
O4 O 0.20295(14) -0.1893(2) 1.3135(3)
O5 O 0.25168(14) -0.3696(3) 1.4004(3)
O6 O 0.32653(14) -0.3884(3) 1.4571(3)
O7 O 0.32036(15) -0.1954(3) 1.4907(3)
O8 O 0.38096(17) -0.1266(3) 1.4615(4)
O9 O 0.13602(16) -0.4695(3) 1.3679(3)
N1 N 0.14804(17) -0.0145(3) 0.8039(4)
N2 N -0.1056(2) -0.2891(4) 0.2796(5)
O12 O 0.18210(18) -0.4332(3) 1.1715(4)
Cd1E Cd 0.215882(15) -0.04140(3) 0.43133(3)
Cd1E_2 Cd 0.215882(15) -0.04140(3) 1.43133(3)
Cd1C Cd 0.284118(15) -0.45860(3) 1.56867(3)
Cd1F Cd 0.284118(15) 0.45860(3) 1.06867(3)
Cd1A Cd -0.215882(15) 0.04140(3) 0.56867(3)
Cd2E Cd 0.176610(15) 0.33727(3) 0.82755(3)
Cd2F Cd 0.323390(15) -0.16273(3) 1.67245(3)
Cd2A Cd -0.176610(15) -0.33727(3) 0.17245(3)
Cd2C Cd 0.323390(15) 0.16273(3) 1.17245(3)
C1E C 0.2823(2) 0.1905(4) 0.6338(4)
H1E H 0.2854 0.2383 0.5794
C2E C 0.2570(2) 0.2348(3) 0.7126(5)
H2E H 0.2320 0.2736 0.6653
C3E C 0.29653(19) 0.2961(4) 0.7879(4)
H3E H 0.3021 0.3409 0.7330
C4E C 0.33956(19) 0.2337(4) 0.8190(5)
H4E H 0.3668 0.2717 0.8252
C5E C 0.3321(2) 0.1696(4) 0.7119(5)
H5E H 0.3545 0.1825 0.6707
H6E H 0.3351 0.1060 0.7360
C6E C 0.2572(2) 0.1118(4) 0.5586(5)
C7E C 0.2374(2) 0.1661(4) 0.7806(5)
C8E C 0.2914(2) 0.3527(4) 0.8888(5)
C9E C 0.3477(2) 0.1803(4) 0.9329(5)
C10A C -0.1332(2) 0.0079(4) 0.8082(5)
H7A H -0.1509 0.0477 0.8375
C11A C -0.0925(2) -0.0256(4) 0.8831(5)
H8A H -0.0835 -0.0073 0.9609
C12A C -0.0653(2) -0.0848(4) 0.8459(6)
C13A C -0.0811(2) -0.1083(5) 0.7277(6)
H9A H -0.0640 -0.1480 0.6963
C14A C -0.1223(2) -0.0723(4) 0.6575(6)
H10A H -0.1325 -0.0895 0.5794
C15A C -0.0273(3) -0.1873(8) 1.0127(8)
H11A H -0.0470 -0.2378 0.9752
H12A H -0.0426 -0.1553 1.0616
C16A C -0.0214(2) -0.1249(5) 0.9235(6)
H13A H -0.0060 -0.1575 0.8753
H14A H -0.0012 -0.0753 0.9618
C17A C 0.0889(3) -0.2111(5) 1.2465(7)
H15A H 0.1068 -0.1779 1.3100
C18A C 0.0459(3) -0.1760(6) 1.1844(8)
H16A H 0.0354 -0.1210 1.2062
C19A C 0.0188(3) -0.2250(7) 1.0889(9)
C20A C 0.0349(4) -0.3052(8) 1.0643(9)
H17A H 0.0170 -0.3411 1.0034
C21A C 0.0789(3) -0.3352(6) 1.1309(8)
H18A H 0.0898 -0.3904 1.1109
O1E O 0.28042(16) 0.0568(3) 0.5159(4)
O2E O 0.21476(15) 0.1037(3) 0.5351(3)
O3E O 0.25468(14) 0.0874(3) 0.8022(3)
O3_2 O 0.25468(14) -0.0874(3) 0.3022(3)
O4E O 0.20295(14) 0.1893(2) 0.8135(3)
O5E O 0.25168(14) 0.3696(3) 0.9004(3)
O5C O 0.24832(14) 0.1304(3) 1.0996(3)
O5F O 0.24832(14) -0.1304(3) 0.5996(3)
O6E O 0.32653(14) 0.3884(3) 0.9571(3)
O6C O 0.17347(14) 0.1116(3) 1.0429(3)
O6F O 0.17347(14) -0.1116(3) 0.5429(3)
O7E O 0.32036(15) 0.1954(3) 0.9907(3)
O7F O 0.17964(15) -0.3046(3) 1.5093(3)
O7C O 0.17964(15) 0.3046(3) 1.0093(3)
O8E O 0.38096(17) 0.1266(3) 0.9615(4)
O9E O 0.13602(16) 0.4695(3) 0.8679(3)
N1A N -0.14804(17) -0.0145(3) 0.6961(4)
N1E N 0.14804(17) 0.0145(3) 0.3039(4)
N2A N 0.1056(2) -0.2891(4) 1.2204(5)
N2D N 0.1056(2) 0.2891(4) 0.7204(5)
O12E O 0.18210(18) 0.4332(3) 0.6715(4)
O10 O 0.0630(2) 0.4239(4) 0.1780(5)
O11 O 0.0000 0.6921(7) 0.7500
loop_
_geom_bond_atom_site_label_1
_geom_bond_atom_site_label_2
_geom_bond_site_symmetry_1
_geom_bond_site_symmetry_2
Cd1 O1 1_555 1_555
Cd2 O4 1_555 1_555
C1 H1 1_555 1_555
C2 C1 1_555 1_555
H2 C2 1_555 1_555
C3 C2 1_555 1_555
H3 C3 1_555 1_555
C4 C3 1_555 1_555
H4 C4 1_555 1_555
C5 C1 1_555 1_555
H5 C5 1_555 1_555
H6 C5 1_555 1_555
C6 C1 1_555 1_555
C7 C2 1_555 1_555
C8 C3 1_555 1_555
C9 C4 1_555 1_555
C10 H7 1_555 1_555
C11 C10 1_555 1_555
H8 C11 1_555 1_555
C12 C11 1_555 1_555
C13 C12 1_555 1_555
H9 C13 1_555 1_555
C14 C13 1_555 1_555
H10 C14 1_555 1_555
C15 H11 1_555 1_555
H12 C15 1_555 1_555
C16 C12 1_555 1_555
H13 C16 1_555 1_555
H14 C16 1_555 1_555
C17 H15 1_555 1_555
C18 C17 1_555 1_555
H16 C18 1_555 1_555
C19 C15 1_555 1_555
C20 C19 1_555 1_555
H17 C20 1_555 1_555
C21 C20 1_555 1_555
H18 C21 1_555 1_555
O1 C6 1_555 1_555
O2 Cd1 1_555 1_555
O3 C7 1_555 1_555
O4 C7 1_555 1_555
O5 Cd2 1_555 1_555
O6 C8 1_555 1_555
O7 C9 1_555 1_555
O8 C9 1_555 1_555
O9 Cd2 1_555 1_555
N1 Cd1 1_555 1_555
N2 C17 1_555 1_555
O12 Cd2 1_555 1_555
Cd1E O1E 1_555 1_555
Cd1E_2 O3 1_555 1_555
Cd1C O5 1_555 1_555
Cd1F O5E 1_555 1_555
Cd1A N1A 1_555 1_555
Cd2E O4E 1_555 1_555
Cd2F O7 1_555 1_555
Cd2A N2 1_555 1_555
Cd2C O5C 1_555 1_555
C1E H1E 1_555 1_555
C2E C1E 1_555 1_555
H2E C2E 1_555 1_555
C3E C2E 1_555 1_555
H3E C3E 1_555 1_555
C4E C3E 1_555 1_555
H4E C4E 1_555 1_555
C5E C1E 1_555 1_555
H5E C5E 1_555 1_555
H6E C5E 1_555 1_555
C6E C1E 1_555 1_555
C7E C2E 1_555 1_555
C8E C3E 1_555 1_555
C9E C4E 1_555 1_555
C10A H7A 1_555 1_555
C11A C10A 1_555 1_555
H8A C11A 1_555 1_555
C12A C11A 1_555 1_555
C13A C12A 1_555 1_555
H9A C13A 1_555 1_555
C14A C13A 1_555 1_555
H10A C14A 1_555 1_555
C15A H11A 1_555 1_555
H12A C15A 1_555 1_555
C16A C12A 1_555 1_555
H13A C16A 1_555 1_555
H14A C16A 1_555 1_555
C17A H15A 1_555 1_555
C18A C17A 1_555 1_555
H16A C18A 1_555 1_555
C19A C15A 1_555 1_555
C20A C19A 1_555 1_555
H17A C20A 1_555 1_555
C21A C20A 1_555 1_555
H18A C21A 1_555 1_555
O1E C6E 1_555 1_555
O2E Cd1E 1_555 1_555
O3E Cd1 1_555 1_555
O3_2 Cd1E 1_555 1_555
O4E C7E 1_555 1_555
O5E Cd2E 1_555 1_555
O5C Cd1 1_555 1_555
O5F Cd1E 1_555 1_555
O6E Cd1F 1_555 1_555
O6C Cd1 1_555 1_555
O6F Cd1E 1_555 1_555
O7E Cd2C 1_555 1_555
O7F Cd2 1_555 1_555
O7C Cd2E 1_555 1_555
O8E C9E 1_555 1_555
O9E Cd2E 1_555 1_555
N1A C10A 1_555 1_555
N1E Cd1E 1_555 1_555
N2A Cd2 1_555 1_555
N2D Cd2E 1_555 1_555
O12E Cd2E 1_555 1_555
C4 C5 1_555 1_555
C6 O2 1_555 1_555
C8 O5 1_555 1_555
C10 N1 1_555 1_555
C14 N1 1_555 1_555
C15 C16 1_555 1_555
C18 C19 1_555 1_555
C21 N2 1_555 1_555
O6 Cd1C 1_555 1_555
C4E C5E 1_555 1_555
C6E O2E 1_555 1_555
C7E O3E 1_555 1_555
C8E O5E 1_555 1_555
C8E O6E 1_555 1_555
C9E O7E 1_555 1_555
C14A N1A 1_555 1_555
C15A C16A 1_555 1_555
C17A N2A 1_555 1_555
C18A C19A 1_555 1_555
C21A N2A 1_555 1_555

#END
