
#######################################################################
#
#                 Cambridge Crystallographic Data Centre
#                                CCDC 
#
#######################################################################
#
# If this CIF has been generated from an entry in the Cambridge 
# Structural Database, then it will include bibliographic, chemical, 
# crystal, experimental, refinement or atomic coordinate data resulting 
# from the CCDC's data processing and validation procedures.
#
#######################################################################

data_TETZID
_symmetry_cell_setting           monoclinic
_symmetry_space_group_name_H-M   'P 21/c'
_symmetry_Int_Tables_number      14
_space_group_name_Hall           '-P 2ybc'
loop_
_symmetry_equiv_pos_site_id
_symmetry_equiv_pos_as_xyz
1 x,y,z
2 -x,1/2+y,1/2-z
3 -x,-y,-z
4 x,1/2-y,1/2+z
_cell_length_a                   20.3874(19)
_cell_length_b                   19.5406(17)
_cell_length_c                   14.9256(13)
_cell_angle_alpha                90
_cell_angle_beta                 94.3790(10)
_cell_angle_gamma                90
_cell_volume                     5928.73
loop_
_atom_site_label
_atom_site_type_symbol
_atom_site_fract_x
_atom_site_fract_y
_atom_site_fract_z
Cd1 Cd 0.332168(18) 0.547170(18) 0.62666(3)
Cd2 Cd 0.327531(19) 0.453324(19) 0.85672(3)
N1 N 0.6508(2) 0.5190(2) 0.6367(3)
H1 H 0.6632 0.4794 0.6196
N2 N 0.4466(2) 0.5392(2) 0.6372(3)
N3 N 1.0150(3) 0.5441(3) 0.6354(5)
H2 H 0.9989 0.5833 0.6480
N4 N 1.2200(2) 0.5459(2) 0.6276(3)
N5 N 0.6464(2) 0.4795(2) 0.8768(3)
H3 H 0.6605 0.5189 0.8955
N6 N 0.4409(2) 0.4594(2) 0.8649(3)
N7 N 1.0083(3) 0.4570(3) 0.8531(4)
H4 H 0.9900 0.4207 0.8303
N8 N 1.2143(2) 0.4567(3) 0.8477(3)
O1 O 0.68885(19) 0.6203(2) 0.6936(3)
O2 O 0.9871(2) 0.4363(3) 0.6021(5)
O3 O 0.6794(2) 0.3779(2) 0.8249(3)
O4 O 0.9868(3) 0.5632(4) 0.9081(5)
O5 O 0.3341(2) 0.5757(2) 0.7782(3)
O6 O 0.32570(19) 0.56114(18) 0.9239(3)
O7 O 0.3313(2) 0.83205(18) 1.0895(3)
O8 O 0.33605(19) 0.90463(17) 0.9789(3)
O9 O 0.3323(2) 0.42217(18) 0.7074(3)
O10 O 0.32700(19) 0.43873(17) 0.5618(3)
O11 O 0.3267(2) 0.16705(17) 0.3943(3)
O12 O 0.33223(19) 0.09491(17) 0.5074(3)
S1 S 0.33024(8) 0.70434(7) 0.97884(10)
S2 S 0.32841(8) 0.29556(7) 0.50513(10)
C1 C 0.6993(3) 0.5663(4) 0.6591(4)
C2 C 0.9709(3) 0.4933(4) 0.6212(5)
C3 C 0.7681(3) 0.5426(3) 0.6434(4)
C4 C 0.7888(3) 0.4764(3) 0.6442(5)
H9 H 0.7591 0.4409 0.6506
C5 C 0.8556(3) 0.4622(4) 0.6352(6)
H10 H 0.8689 0.4167 0.6337
C6 C 0.9007(3) 0.5113(4) 0.6287(6)
C7 C 0.8795(3) 0.5778(4) 0.6233(5)
H11 H 0.9093 0.6125 0.6132
C8 C 0.8126(3) 0.5941(4) 0.6328(6)
H12 H 0.7989 0.6395 0.6319
C9 C 0.4766(3) 0.4816(3) 0.6157(5)
H13 H 0.4506 0.4441 0.5988
C10 C 0.5425(3) 0.4743(3) 0.6170(5)
H14 H 0.5606 0.4323 0.6029
C11 C 0.5830(3) 0.5293(3) 0.6391(3)
C12 C 0.5537(3) 0.5903(3) 0.6593(4)
H15 H 0.5787 0.6290 0.6740
C13 C 0.4860(3) 0.5920(3) 0.6569(5)
H16 H 0.4664 0.6334 0.6702
C14 C 1.1835(3) 0.4913(4) 0.6047(5)
H17 H 1.2053 0.4527 0.5860
C15 C 1.1159(3) 0.4871(4) 0.6065(5)
H18 H 1.0939 0.4468 0.5899
C16 C 1.0824(3) 0.5420(4) 0.6324(6)
C17 C 1.1205(3) 0.5981(4) 0.6581(6)
H19 H 1.0999 0.6369 0.6785
C18 C 1.1868(3) 0.5986(4) 0.6548(6)
H20 H 1.2097 0.6380 0.6727
C19 C 0.6929(3) 0.4336(4) 0.8561(4)
C20 C 0.9676(4) 0.5051(5) 0.8837(5)
C21 C 0.7634(3) 0.4567(4) 0.8716(4)
C22 C 0.8085(4) 0.4057(5) 0.8824(6)
H21 H 0.7948 0.3605 0.8870
C23 C 0.8768(4) 0.4215(5) 0.8868(7)
H22 H 0.9079 0.3866 0.8922
C24 C 0.8967(3) 0.4881(4) 0.8830(5)
C25 C 0.8504(4) 0.5381(4) 0.8801(5)
H23 H 0.8636 0.5836 0.8815
C26 C 0.7832(3) 0.5226(4) 0.8750(5)
H24 H 0.7523 0.5577 0.8739
C27 C 0.4791(3) 0.4067(3) 0.8483(5)
H25 H 0.4584 0.3652 0.8347
C28 C 0.5476(3) 0.4079(3) 0.8495(5)
H26 H 0.5715 0.3691 0.8366
C29 C 0.5787(3) 0.4700(3) 0.8711(4)
C30 C 0.5396(3) 0.5244(3) 0.8904(4)
H27 H 0.5586 0.5665 0.9056
C31 C 0.4732(3) 0.5170(3) 0.8873(5)
H28 H 0.4485 0.5548 0.9020
C32 C 1.1779(4) 0.4051(4) 0.8211(6)
H29 H 1.1982 0.3666 0.7991
C33 C 1.1104(3) 0.4046(4) 0.8237(6)
H30 H 1.0869 0.3659 0.8042
C34 C 1.0771(3) 0.4602(4) 0.8548(6)
C35 C 1.1137(4) 0.5141(4) 0.8778(5)
H31 H 1.0941 0.5538 0.8973
C36 C 1.1821(3) 0.5115(4) 0.8730(5)
H32 H 1.2064 0.5506 0.8886
C37 C 0.3309(2) 0.4010(3) 0.6289(4)
C38 C 0.3337(3) 0.8452(3) 1.0085(4)
C39 C 0.3344(3) 0.3261(3) 0.6138(3)
C40 C 0.3408(4) 0.2750(3) 0.6737(4)
H33 H 0.3436 0.2818 0.7355
C41 C 0.3427(4) 0.2094(3) 0.6329(4)
H34 H 0.3489 0.1688 0.6650
C42 C 0.3346(3) 0.2126(2) 0.5424(4)
C43 C 0.3310(3) 0.5998(3) 0.8550(4)
C44 C 0.3295(3) 0.1548(3) 0.4762(4)
C45 C 0.3346(3) 0.6734(3) 0.8721(4)
C46 C 0.3416(3) 0.7246(3) 0.8127(4)
H35 H 0.3454 0.7176 0.7517
C47 C 0.3424(3) 0.7903(3) 0.8533(4)
H36 H 0.3462 0.8311 0.8219
C48 C 0.3370(3) 0.7868(2) 0.9421(4)
Cd1_2 Cd 1.332168(18) 0.547170(18) 0.62666(3)
Cd1C Cd 0.332168(18) 0.952830(18) 1.12666(3)
Cd2_2 Cd 1.327531(19) 0.453324(19) 0.85672(3)
Cd2C Cd 0.327531(19) 0.046676(19) 0.35672(3)
N4_2 N 0.2200(2) 0.5459(2) 0.6276(3)
N8_2 N 0.2143(2) 0.4567(3) 0.8477(3)
O7C O 0.3313(2) 0.66795(18) 0.5895(3)
O8C O 0.33605(19) 0.59537(17) 0.4789(3)
O11C O 0.3267(2) 0.33295(17) 0.8943(3)
O12C O 0.33223(19) 0.40509(17) 1.0074(3)
O13 O 0.2335(4) 0.2444(3) 0.8058(6)
H5 H 0.2594 0.2735 0.8317
H6 H 0.2537 0.2064 0.8037
O14 O 0.7626(6) 0.2584(6) 0.8477(9)
H7 H 0.7412 0.2956 0.8392
H8 H 0.7367 0.2286 0.8668
loop_
_geom_bond_atom_site_label_1
_geom_bond_atom_site_label_2
_geom_bond_site_symmetry_1
_geom_bond_site_symmetry_2
Cd1 N2 1_555 1_555
Cd2 N6 1_555 1_555
N1 H1 1_555 1_555
N2 C9 1_555 1_555
N3 H2 1_555 1_555
N4 C14 1_555 1_555
N5 H3 1_555 1_555
N6 C27 1_555 1_555
N7 H4 1_555 1_555
N8 C32 1_555 1_555
O1 C1 1_555 1_555
O2 C2 1_555 1_555
O3 C19 1_555 1_555
O4 C20 1_555 1_555
O5 Cd1 1_555 1_555
O6 Cd2 1_555 1_555
O7 C38 1_555 1_555
O8 C38 1_555 1_555
O9 Cd2 1_555 1_555
O10 Cd1 1_555 1_555
O11 C44 1_555 1_555
O12 C44 1_555 1_555
O13 H5 1_555 1_555
H6 O13 1_555 1_555
O14 H7 1_555 1_555
H8 O14 1_555 1_555
S1 C45 1_555 1_555
S2 C39 1_555 1_555
C1 N1 1_555 1_555
C2 N3 1_555 1_555
C3 C1 1_555 1_555
C4 C3 1_555 1_555
H9 C4 1_555 1_555
C5 C4 1_555 1_555
H10 C5 1_555 1_555
C6 C2 1_555 1_555
C7 C6 1_555 1_555
H11 C7 1_555 1_555
C8 C3 1_555 1_555
H12 C8 1_555 1_555
C9 H13 1_555 1_555
C10 C9 1_555 1_555
H14 C10 1_555 1_555
C11 N1 1_555 1_555
C12 C11 1_555 1_555
H15 C12 1_555 1_555
C13 N2 1_555 1_555
H16 C13 1_555 1_555
C14 H17 1_555 1_555
C15 C14 1_555 1_555
H18 C15 1_555 1_555
C16 N3 1_555 1_555
C17 C16 1_555 1_555
H19 C17 1_555 1_555
C18 N4 1_555 1_555
H20 C18 1_555 1_555
C19 N5 1_555 1_555
C20 N7 1_555 1_555
C21 C19 1_555 1_555
C22 C21 1_555 1_555
H21 C22 1_555 1_555
C23 C22 1_555 1_555
H22 C23 1_555 1_555
C24 C20 1_555 1_555
C25 C24 1_555 1_555
H23 C25 1_555 1_555
C26 C21 1_555 1_555
H24 C26 1_555 1_555
C27 H25 1_555 1_555
C28 C27 1_555 1_555
H26 C28 1_555 1_555
C29 N5 1_555 1_555
C30 C29 1_555 1_555
H27 C30 1_555 1_555
C31 N6 1_555 1_555
H28 C31 1_555 1_555
C32 H29 1_555 1_555
C33 C32 1_555 1_555
H30 C33 1_555 1_555
C34 N7 1_555 1_555
C35 C34 1_555 1_555
H31 C35 1_555 1_555
C36 N8 1_555 1_555
H32 C36 1_555 1_555
C37 O9 1_555 1_555
C38 C48 1_555 1_555
C39 C37 1_555 1_555
C40 C39 1_555 1_555
H33 C40 1_555 1_555
C41 C40 1_555 1_555
H34 C41 1_555 1_555
C42 S2 1_555 1_555
C43 O5 1_555 1_555
C44 C42 1_555 1_555
C45 C43 1_555 1_555
C46 C45 1_555 1_555
H35 C46 1_555 1_555
C47 C46 1_555 1_555
H36 C47 1_555 1_555
C48 S1 1_555 1_555
Cd1_2 N4 1_555 1_555
Cd1C O7 1_555 1_555
Cd2_2 N8 1_555 1_555
Cd2C O11 1_555 1_555
N4_2 Cd1 1_555 1_555
N8_2 Cd2 1_555 1_555
O7C Cd1 1_555 1_555
O8C Cd1 1_555 1_555
O11C Cd2 1_555 1_555
O12C Cd2 1_555 1_555
O6 C43 1_555 1_555
O8 Cd1C 1_555 1_555
O10 C37 1_555 1_555
O12 Cd2C 1_555 1_555
C5 C6 1_555 1_555
C7 C8 1_555 1_555
C10 C11 1_555 1_555
C12 C13 1_555 1_555
C15 C16 1_555 1_555
C17 C18 1_555 1_555
C23 C24 1_555 1_555
C25 C26 1_555 1_555
C28 C29 1_555 1_555
C30 C31 1_555 1_555
C33 C34 1_555 1_555
C35 C36 1_555 1_555
C41 C42 1_555 1_555
C47 C48 1_555 1_555

#END
