
#######################################################################
#
#                 Cambridge Crystallographic Data Centre
#                                CCDC 
#
#######################################################################
#
# If this CIF has been generated from an entry in the Cambridge 
# Structural Database, then it will include bibliographic, chemical, 
# crystal, experimental, refinement or atomic coordinate data resulting 
# from the CCDC's data processing and validation procedures.
#
#######################################################################

data_TEVZOK
_symmetry_cell_setting           monoclinic
_symmetry_space_group_name_H-M   'P 21/c'
_symmetry_Int_Tables_number      14
_space_group_name_Hall           '-P 2ybc'
loop_
_symmetry_equiv_pos_site_id
_symmetry_equiv_pos_as_xyz
1 x,y,z
2 -x,1/2+y,1/2-z
3 -x,-y,-z
4 x,1/2-y,1/2+z
_cell_length_a                   11.2151(3)
_cell_length_b                   9.6682(2)
_cell_length_c                   18.0850(6)
_cell_angle_alpha                90
_cell_angle_beta                 127.056(2)
_cell_angle_gamma                90
_cell_volume                     1564.93
loop_
_atom_site_label
_atom_site_type_symbol
_atom_site_fract_x
_atom_site_fract_y
_atom_site_fract_z
Zn1 Zn 0.37441(4) 0.08285(4) 0.13099(3)
Zn2 Zn 0.57608(4) -0.09961(4) 0.31541(3)
Zn3 Zn 0.5000 0.0000 0.0000
Zn4 Zn 0.0000 0.0000 0.0000
O1 O 0.4286(3) 0.2073(2) 0.24281(16)
O2 O 0.5495(3) 0.0705(2) 0.36892(16)
O3 O 0.5942(3) 0.0051(2) 0.22192(16)
O4 O 0.6859(3) 0.0105(2) 0.14096(17)
O5 O 0.4555(3) 0.2627(2) 0.10843(16)
O6 O 0.4677(3) 0.2120(2) -0.00781(17)
O7 O 0.3466(3) -0.0797(2) 0.19593(16)
O8 O 0.1008(3) -0.1024(2) 0.12555(17)
O9 O 0.3420(3) -0.0308(2) 0.02539(16)
O10 O 0.1160(3) -0.1187(2) -0.03345(17)
O11 O 0.1596(3) 0.1609(2) 0.05714(16)
O12 O 0.1980(3) 0.3889(2) 0.08786(17)
C1 C 0.4923(4) 0.1823(3) 0.3280(2)
H1 H 0.4969 0.2563 0.3642
C2 C 0.6988(4) -0.0023(3) 0.2134(3)
H2 H 0.7965 -0.0194 0.2682
C3 C 0.4649(4) 0.2938(4) 0.0436(3)
H3 H 0.4703 0.3894 0.0339
C4 C 0.2328(4) -0.1259(3) 0.1888(3)
H4 H 0.2526 -0.1842 0.2373
C5 C 0.2320(4) -0.1155(3) -0.0262(2)
H5 H 0.2420 -0.1808 -0.0614
C6 C 0.1164(4) 0.2869(4) 0.0477(2)
H6 H 0.0120 0.3035 0.0059
Zn1B Zn 0.62559(4) -0.08285(4) -0.13099(3)
Zn1A Zn 0.62559(4) -0.41715(4) 0.36901(3)
Zn1B_2 Zn -0.37441(4) -0.08285(4) -0.13099(3)
Zn2B Zn 0.42392(4) 0.09961(4) -0.31541(3)
Zn2A Zn 0.42392(4) 0.40039(4) 0.18459(3)
Zn2C Zn 0.57608(4) -0.40039(4) -0.18459(3)
Zn2A_2 Zn 0.42392(4) -0.59961(4) 0.18459(3)
Zn2B_2 Zn -0.57608(4) 0.09961(4) -0.31541(3)
Zn4_2 Zn 1.0000 0.0000 0.0000
Zn4C Zn 1.0000 -0.5000 0.5000
O1A O 0.5714(3) -0.2927(2) 0.25719(16)
O1B O 0.5714(3) -0.2073(2) -0.24281(16)
O1C O 0.4286(3) 0.2927(2) -0.25719(16)
O2A O 0.4505(3) -0.4295(2) 0.13108(16)
O2B O 0.4505(3) -0.0705(2) -0.36892(16)
O3B O 0.4058(3) -0.0051(2) -0.22192(16)
O4B O 0.3141(3) -0.0105(2) -0.14096(17)
O5B O 0.5445(3) -0.2627(2) -0.10843(16)
O5A O 0.5445(3) -0.2373(2) 0.39157(16)
O5C O 0.4555(3) 0.2373(2) -0.39157(16)
O6B O 0.5323(3) -0.2120(2) 0.00781(17)
O7B O -0.3466(3) 0.0797(2) -0.19593(16)
O7B_2 O 0.6534(3) 0.0797(2) -0.19593(16)
O8B O -0.1008(3) 0.1024(2) -0.12555(17)
O9B O 0.6580(3) 0.0308(2) -0.02539(16)
O10B O 0.8840(3) 0.1187(2) 0.03345(17)
O10B_2 O -0.1160(3) 0.1187(2) 0.03345(17)
O11A O 0.8404(3) -0.3391(2) 0.44286(16)
O11B O -0.1596(3) -0.1609(2) -0.05714(16)
O11B_2 O 0.8404(3) -0.1609(2) -0.05714(16)
O12A O 0.8020(3) -0.1111(2) 0.41214(17)
O12C O 0.1980(3) 0.1111(2) -0.41214(17)
C1A C 0.5077(4) -0.3177(3) 0.1720(2)
H1A H 0.5031 -0.2437 0.1358
C2B C 0.3012(4) 0.0023(3) -0.2134(3)
H2B H 0.2035 0.0194 -0.2682
C3B C 0.5351(4) -0.2938(4) -0.0436(3)
H3B H 0.5297 -0.3894 -0.0339
C4B C -0.2328(4) 0.1259(3) -0.1888(3)
H4B H -0.2526 0.1842 -0.2373
C5B C 0.7680(4) 0.1155(3) 0.0262(2)
H5B H 0.7580 0.1808 0.0614
C6A C 0.8836(4) -0.2131(4) 0.4523(2)
H6A H 0.9880 -0.1965 0.4941
N1 N 0.1856(5) -0.4387(5) -0.1466(3)
C7 C 0.1428(6) -0.5480(6) -0.1742(3)
C8 C 0.0923(6) -0.6877(5) -0.2063(4)
H7 H 0.0399 -0.7223 -0.1821
H8 H 0.1786 -0.7470 -0.1846
H9 H 0.0243 -0.6886 -0.2742
loop_
_geom_bond_atom_site_label_1
_geom_bond_atom_site_label_2
_geom_bond_site_symmetry_1
_geom_bond_site_symmetry_2
Zn1 O1 1_555 1_555
Zn2 O2 1_555 1_555
Zn3 O4 1_555 1_555
Zn4 O8 1_555 1_555
O1 C1 1_555 1_555
O2 C1 1_555 1_555
O3 Zn1 1_555 1_555
O4 C2 1_555 1_555
O5 Zn1 1_555 1_555
O6 Zn3 1_555 1_555
O7 Zn1 1_555 1_555
O8 C4 1_555 1_555
O9 Zn1 1_555 1_555
O10 Zn4 1_555 1_555
O11 Zn1 1_555 1_555
O12 C6 1_555 1_555
C1 H1 1_555 1_555
C2 O3 1_555 1_555
H2 C2 1_555 1_555
C3 O5 1_555 1_555
H3 C3 1_555 1_555
C4 O7 1_555 1_555
H4 C4 1_555 1_555
C5 O9 1_555 1_555
H5 C5 1_555 1_555
C6 O11 1_555 1_555
H6 C6 1_555 1_555
N1 C7 1_555 1_555
C7 C8 1_555 1_555
C8 H7 1_555 1_555
H8 C8 1_555 1_555
H9 C8 1_555 1_555
Zn1B O1B 1_555 1_555
Zn1A O1A 1_555 1_555
Zn1B_2 O7B 1_555 1_555
Zn2B O1C 1_555 1_555
Zn2A O1 1_555 1_555
Zn2C O1B 1_555 1_555
Zn2A_2 O2A 1_555 1_555
Zn2B_2 O7B 1_555 1_555
Zn4_2 O10B 1_555 1_555
Zn4C O11A 1_555 1_555
O1A Zn2 1_555 1_555
O2A C1A 1_555 1_555
O2B Zn2B 1_555 1_555
O3B Zn1B 1_555 1_555
O4B Zn3 1_555 1_555
O5B Zn1B 1_555 1_555
O5A Zn2 1_555 1_555
O5C Zn2B 1_555 1_555
O6B Zn3 1_555 1_555
O7B C4B 1_555 1_555
O7B_2 Zn1B 1_555 1_555
O8B Zn4 1_555 1_555
O9B Zn3 1_555 1_555
O10B C5B 1_555 1_555
O10B_2 Zn4 1_555 1_555
O11A Zn1A 1_555 1_555
O11B Zn4 1_555 1_555
O11B_2 Zn1B 1_555 1_555
O12A Zn2 1_555 1_555
O12C Zn2B 1_555 1_555
C1A O1A 1_555 1_555
H1A C1A 1_555 1_555
C2B O3B 1_555 1_555
H2B C2B 1_555 1_555
C3B O5B 1_555 1_555
H3B C3B 1_555 1_555
C4B O8B 1_555 1_555
H4B C4B 1_555 1_555
C5B O9B 1_555 1_555
H5B C5B 1_555 1_555
C6A O11A 1_555 1_555
H6A C6A 1_555 1_555
Zn2 O3 1_555 1_555
Zn2 O7 1_555 1_555
Zn3 O9 1_555 1_555
Zn4 O11 1_555 1_555
O5 Zn2A 1_555 1_555
O6 C3 1_555 1_555
O10 C5 1_555 1_555
O12 Zn2A 1_555 1_555
Zn1B O9B 1_555 1_555
Zn1A O5A 1_555 1_555
Zn1B_2 O11B 1_555 1_555
Zn2B O3B 1_555 1_555
Zn2B O7B_2 1_555 1_555
Zn2C O5B 1_555 1_555
Zn4_2 O11B_2 1_555 1_555
O4B C2B 1_555 1_555
O6B C3B 1_555 1_555
O12A C6A 1_555 1_555

#END
