
#######################################################################
#
#                 Cambridge Crystallographic Data Centre
#                                CCDC 
#
#######################################################################
#
# If this CIF has been generated from an entry in the Cambridge 
# Structural Database, then it will include bibliographic, chemical, 
# crystal, experimental, refinement or atomic coordinate data resulting 
# from the CCDC's data processing and validation procedures.
#
#######################################################################

data_TEYBOQ
_symmetry_cell_setting           monoclinic
_symmetry_space_group_name_H-M   'C 2/c'
_symmetry_Int_Tables_number      15
_space_group_name_Hall           '-C 2yn'
loop_
_symmetry_equiv_pos_site_id
_symmetry_equiv_pos_as_xyz
1 x,y,z
2 -x,y,1/2-z
3 1/2+x,1/2+y,z
4 1/2-x,1/2+y,1/2-z
5 -x,-y,-z
6 x,-y,1/2+z
7 1/2-x,1/2-y,-z
8 1/2+x,1/2-y,1/2+z
_cell_length_a                   43.3044(11)
_cell_length_b                   7.7682(2)
_cell_length_c                   28.6980(9)
_cell_angle_alpha                90
_cell_angle_beta                 128.5490(10)
_cell_angle_gamma                90
_cell_volume                     7550.1
loop_
_atom_site_label
_atom_site_type_symbol
_atom_site_fract_x
_atom_site_fract_y
_atom_site_fract_z
Pb1 Pb 0.223668(4) 1.115613(17) 0.222865(6)
O1 O 0.22289(10) 0.8552(4) 0.27381(14)
O2 O 0.20519(9) 1.0964(3) 0.29169(14)
O3 O 0.2009(2) 0.2942(5) 0.4408(2)
O4 O 0.21868(8) 0.2045(4) 0.67256(12)
O5 O -0.16398(9) 1.8211(6) -0.09144(16)
O6 O -0.15278(8) 1.9237(4) -0.15215(14)
O7 O 0.02811(13) 1.5418(9) 0.1308(3)
O8 O 0.20044(8) 1.4331(4) 0.22035(14)
N1 N 0.19588(13) 0.5742(5) 0.45581(19)
H1 H 0.1917 0.6421 0.4760
N2 N 0.21240(9) 0.2515(4) 0.62326(15)
N3 N 0.02319(11) 1.6914(6) 0.0596(2)
H2 H 0.0370 1.7301 0.0488
N4 N 0.16360(9) 1.4807(4) 0.19638(15)
C1 C 0.21135(11) 0.9365(5) 0.29857(17)
C2 C 0.20588(11) 0.8388(5) 0.33832(18)
C3 C 0.20294(15) 0.9267(6) 0.3775(2)
H3 H 0.2035 1.0490 0.3785
C4 C 0.19919(16) 0.8352(6) 0.4154(2)
H4 H 0.1973 0.8957 0.4423
C5 C 0.19813(14) 0.6569(6) 0.4143(2)
C6 C 0.20037(15) 0.5681(6) 0.3741(2)
H5 H 0.1991 0.4460 0.3721
C7 C 0.20448(13) 0.6616(6) 0.33712(19)
H6 H 0.2064 0.6017 0.3101
C8 C 0.19921(18) 0.4051(6) 0.4688(2)
C9 C 0.20212(15) 0.3575(6) 0.5222(2)
C10 C 0.19741(14) 0.4717(6) 0.5546(2)
H7 H 0.1908 0.5885 0.5424
C11 C 0.20225(13) 0.4160(5) 0.6046(2)
H8 H 0.1984 0.4943 0.6260
C12 C 0.21609(16) 0.1385(6) 0.5916(2)
H9 H 0.2221 0.0215 0.6039
C13 C 0.21126(17) 0.1903(6) 0.5418(2)
H10 H 0.2143 0.1084 0.5204
C14 C -0.14157(12) 1.8574(6) -0.1033(2)
C15 C -0.09789(12) 1.8170(7) -0.0590(2)
C16 C -0.08253(16) 1.7373(11) -0.0051(3)
H11 H -0.0996 1.7120 0.0042
C17 C -0.04263(17) 1.6936(12) 0.0355(3)
H12 H -0.0326 1.6386 0.0720
C18 C -0.01758(13) 1.7319(8) 0.0217(2)
C19 C -0.03265(13) 1.8145(7) -0.0318(2)
H13 H -0.0157 1.8418 -0.0412
C20 C -0.07261(13) 1.8571(6) -0.0715(2)
H14 H -0.0826 1.9145 -0.1077
C21 C 0.04307(15) 1.5998(8) 0.1105(3)
C22 C 0.08624(12) 1.5666(7) 0.1412(2)
C23 C 0.10412(13) 1.4297(7) 0.1803(2)
H15 H 0.0896 1.3643 0.1887
C24 C 0.14234(13) 1.3875(5) 0.2068(2)
H16 H 0.1541 1.2914 0.2329
C25 C 0.14854(12) 1.6231(5) 0.1622(2)
H17 H 0.1645 1.6924 0.1575
C26 C 0.10939(13) 1.6679(7) 0.1337(2)
H18 H 0.0985 1.7674 0.1092
Pb1C Pb 0.276332(4) 0.615613(17) 0.277135(6)
Pb1D Pb -0.223668(4) 1.884387(17) -0.222865(6)
Pb1E Pb 0.223668(4) -0.115613(17) 0.722865(6)
Pb1F Pb 0.276332(4) 0.384387(17) 0.777135(6)
O1C O 0.27711(10) 1.3552(4) 0.22619(14)
O4E O 0.21868(8) 0.7955(4) 0.17256(12)
O4F O 0.28132(8) 1.2955(4) 0.32744(12)
O6D O 0.15278(8) 1.0763(4) 0.15215(14)
C27 C 0.0493(7) -0.004(2) 0.6839(7)
H19 H 0.0349 0.0683 0.6498
C28 C 0.0295(4) -0.124(3) 0.6927(9)
H20 H 0.0016 -0.1330 0.6646
C29 C 0.0506(7) -0.230(2) 0.7425(11)
H21 H 0.0370 -0.3117 0.7485
C30 C 0.0902(7) 0.009(2) 0.7249(10)
C31 C 0.0914(7) -0.216(2) 0.7836(8)
C32 C 0.1112(4) -0.097(3) 0.7748(8)
H22 H 0.1392 -0.0877 0.8029
H23 H 0.1037 0.0909 0.7189
H24 H 0.1058 -0.2890 0.8177
O9 O 0.15899(15) 0.8329(6) 0.4893(2)
O10 O 0.0511(2) 1.7529(13) -0.0110(4)
O11 O 0.0777(15) -0.565(6) 0.858(2)
loop_
_geom_bond_atom_site_label_1
_geom_bond_atom_site_label_2
_geom_bond_site_symmetry_1
_geom_bond_site_symmetry_2
Pb1 O1 1_555 1_555
O1 C1 1_555 1_555
O2 Pb1 1_555 1_555
O3 C8 1_555 1_555
O4 N2 1_555 1_555
O5 C14 1_555 1_555
O6 C14 1_555 1_555
O7 C21 1_555 1_555
O8 Pb1 1_555 1_555
N1 H1 1_555 1_555
N2 C11 1_555 1_555
N3 H2 1_555 1_555
N4 O8 1_555 1_555
C1 O2 1_555 1_555
C2 C1 1_555 1_555
C3 C2 1_555 1_555
H3 C3 1_555 1_555
C4 C3 1_555 1_555
H4 C4 1_555 1_555
C5 N1 1_555 1_555
C6 C5 1_555 1_555
H5 C6 1_555 1_555
C7 C2 1_555 1_555
H6 C7 1_555 1_555
C8 N1 1_555 1_555
C9 C8 1_555 1_555
C10 C9 1_555 1_555
H7 C10 1_555 1_555
C11 C10 1_555 1_555
H8 C11 1_555 1_555
C12 N2 1_555 1_555
H9 C12 1_555 1_555
C13 C9 1_555 1_555
H10 C13 1_555 1_555
C14 C15 1_555 1_555
C15 C16 1_555 1_555
C16 H11 1_555 1_555
C17 C16 1_555 1_555
H12 C17 1_555 1_555
C18 N3 1_555 1_555
C19 C18 1_555 1_555
H13 C19 1_555 1_555
C20 C15 1_555 1_555
H14 C20 1_555 1_555
C21 N3 1_555 1_555
C22 C21 1_555 1_555
C23 C22 1_555 1_555
H15 C23 1_555 1_555
C24 N4 1_555 1_555
H16 C24 1_555 1_555
C25 N4 1_555 1_555
H17 C25 1_555 1_555
C26 C22 1_555 1_555
H18 C26 1_555 1_555
C27 H19 1_555 1_555
C28 C27 1_555 1_555
H20 C28 1_555 1_555
C29 C28 1_555 1_555
H21 C29 1_555 1_555
C30 C27 1_555 1_555
C31 C29 1_555 1_555
C32 C30 1_555 1_555
H22 C32 1_555 1_555
H23 C30 1_555 1_555
H24 C31 1_555 1_555
Pb1C O1 1_555 1_555
Pb1D O6 1_555 1_555
Pb1E O4 1_555 1_555
Pb1F O4 1_555 1_555
O1C Pb1 1_555 1_555
O4E Pb1 1_555 1_555
O4F Pb1 1_555 1_555
O6D Pb1 1_555 1_555
C4 C5 1_555 1_555
C6 C7 1_555 1_555
C12 C13 1_555 1_555
C17 C18 1_555 1_555
C19 C20 1_555 1_555
C23 C24 1_555 1_555
C25 C26 1_555 1_555
C31 C32 1_555 1_555
Pb1C O4E 1_555 1_555

#END
