
#######################################################################
#
#                 Cambridge Crystallographic Data Centre
#                                CCDC 
#
#######################################################################
#
# If this CIF has been generated from an entry in the Cambridge 
# Structural Database, then it will include bibliographic, chemical, 
# crystal, experimental, refinement or atomic coordinate data resulting 
# from the CCDC's data processing and validation procedures.
#
#######################################################################

data_TEYCAD
_symmetry_cell_setting           monoclinic
_symmetry_space_group_name_H-M   'C 2/c'
_symmetry_Int_Tables_number      15
_space_group_name_Hall           '-C 2yn'
loop_
_symmetry_equiv_pos_site_id
_symmetry_equiv_pos_as_xyz
1 x,y,z
2 -x,y,1/2-z
3 1/2+x,1/2+y,z
4 1/2-x,1/2+y,1/2-z
5 -x,-y,-z
6 x,-y,1/2+z
7 1/2-x,1/2-y,-z
8 1/2+x,1/2-y,1/2+z
_cell_length_a                   24.1114(16)
_cell_length_b                   22.9404(16)
_cell_length_c                   7.5513(5)
_cell_angle_alpha                90
_cell_angle_beta                 97.250(3)
_cell_angle_gamma                90
_cell_volume                     4143.42
loop_
_atom_site_label
_atom_site_type_symbol
_atom_site_fract_x
_atom_site_fract_y
_atom_site_fract_z
Pb1 Pb 0.0000 0.454856(12) 0.2500
O1 O 0.1161(2) 0.4444(2) 0.3325(8)
O2 O 0.05810(18) 0.3687(2) 0.3163(7)
O3 O 0.3627(2) 0.2909(2) 0.2727(8)
O4 O 0.4755(2) 0.0608(2) 0.0542(7)
N1 N 0.2854(2) 0.2325(3) 0.2504(8)
H1 H 0.2744 0.1961 0.2345
N2 N 0.4426(2) 0.1038(2) 0.1001(7)
C1 C 0.1071(3) 0.3908(3) 0.3279(9)
C2 C 0.1549(2) 0.3490(3) 0.3203(9)
C3 C 0.2098(3) 0.3692(3) 0.3383(11)
H2 H 0.2170 0.4093 0.3621
C4 C 0.2541(3) 0.3320(3) 0.3223(12)
H3 H 0.2914 0.3463 0.3402
C5 C 0.2439(3) 0.2736(3) 0.2799(9)
C6 C 0.1890(3) 0.2523(3) 0.2701(10)
H4 H 0.1818 0.2121 0.2475
C7 C 0.1455(3) 0.2896(3) 0.2931(9)
H5 H 0.1087 0.2746 0.2903
C8 C 0.3402(3) 0.2435(3) 0.2442(9)
C9 C 0.3749(3) 0.1920(3) 0.1975(9)
C10 C 0.3612(3) 0.1337(3) 0.2183(9)
H6 H 0.3276 0.1239 0.2648
C11 C 0.3955(3) 0.0904(3) 0.1726(9)
H7 H 0.3864 0.0508 0.1917
C12 C 0.4579(3) 0.1603(3) 0.0754(9)
H8 H 0.4913 0.1690 0.0260
C13 C 0.4238(3) 0.2045(3) 0.1237(10)
H9 H 0.4338 0.2440 0.1064
O1A O -0.1161(2) 0.4444(2) 0.1675(8)
O2A O -0.05810(18) 0.3687(2) 0.1837(7)
O3A O -0.3627(2) 0.2909(2) 0.2273(8)
O4A O -0.4755(2) 0.0608(2) 0.4458(7)
N1A N -0.2854(2) 0.2325(3) 0.2496(8)
H1A H -0.2744 0.1961 0.2655
N2A N -0.4426(2) 0.1038(2) 0.3999(7)
C1A C -0.1071(3) 0.3908(3) 0.1721(9)
C2A C -0.1549(2) 0.3490(3) 0.1797(9)
C3A C -0.2098(3) 0.3692(3) 0.1617(11)
H2A H -0.2170 0.4093 0.1379
C4A C -0.2541(3) 0.3320(3) 0.1777(12)
H3A H -0.2914 0.3463 0.1598
C5A C -0.2439(3) 0.2736(3) 0.2201(9)
C6A C -0.1890(3) 0.2523(3) 0.2299(10)
H4A H -0.1818 0.2121 0.2525
C7A C -0.1455(3) 0.2896(3) 0.2069(9)
H5A H -0.1087 0.2746 0.2097
C8A C -0.3402(3) 0.2435(3) 0.2558(9)
C9A C -0.3749(3) 0.1920(3) 0.3025(9)
C10A C -0.3612(3) 0.1337(3) 0.2817(9)
H6A H -0.3276 0.1239 0.2352
C11A C -0.3955(3) 0.0904(3) 0.3274(9)
H7A H -0.3864 0.0508 0.3083
C12A C -0.4579(3) 0.1603(3) 0.4246(9)
H8A H -0.4913 0.1690 0.4740
C13A C -0.4238(3) 0.2045(3) 0.3763(10)
H9A H -0.4338 0.2440 0.3936
Pb1B Pb -0.5000 -0.045144(12) 0.2500
Pb1B_2 Pb 0.5000 -0.045144(12) 0.2500
Pb1F Pb -0.5000 0.045144(12) 0.7500
Pb1F_2 Pb 0.5000 0.045144(12) -0.2500
O4B O -0.0245(2) 0.5608(2) 0.0542(7)
O4C O 0.0245(2) 0.5608(2) 0.4458(7)
O4F O 0.0245(2) 0.4392(2) -0.0542(7)
O4G O -0.0245(2) 0.4392(2) 0.5542(7)
O5 O 0.2728(2) 0.3760(2) -0.1752(9)
N3 N 0.3273(3) 0.4327(4) 0.0141(13)
C14 C 0.3309(6) 0.4753(8) 0.155(2)
H10 H 0.2933 0.4892 0.1701
H11 H 0.3539 0.5082 0.1254
H12 H 0.3480 0.4574 0.2671
C15 C 0.3793(4) 0.4064(6) -0.024(2)
H13 H 0.3714 0.3777 -0.1201
H14 H 0.3977 0.3871 0.0833
H15 H 0.4040 0.4367 -0.0616
C16 C 0.2794(4) 0.4131(5) -0.0690(15)
H16 H 0.2464 0.4313 -0.0386
O6 O 0.0000 0.0037(13) 0.2500
O7 O 0.4703(5) 0.3234(6) 0.418(2)
O8 O 0.1875(3) 0.5039(3) 0.1199(9)
O9 O 0.0000 0.2396(9) 0.2500
O10? O 0.0455(13) 0.0653(14) 0.517(5)
loop_
_geom_bond_atom_site_label_1
_geom_bond_atom_site_label_2
_geom_bond_site_symmetry_1
_geom_bond_site_symmetry_2
Pb1 O1 1_555 1_555
O1 C1 1_555 1_555
O2 Pb1 1_555 1_555
O3 C8 1_555 1_555
O4 N2 1_555 1_555
N1 H1 1_555 1_555
N2 C11 1_555 1_555
C1 O2 1_555 1_555
C2 C1 1_555 1_555
C3 C2 1_555 1_555
H2 C3 1_555 1_555
C4 C3 1_555 1_555
H3 C4 1_555 1_555
C5 N1 1_555 1_555
C6 C5 1_555 1_555
H4 C6 1_555 1_555
C7 C2 1_555 1_555
H5 C7 1_555 1_555
C8 N1 1_555 1_555
C9 C8 1_555 1_555
C10 C9 1_555 1_555
H6 C10 1_555 1_555
C11 C10 1_555 1_555
H7 C11 1_555 1_555
C12 N2 1_555 1_555
H8 C12 1_555 1_555
C13 C9 1_555 1_555
H9 C13 1_555 1_555
O5 C16 1_555 1_555
N3 C14 1_555 1_555
C14 H10 1_555 1_555
H11 C14 1_555 1_555
H12 C14 1_555 1_555
C15 N3 1_555 1_555
H13 C15 1_555 1_555
H14 C15 1_555 1_555
H15 C15 1_555 1_555
C16 N3 1_555 1_555
H16 C16 1_555 1_555
O1A Pb1 1_555 1_555
O2A Pb1 1_555 1_555
O3A C8A 1_555 1_555
O4A N2A 1_555 1_555
N1A H1A 1_555 1_555
N2A C11A 1_555 1_555
C1A O1A 1_555 1_555
C2A C1A 1_555 1_555
C3A C2A 1_555 1_555
H2A C3A 1_555 1_555
C4A C3A 1_555 1_555
H3A C4A 1_555 1_555
C5A N1A 1_555 1_555
C6A C5A 1_555 1_555
H4A C6A 1_555 1_555
C7A C2A 1_555 1_555
H5A C7A 1_555 1_555
C8A N1A 1_555 1_555
C9A C8A 1_555 1_555
C10A C9A 1_555 1_555
H6A C10A 1_555 1_555
C11A C10A 1_555 1_555
H7A C11A 1_555 1_555
C12A N2A 1_555 1_555
H8A C12A 1_555 1_555
C13A C9A 1_555 1_555
H9A C13A 1_555 1_555
Pb1B O4A 1_555 1_555
Pb1B_2 O4 1_555 1_555
Pb1F O4A 1_555 1_555
Pb1F_2 O4 1_555 1_555
O4B Pb1 1_555 1_555
O4C Pb1 1_555 1_555
O4F Pb1 1_555 1_555
O4G Pb1 1_555 1_555
C4 C5 1_555 1_555
C6 C7 1_555 1_555
C12 C13 1_555 1_555
O2A C1A 1_555 1_555
C4A C5A 1_555 1_555
C6A C7A 1_555 1_555
C12A C13A 1_555 1_555

#END
