
#######################################################################
#
#                 Cambridge Crystallographic Data Centre
#                                CCDC 
#
#######################################################################
#
# If this CIF has been generated from an entry in the Cambridge 
# Structural Database, then it will include bibliographic, chemical, 
# crystal, experimental, refinement or atomic coordinate data resulting 
# from the CCDC's data processing and validation procedures.
#
#######################################################################

data_TILDIC
_symmetry_cell_setting           monoclinic
_symmetry_space_group_name_H-M   'C 2/c'
_symmetry_Int_Tables_number      15
_space_group_name_Hall           '-C 2yn'
loop_
_symmetry_equiv_pos_site_id
_symmetry_equiv_pos_as_xyz
1 x,y,z
2 1/2+x,1/2+y,z
3 -x,y,1/2-z
4 1/2-x,1/2+y,1/2-z
5 -x,-y,-z
6 1/2-x,1/2-y,-z
7 x,-y,1/2+z
8 1/2+x,1/2-y,1/2+z
_cell_length_a                   7.942(2)
_cell_length_b                   14.950(2)
_cell_length_c                   19.644(4)
_cell_angle_alpha                90
_cell_angle_beta                 94.544(14)
_cell_angle_gamma                90
_cell_volume                     2325.06
loop_
_atom_site_label
_atom_site_type_symbol
_atom_site_fract_x
_atom_site_fract_y
_atom_site_fract_z
Tb1 Tb 0.74368(3) 0.462868(16) 0.487740(13)
O1 O 0.6472(5) 0.4461(3) 0.3692(2)
O2 O 0.6665(5) 0.3224(3) 0.4283(2)
O3 O 0.7674(5) 0.6133(3) 0.4413(2)
O4 O 0.5118(5) 0.5778(3) 0.4664(2)
O5 O 0.5058(5) 0.9552(3) 0.4394(2)
O6 O 0.7651(5) 0.9529(3) 0.4083(2)
O7 O 0.8840(5) 0.3555(3) 0.5606(2)
H1 H 0.8604 0.3004 0.5642
H2 H 0.9867 0.3628 0.5752
C1 C 0.6307(7) 0.3633(4) 0.3719(3)
C2 C 0.5732(7) 0.3095(4) 0.3096(3)
H3 H 0.4884 0.2669 0.3218
H4 H 0.6685 0.2758 0.2952
C3 C 0.5000 0.3656(6) 0.2500
H5 H 0.5869 0.4034 0.2345
C4 C 0.6129(7) 0.6346(4) 0.4438(3)
C5 C 0.5479(8) 0.7249(4) 0.4218(4)
H6 H 0.5567 0.7645 0.4610
H7 H 0.4292 0.7196 0.4065
C6 C 0.6401(9) 0.7673(4) 0.3649(3)
H8 H 0.6308 0.7284 0.3253
H9 H 0.7590 0.7730 0.3798
C7 C 0.5685(7) 0.8606(4) 0.3443(3)
H10 H 0.6142 0.8799 0.3024
H11 H 0.4466 0.8570 0.3362
C8 C 0.6137(7) 0.9269(4) 0.3996(3)
Tb1B Tb 0.25632(3) 0.462868(16) 0.012260(13)
Tb1D Tb 0.25632(3) 0.537132(16) 0.512260(13)
Tb1A Tb 0.24368(3) 0.962868(16) 0.487740(13)
Tb1E Tb 0.75632(3) 1.037132(16) 0.512260(13)
Tb1A_2 Tb 0.24368(3) -0.037132(16) 0.487740(13)
Tb1E_2 Tb 0.75632(3) 0.037132(16) 0.512260(13)
O1B O 0.3528(5) 0.4461(3) 0.1308(2)
O2B O 0.3335(5) 0.3224(3) 0.0717(2)
O3D O 0.2326(5) 0.3867(3) 0.5587(2)
O3B O 0.2326(5) 0.6133(3) 0.0587(2)
O4D O 0.4882(5) 0.4222(3) 0.5336(2)
O4F O 0.5118(5) 0.4222(3) -0.0336(2)
O4B O 0.4882(5) 0.5778(3) 0.0336(2)
O5D O 0.4942(5) 0.0448(3) 0.5606(2)
O5A O 1.0058(5) 0.4552(3) 0.4394(2)
O5E O 0.9942(5) 0.5448(3) 0.5606(2)
O5G O 0.0058(5) 0.5448(3) -0.0606(2)
O5C O -0.0058(5) 0.4552(3) 0.0606(2)
O6D O 0.2349(5) 0.0471(3) 0.5917(2)
O6E O 0.7349(5) 0.5471(3) 0.5917(2)
O6G O 0.2651(5) 0.5471(3) -0.0917(2)
O7B O 0.1160(5) 0.3555(3) -0.0606(2)
H1B H 0.1396 0.3004 -0.0642
H2B H 0.0133 0.3628 -0.0752
C1B C 0.3693(7) 0.3633(4) 0.1281(3)
C2B C 0.4268(7) 0.3095(4) 0.1904(3)
H3B H 0.5116 0.2669 0.1782
H4B H 0.3315 0.2758 0.2048
H5B H 0.4131 0.4034 0.2655
C4D C 0.3871(7) 0.3654(4) 0.5562(3)
C5D C 0.4521(8) 0.2751(4) 0.5782(4)
H6D H 0.4433 0.2355 0.5390
H7D H 0.5708 0.2804 0.5935
C6D C 0.3599(9) 0.2327(4) 0.6351(3)
H8D H 0.3692 0.2716 0.6747
H9D H 0.2410 0.2270 0.6202
C7D C 0.4315(7) 0.1394(4) 0.6557(3)
H10D H 0.3858 0.1201 0.6976
H11D H 0.5534 0.1430 0.6638
C8D C 0.3863(7) 0.0731(4) 0.6004(3)
O8 O 0.379(2) 0.5917(6) 0.2985(5)
H12 H 0.4843 0.5873 0.2946
H13 H 0.3434 0.5453 0.3180
O9 O 0.876(2) 0.5696(10) 0.2826(8)
H14 H 0.9034 0.5594 0.3246
H15 H 0.8118 0.5284 0.2657
loop_
_geom_bond_atom_site_label_1
_geom_bond_atom_site_label_2
_geom_bond_site_symmetry_1
_geom_bond_site_symmetry_2
Tb1 O1 1_555 1_555
O1 C1 1_555 1_555
O2 Tb1 1_555 1_555
O3 Tb1 1_555 1_555
O4 Tb1 1_555 1_555
O5 C8 1_555 1_555
O6 C8 1_555 1_555
O7 Tb1 1_555 1_555
H1 O7 1_555 1_555
H2 O7 1_555 1_555
C1 O2 1_555 1_555
C2 C1 1_555 1_555
H3 C2 1_555 1_555
H4 C2 1_555 1_555
C3 C2 1_555 1_555
H5 C3 1_555 1_555
C4 O3 1_555 1_555
C5 C4 1_555 1_555
H6 C5 1_555 1_555
H7 C5 1_555 1_555
C6 C5 1_555 1_555
H8 C6 1_555 1_555
H9 C6 1_555 1_555
C7 C6 1_555 1_555
H10 C7 1_555 1_555
H11 C7 1_555 1_555
C8 C7 1_555 1_555
O8 H12 1_555 1_555
H13 O8 1_555 1_555
O9 H14 1_555 1_555
H15 O9 1_555 1_555
Tb1B O1B 1_555 1_555
Tb1D O4 1_555 1_555
Tb1A O5 1_555 1_555
Tb1E O5 1_555 1_555
Tb1A_2 O5D 1_555 1_555
Tb1E_2 O5D 1_555 1_555
O1B C1B 1_555 1_555
O2B Tb1B 1_555 1_555
O3D Tb1D 1_555 1_555
O3B Tb1B 1_555 1_555
O4D Tb1 1_555 1_555
O4F Tb1B 1_555 1_555
O4B Tb1B 1_555 1_555
O5D C8D 1_555 1_555
O5A Tb1 1_555 1_555
O5E Tb1 1_555 1_555
O5G Tb1B 1_555 1_555
O5C Tb1B 1_555 1_555
O6D Tb1A_2 1_555 1_555
O6E Tb1 1_555 1_555
O6G Tb1B 1_555 1_555
O7B Tb1B 1_555 1_555
H1B O7B 1_555 1_555
H2B O7B 1_555 1_555
C1B O2B 1_555 1_555
C2B C3 1_555 1_555
H3B C2B 1_555 1_555
H4B C2B 1_555 1_555
H5B C3 1_555 1_555
C4D O3D 1_555 1_555
C5D C4D 1_555 1_555
H6D C5D 1_555 1_555
H7D C5D 1_555 1_555
C6D C5D 1_555 1_555
H8D C6D 1_555 1_555
H9D C6D 1_555 1_555
C7D C6D 1_555 1_555
H10D C7D 1_555 1_555
H11D C7D 1_555 1_555
C8D O6D 1_555 1_555
O4 C4 1_555 1_555
O6 Tb1E 1_555 1_555
Tb1D O4D 1_555 1_555
O4D C4D 1_555 1_555
C1B C2B 1_555 1_555
C7D C8D 1_555 1_555

#END
