
#######################################################################
#
#                 Cambridge Crystallographic Data Centre
#                                CCDC 
#
#######################################################################
#
# If this CIF has been generated from an entry in the Cambridge 
# Structural Database, then it will include bibliographic, chemical, 
# crystal, experimental, refinement or atomic coordinate data resulting 
# from the CCDC's data processing and validation procedures.
#
#######################################################################

data_TISNEQ
_symmetry_cell_setting           monoclinic
_symmetry_space_group_name_H-M   'P 21/n'
_symmetry_Int_Tables_number      14
_space_group_name_Hall           '-P 2yn'
loop_
_symmetry_equiv_pos_site_id
_symmetry_equiv_pos_as_xyz
1 x,y,z
2 1/2-x,1/2+y,1/2-z
3 -x,-y,-z
4 1/2+x,1/2-y,1/2+z
_cell_length_a                   10.4405(7)
_cell_length_b                   20.4540(14)
_cell_length_c                   13.3926(8)
_cell_angle_alpha                90
_cell_angle_beta                 94.425(6)
_cell_angle_gamma                90
_cell_volume                     2851.46
loop_
_atom_site_label
_atom_site_type_symbol
_atom_site_fract_x
_atom_site_fract_y
_atom_site_fract_z
Zn1 Zn 0.25341(3) 0.103099(14) 0.56273(2)
C1 C 0.4515(3) -0.06665(14) 0.5930(2)
H1 H 0.4720 -0.1081 0.5704
C2 C 0.4517(3) 0.01996(13) 0.67956(18)
H2 H 0.4713 0.0515 0.7283
C3 C 0.6083(3) -0.06571(14) 0.74406(17)
C4 C 0.7014(3) -0.02512(13) 0.78798(18)
H3 H 0.7016 0.0192 0.7726
C5 C 0.7950(3) -0.05144(14) 0.8557(2)
C6 C 0.7964(3) -0.11714(15) 0.8748(2)
H4 H 0.8605 -0.1349 0.9188
C7 C 0.7020(3) -0.15749(14) 0.8286(2)
H5 H 0.7028 -0.2021 0.8420
C8 C 0.6075(3) -0.13139(15) 0.7632(2)
H6 H 0.5439 -0.1580 0.7325
C9 C 0.9640(3) -0.02997(13) 0.98143(19)
H7 H 1.0230 -0.0635 0.9619
H8 H 0.9132 -0.0475 1.0328
C10 C 0.0196(3) 0.00950(13) 0.3508(2)
H9 H -0.0150 -0.0280 0.3202
C11 C 0.0541(3) 0.10770(15) 0.38910(18)
H10 H 0.0492 0.1531 0.3911
C12 C -0.1210(2) 0.09084(13) 0.25385(17)
C13 C -0.1993(2) 0.04435(13) 0.20602(18)
H11 H -0.1885 0.0003 0.2215
C14 C -0.2950(3) 0.06443(14) 0.13421(18)
C15 C -0.3125(3) 0.12970(15) 0.1116(2)
H12 H -0.3764 0.1432 0.0638
C16 C -0.2322(3) 0.17464(14) 0.1620(2)
H13 H -0.2430 0.2189 0.1476
C17 C -0.1371(3) 0.15565(14) 0.2325(2)
H14 H -0.0842 0.1867 0.2655
C18 C -0.4675(3) 0.03193(13) 0.01470(18)
H15 H -0.4292 0.0514 -0.0420
H16 H -0.5283 0.0626 0.0396
C19 C 0.0955(3) 0.17759(12) 0.81331(18)
C20 C -0.0347(3) 0.16669(13) 0.7986(2)
H17 H -0.0658 0.1372 0.7497
C21 C -0.1197(3) 0.19901(13) 0.8555(2)
H18 H -0.2074 0.1911 0.8450
C22 C -0.0743(3) 0.24322(12) 0.92843(18)
C23 C 0.0563(3) 0.25208(12) 0.94613(19)
H19 H 0.0875 0.2806 0.9964
C24 C 0.1420(3) 0.21905(12) 0.88992(18)
H20 H 0.2300 0.2246 0.9035
C25 C 0.1849(3) 0.14802(13) 0.7446(2)
C26 C -0.1680(3) 0.28585(14) 0.9770(2)
N1 N 0.3641(2) 0.02644(10) 0.60549(14)
N2 N 0.3646(2) -0.02956(11) 0.54895(16)
N3 N 0.5095(2) -0.03828(10) 0.67599(15)
N4 N 0.1343(2) 0.07354(10) 0.44548(14)
N5 N 0.1131(2) 0.00892(11) 0.42149(16)
N6 N -0.0210(2) 0.07033(10) 0.32744(14)
O1 O 0.88297(19) -0.00825(9) 0.89685(14)
O2 O -0.37015(18) 0.01460(9) 0.09221(13)
O3 O 0.13388(17) 0.12663(8) 0.66118(13)
O4 O 0.3015(2) 0.14672(10) 0.76556(15)
O5 O -0.28403(19) 0.27605(8) 0.96543(14)
O6 O -0.11785(17) 0.33335(8) 1.02952(13)
C1B C 1.5485(3) 0.06665(14) 1.4070(2)
H1B H 1.5280 0.1081 1.4296
C2B C 1.5483(3) -0.01996(13) 1.32044(18)
H2B H 1.5287 -0.0515 1.2717
C3B C 1.3917(3) 0.06571(14) 1.25594(17)
C4B C 1.2986(3) 0.02512(13) 1.21202(18)
H3B H 1.2984 -0.0192 1.2274
C5B C 1.2050(3) 0.05144(14) 1.1443(2)
C6B C 1.2036(3) 0.11714(15) 1.1252(2)
H4B H 1.1395 0.1349 1.0812
C7B C 1.2980(3) 0.15749(14) 1.1714(2)
H5B H 1.2972 0.2021 1.1580
C8B C 1.3925(3) 0.13139(15) 1.2368(2)
H6B H 1.4561 0.1580 1.2675
C9B C 1.0360(3) 0.02997(13) 1.01857(19)
H7B H 0.9770 0.0635 1.0381
H8B H 1.0868 0.0475 0.9672
N1B N 1.6359(2) -0.02644(10) 1.39451(14)
N2B N 1.6354(2) 0.02956(11) 1.45105(16)
N3B N 1.4905(2) 0.03828(10) 1.32401(15)
O1B O 1.11703(19) 0.00825(9) 1.10315(14)
C10B C -1.0196(3) -0.00950(13) -0.3508(2)
H9B H -0.9850 0.0280 -0.3202
C11B C -1.0541(3) -0.10770(15) -0.38910(18)
H10B H -1.0492 -0.1531 -0.3911
C12B C -0.8790(2) -0.09084(13) -0.25385(17)
C13B C -0.8007(2) -0.04435(13) -0.20602(18)
H11B H -0.8115 -0.0003 -0.2215
C14B C -0.7050(3) -0.06443(14) -0.13421(18)
C15B C -0.6875(3) -0.12970(15) -0.1116(2)
H12B H -0.6236 -0.1432 -0.0638
C16B C -0.7678(3) -0.17464(14) -0.1620(2)
H13B H -0.7570 -0.2189 -0.1476
C17B C -0.8629(3) -0.15565(14) -0.2325(2)
H14B H -0.9158 -0.1867 -0.2655
C18B C -0.5325(3) -0.03193(13) -0.01470(18)
H15B H -0.5708 -0.0514 0.0420
H16B H -0.4717 -0.0626 -0.0396
N4B N -1.1343(2) -0.07354(10) -0.44548(14)
N5B N -1.1131(2) -0.00892(11) -0.42149(16)
N6B N -0.9790(2) -0.07033(10) -0.32744(14)
O2B O -0.62985(18) -0.01460(9) -0.09221(13)
Zn1B Zn -1.25341(3) -0.103099(14) -0.56273(2)
C19B C -1.0955(3) -0.17759(12) -0.81331(18)
C20B C -0.9653(3) -0.16669(13) -0.7986(2)
H17B H -0.9342 -0.1372 -0.7497
C21B C -0.8803(3) -0.19901(13) -0.8555(2)
H18B H -0.7926 -0.1911 -0.8450
C22B C -0.9257(3) -0.24322(12) -0.92843(18)
C23B C -1.0563(3) -0.25208(12) -0.94613(19)
H19B H -1.0875 -0.2806 -0.9964
C24B C -1.1420(3) -0.21905(12) -0.88992(18)
H20B H -1.2300 -0.2246 -0.9035
C25B C -1.1849(3) -0.14802(13) -0.7446(2)
C26B C -0.8320(3) -0.28585(14) -0.9770(2)
O3B O -1.13388(17) -0.12663(8) -0.66118(13)
O4B O -1.3015(2) -0.14672(10) -0.76556(15)
O5B O -0.71597(19) -0.27605(8) -0.96543(14)
O6B O -0.88215(17) -0.33335(8) -1.02952(13)
Zn1A Zn -0.75341(3) -0.396901(14) -1.06273(2)
Zn1B_2 Zn 1.74659(3) -0.103099(14) 1.43727(2)
Zn1C Zn -0.24659(3) 0.396901(14) 1.06273(2)
N1B_2 N -1.3641(2) -0.02644(10) -0.60549(14)
O6A O -1.38215(17) -0.16665(8) -0.52952(13)
O6C O 0.38215(17) 0.16665(8) 0.52952(13)
O7 O 0.2485(3) -0.12717(13) 0.4056(2)
H21 H 0.199(4) -0.1464(16) 0.446(3)
H22 H 0.250(4) -0.0856(5) 0.416(3)
O8 O -0.0625(2) 0.21323(16) 0.5511(2)
H23 H -0.039(3) 0.2408(18) 0.508(3)
H24 H 0.000(3) 0.1903(19) 0.578(3)
O9 O 0.5812(3) 0.1732(2) 0.7170(2)
H25 H 0.639(3) 0.157(2) 0.680(3)
H26 H 0.5051(17) 0.165(2) 0.691(3)
O10 O 0.4847(3) 0.19541(17) 0.9116(2)
H27 H 0.440(3) 0.169(2) 0.872(3)
H28 H 0.551(3) 0.210(2) 0.883(3)
loop_
_geom_bond_atom_site_label_1
_geom_bond_atom_site_label_2
_geom_bond_site_symmetry_1
_geom_bond_site_symmetry_2
Zn1 N1 1_555 1_555
C1 H1 1_555 1_555
C2 H2 1_555 1_555
C3 C4 1_555 1_555
C4 H3 1_555 1_555
C5 C4 1_555 1_555
C6 C5 1_555 1_555
H4 C6 1_555 1_555
C7 C6 1_555 1_555
H5 C7 1_555 1_555
C8 C3 1_555 1_555
H6 C8 1_555 1_555
C9 H7 1_555 1_555
H8 C9 1_555 1_555
C10 H9 1_555 1_555
C11 H10 1_555 1_555
C12 C13 1_555 1_555
C13 H11 1_555 1_555
C14 C13 1_555 1_555
C15 C14 1_555 1_555
H12 C15 1_555 1_555
C16 C15 1_555 1_555
H13 C16 1_555 1_555
C17 C12 1_555 1_555
H14 C17 1_555 1_555
C18 H15 1_555 1_555
H16 C18 1_555 1_555
C19 C20 1_555 1_555
C20 H17 1_555 1_555
C21 C20 1_555 1_555
H18 C21 1_555 1_555
C22 C21 1_555 1_555
C23 C22 1_555 1_555
H19 C23 1_555 1_555
C24 C19 1_555 1_555
H20 C24 1_555 1_555
C25 C19 1_555 1_555
C26 C22 1_555 1_555
N1 C2 1_555 1_555
N2 C1 1_555 1_555
N3 C1 1_555 1_555
N4 Zn1 1_555 1_555
N5 C10 1_555 1_555
N6 C10 1_555 1_555
O1 C5 1_555 1_555
O2 C14 1_555 1_555
O3 Zn1 1_555 1_555
O4 C25 1_555 1_555
O5 C26 1_555 1_555
O6 C26 1_555 1_555
O7 H21 1_555 1_555
H22 O7 1_555 1_555
O8 H23 1_555 1_555
H24 O8 1_555 1_555
O9 H25 1_555 1_555
H26 O9 1_555 1_555
O10 H27 1_555 1_555
H28 O10 1_555 1_555
C1B H1B 1_555 1_555
C2B H2B 1_555 1_555
C3B C4B 1_555 1_555
C4B H3B 1_555 1_555
C5B C4B 1_555 1_555
C6B C5B 1_555 1_555
H4B C6B 1_555 1_555
C7B C6B 1_555 1_555
H5B C7B 1_555 1_555
C8B C3B 1_555 1_555
H6B C8B 1_555 1_555
C9B C9 1_555 1_555
H7B C9B 1_555 1_555
H8B C9B 1_555 1_555
N1B C2B 1_555 1_555
N2B C1B 1_555 1_555
N3B C1B 1_555 1_555
O1B C5B 1_555 1_555
C10B H9B 1_555 1_555
C11B H10B 1_555 1_555
C12B C13B 1_555 1_555
C13B H11B 1_555 1_555
C14B C13B 1_555 1_555
C15B C14B 1_555 1_555
H12B C15B 1_555 1_555
C16B C15B 1_555 1_555
H13B C16B 1_555 1_555
C17B C12B 1_555 1_555
H14B C17B 1_555 1_555
C18B C18 1_555 1_555
H15B C18B 1_555 1_555
H16B C18B 1_555 1_555
N4B C11B 1_555 1_555
N5B C10B 1_555 1_555
N6B C10B 1_555 1_555
O2B C14B 1_555 1_555
Zn1B N4B 1_555 1_555
C19B C20B 1_555 1_555
C20B H17B 1_555 1_555
C21B C20B 1_555 1_555
H18B C21B 1_555 1_555
C22B C21B 1_555 1_555
C23B C22B 1_555 1_555
H19B C23B 1_555 1_555
C24B C19B 1_555 1_555
H20B C24B 1_555 1_555
C25B C19B 1_555 1_555
C26B C22B 1_555 1_555
O3B Zn1B 1_555 1_555
O4B C25B 1_555 1_555
O5B C26B 1_555 1_555
O6B C26B 1_555 1_555
Zn1A O6B 1_555 1_555
Zn1B_2 N1B 1_555 1_555
Zn1C O6 1_555 1_555
N1B_2 Zn1B 1_555 1_555
O6A Zn1B 1_555 1_555
O6C Zn1 1_555 1_555
C2 N3 1_555 1_555
C3 N3 1_555 1_555
C7 C8 1_555 1_555
C9 O1 1_555 1_555
C11 N4 1_555 1_555
C11 N6 1_555 1_555
C12 N6 1_555 1_555
C16 C17 1_555 1_555
C18 O2 1_555 1_555
C23 C24 1_555 1_555
C25 O3 1_555 1_555
N1 N2 1_555 1_555
N4 N5 1_555 1_555
C2B N3B 1_555 1_555
C3B N3B 1_555 1_555
C7B C8B 1_555 1_555
C9B O1B 1_555 1_555
N1B N2B 1_555 1_555
C11B N6B 1_555 1_555
C12B N6B 1_555 1_555
C16B C17B 1_555 1_555
C18B O2B 1_555 1_555
N4B N5B 1_555 1_555
C23B C24B 1_555 1_555
C25B O3B 1_555 1_555

#END
