
#######################################################################
#
#                 Cambridge Crystallographic Data Centre
#                                CCDC 
#
#######################################################################
#
# If this CIF has been generated from an entry in the Cambridge 
# Structural Database, then it will include bibliographic, chemical, 
# crystal, experimental, refinement or atomic coordinate data resulting 
# from the CCDC's data processing and validation procedures.
#
#######################################################################

data_TOKDON
_symmetry_cell_setting           monoclinic
_symmetry_space_group_name_H-M   'P 21/c'
_symmetry_Int_Tables_number      14
_space_group_name_Hall           '-P 2ybc'
loop_
_symmetry_equiv_pos_site_id
_symmetry_equiv_pos_as_xyz
1 x,y,z
2 -x,1/2+y,1/2-z
3 -x,-y,-z
4 x,1/2-y,1/2+z
_cell_length_a                   10.1561(11)
_cell_length_b                   12.2843(13)
_cell_length_c                   14.6867(16)
_cell_angle_alpha                90
_cell_angle_beta                 102.9990(10)
_cell_angle_gamma                90
_cell_volume                     1785.37
loop_
_atom_site_label
_atom_site_type_symbol
_atom_site_fract_x
_atom_site_fract_y
_atom_site_fract_z
C1 C 0.2202(5) 0.9313(3) 0.2237(3)
C2 C 0.2595(4) 0.8426(3) 0.2944(3)
C3 C 0.3917(4) 0.8044(3) 0.3211(3)
H1 H 0.4591 0.8368 0.2968
C4 C 0.4241(4) 0.7187(3) 0.3835(3)
C5 C 0.5666(4) 0.6760(3) 0.4075(3)
C6 C 0.3236(4) 0.6706(3) 0.4195(3)
H2 H 0.3449 0.6132 0.4616
C7 C 0.1910(4) 0.7073(3) 0.3932(3)
C8 C 0.0804(4) 0.6538(3) 0.4297(3)
C9 C 0.1601(4) 0.7932(3) 0.3313(3)
H3 H 0.0715 0.8183 0.3141
Cd1 Cd 0.18952(3) 1.07570(2) 0.061100(19)
O1 O 0.3064(3) 0.9636(3) 0.1801(2)
O2 O 0.1025(3) 0.9688(3) 0.2072(2)
H11 H 0.0470 0.9276 0.1709
O3 O -0.0385(3) 0.6832(3) 0.3952(2)
O4 O 0.1095(4) 0.5854(3) 0.4931(3)
O5 O 0.5957(3) 0.6024(3) 0.4681(2)
O6 O 0.6501(3) 0.7126(3) 0.3644(2)
O7 O 0.1191(4) 1.1382(4) -0.0899(3)
H12 H 0.0475 1.1724 -0.0869
H13 H 0.0914 1.0797 -0.1190
C1A C -0.2202(5) 1.4313(3) 0.2763(3)
C2A C -0.2595(4) 1.3426(3) 0.2056(3)
C3A C -0.3917(4) 1.3044(3) 0.1789(3)
H1A H -0.4591 1.3368 0.2032
C4A C -0.4241(4) 1.2187(3) 0.1165(3)
C5A C -0.5666(4) 1.1760(3) 0.0925(3)
C6A C -0.3236(4) 1.1706(3) 0.0805(3)
H2A H -0.3449 1.1132 0.0384
C7A C -0.1910(4) 1.2073(3) 0.1068(3)
C8A C -0.0804(4) 1.1538(3) 0.0703(3)
C9A C -0.1601(4) 1.2932(3) 0.1687(3)
H3A H -0.0715 1.3183 0.1859
Cd1A Cd -0.18952(3) 1.57570(2) 0.438900(19)
Cd1A_2 Cd -0.18952(3) 0.57570(2) 0.438900(19)
Cd1C Cd 0.18952(3) 0.42430(2) 0.561100(19)
Cd1A_3 Cd 0.81048(3) 0.57570(2) 0.438900(19)
Cd1B Cd -0.18952(3) 0.92430(2) -0.061100(19)
Cd1_2 Cd -0.81048(3) 1.07570(2) 0.061100(19)
O1A O -0.3064(3) 1.4636(3) 0.3199(2)
O2A O -0.1025(3) 1.4688(3) 0.2928(2)
H11A H -0.0470 1.4276 0.3291
O3A O 0.0385(3) 1.1832(3) 0.1048(2)
O3_2 O -0.0385(3) 1.6832(3) 0.3952(2)
O4A O -0.1095(4) 1.0854(3) 0.0069(3)
O4C O 0.1095(4) 0.9146(3) -0.0069(3)
O4B O -0.1095(4) 1.4146(3) 0.5069(3)
O5A O -0.5957(3) 1.1024(3) 0.0319(2)
O5A_2 O 0.4043(3) 1.1024(3) 0.0319(2)
O5_2 O -0.4043(3) 1.6024(3) 0.4681(2)
O6A O -0.6501(3) 1.2126(3) 0.1356(2)
O6A_2 O 0.3499(3) 1.2126(3) 0.1356(2)
O6_2 O -0.3499(3) 1.7126(3) 0.3644(2)
O7A O -0.1191(4) 1.6382(4) 0.5899(3)
H12A H -0.0475 1.6724 0.5869
H13A H -0.0914 1.5797 0.6190
C10 C 0.2155(6) 0.9771(4) 0.7144(4)
H4 H 0.2618 1.0243 0.7600
C11 C 0.0567(7) 0.8846(6) 0.6259(5)
H5 H -0.0281 0.8568 0.5983
C12 C 0.1721(7) 0.8563(6) 0.6046(5)
H6 H 0.1829 0.8050 0.5603
C13 C 0.4172(6) 0.9099(5) 0.6621(4)
H7 H 0.4456 0.8344 0.6696
H8 H 0.4661 0.9496 0.7163
C14 C 0.4561(5) 0.9556(4) 0.5751(3)
C15 C 0.5740(6) 0.9216(4) 0.5545(4)
H9 H 0.6251 0.8682 0.5913
C16 C 0.3809(6) 1.0351(5) 0.5195(4)
H10 H 0.3001 1.0592 0.5322
N1 N 0.2717(5) 0.9158(3) 0.6595(3)
N2 N 0.0826(5) 0.9607(4) 0.6943(3)
C10B C 0.7845(6) 1.0229(4) 0.2856(4)
H4B H 0.7382 0.9757 0.2400
C11B C 0.9433(7) 1.1154(6) 0.3741(5)
H5B H 1.0281 1.1432 0.4017
C12B C 0.8279(7) 1.1437(6) 0.3954(5)
H6B H 0.8171 1.1950 0.4397
C13B C 0.5828(6) 1.0901(5) 0.3379(4)
H7B H 0.5544 1.1656 0.3304
H8B H 0.5339 1.0504 0.2837
C14B C 0.5439(5) 1.0444(4) 0.4249(3)
C15B C 0.4260(6) 1.0784(4) 0.4455(4)
H9B H 0.3749 1.1318 0.4087
C16B C 0.6191(6) 0.9649(5) 0.4805(4)
H10B H 0.6999 0.9408 0.4678
N1B N 0.7283(5) 1.0842(3) 0.3405(3)
N2B N 0.9174(5) 1.0393(4) 0.3057(3)
O8 O 0.2026(4) 0.2500(4) 0.7796(3)
H14 H 0.1690 0.2606 0.7219
H15 H 0.2732 0.2111 0.7852
O9 O 0.5518(4) 0.8784(4) 0.1485(2)
H16 H 0.5594 0.8866 0.0925
H17 H 0.4767 0.9054 0.1536
loop_
_geom_bond_atom_site_label_1
_geom_bond_atom_site_label_2
_geom_bond_site_symmetry_1
_geom_bond_site_symmetry_2
C1 C2 1_555 1_555
C2 C3 1_555 1_555
C3 H1 1_555 1_555
C4 C3 1_555 1_555
C5 C4 1_555 1_555
C6 C4 1_555 1_555
H2 C6 1_555 1_555
C7 C6 1_555 1_555
C8 C7 1_555 1_555
C9 C2 1_555 1_555
H3 C9 1_555 1_555
C10 H4 1_555 1_555
C11 H5 1_555 1_555
C12 C11 1_555 1_555
H6 C12 1_555 1_555
C13 H7 1_555 1_555
H8 C13 1_555 1_555
C14 C13 1_555 1_555
C15 C14 1_555 1_555
H9 C15 1_555 1_555
C16 C14 1_555 1_555
H10 C16 1_555 1_555
Cd1 O1 1_555 1_555
N1 C10 1_555 1_555
N2 C10 1_555 1_555
O1 C1 1_555 1_555
O2 C1 1_555 1_555
H11 O2 1_555 1_555
O3 C8 1_555 1_555
O4 C8 1_555 1_555
O5 C5 1_555 1_555
O6 C5 1_555 1_555
O7 Cd1 1_555 1_555
H12 O7 1_555 1_555
H13 O7 1_555 1_555
O8 H14 1_555 1_555
H15 O8 1_555 1_555
O9 H16 1_555 1_555
H17 O9 1_555 1_555
C1A C2A 1_555 1_555
C2A C3A 1_555 1_555
C3A H1A 1_555 1_555
C4A C3A 1_555 1_555
C5A C4A 1_555 1_555
C6A C4A 1_555 1_555
H2A C6A 1_555 1_555
C7A C6A 1_555 1_555
C8A C7A 1_555 1_555
C9A C2A 1_555 1_555
H3A C9A 1_555 1_555
C10B H4B 1_555 1_555
C11B H5B 1_555 1_555
C12B C11B 1_555 1_555
H6B C12B 1_555 1_555
C13B H7B 1_555 1_555
H8B C13B 1_555 1_555
C14B C13B 1_555 1_555
C15B C16 1_555 1_555
H9B C15B 1_555 1_555
C16B C15 1_555 1_555
H10B C16B 1_555 1_555
Cd1A O1A 1_555 1_555
Cd1A_2 O3 1_555 1_555
Cd1C O4 1_555 1_555
Cd1A_3 O5 1_555 1_555
Cd1B O4A 1_555 1_555
Cd1_2 O5A 1_555 1_555
N1B C10B 1_555 1_555
N2B C10B 1_555 1_555
O1A C1A 1_555 1_555
O2A C1A 1_555 1_555
H11A O2A 1_555 1_555
O3A Cd1 1_555 1_555
O3_2 Cd1A 1_555 1_555
O4A C8A 1_555 1_555
O4C Cd1 1_555 1_555
O4B Cd1A 1_555 1_555
O5A C5A 1_555 1_555
O5A_2 Cd1 1_555 1_555
O5_2 Cd1A 1_555 1_555
O6A C5A 1_555 1_555
O6A_2 Cd1 1_555 1_555
O6_2 Cd1A 1_555 1_555
O7A Cd1A 1_555 1_555
H12A O7A 1_555 1_555
H13A O7A 1_555 1_555
C7 C9 1_555 1_555
C11 N2 1_555 1_555
C12 N1 1_555 1_555
C13 N1 1_555 1_555
O6 Cd1A_3 1_555 1_555
C7A C9A 1_555 1_555
C8A O3A 1_555 1_555
C11B N2B 1_555 1_555
C12B N1B 1_555 1_555
C13B N1B 1_555 1_555
C14B C15B 1_555 1_555
C14B C16B 1_555 1_555
Cd1_2 O6A 1_555 1_555

#END
