
#######################################################################
#
#                 Cambridge Crystallographic Data Centre
#                                CCDC 
#
#######################################################################
#
# If this CIF has been generated from an entry in the Cambridge 
# Structural Database, then it will include bibliographic, chemical, 
# crystal, experimental, refinement or atomic coordinate data resulting 
# from the CCDC's data processing and validation procedures.
#
#######################################################################

data_TORJAN
_symmetry_cell_setting           orthorhombic
_symmetry_space_group_name_H-M   'P n m a'
_symmetry_Int_Tables_number      62
_space_group_name_Hall           '-P 2ac 2n'
loop_
_symmetry_equiv_pos_site_id
_symmetry_equiv_pos_as_xyz
1 x,y,z
2 1/2-x,-y,1/2+z
3 -x,1/2+y,-z
4 1/2+x,1/2-y,1/2-z
5 -x,-y,-z
6 1/2+x,y,1/2-z
7 x,1/2-y,z
8 1/2-x,1/2+y,1/2+z
_cell_length_a                   10.913(3)
_cell_length_b                   16.542(4)
_cell_length_c                   19.793(5)
_cell_angle_alpha                90
_cell_angle_beta                 90
_cell_angle_gamma                90
_cell_volume                     3573.09
loop_
_atom_site_label
_atom_site_type_symbol
_atom_site_fract_x
_atom_site_fract_y
_atom_site_fract_z
N1 N 0.4177(10) 0.2500 1.0287(6)
Tb1 Tb 0.29329(6) 0.2500 0.70436(3)
O1 O 0.1886(9) 0.2500 0.8056(5)
O2 O -0.0069(10) 0.2500 0.8321(6)
O3 O 0.3407(12) 0.2500 1.1501(6)
H1 H 0.3463 0.2500 1.1914
O4 O 0.1431(12) 0.2500 1.1732(6)
O5 O 0.3643(7) -0.1455(5) 1.1869(4)
O6 O 0.2193(8) -0.1549(5) 1.1112(5)
C1 C 0.1027(12) 0.2500 0.8466(7)
C2 C 0.1337(13) 0.2500 0.9207(7)
C3 C 0.0425(13) 0.2500 0.9697(8)
H2 H -0.0396 0.2500 0.9573
C4 C 0.0750(13) 0.2500 1.0371(7)
H3 H 0.0137 0.2500 1.0698
C5 C 0.1975(13) 0.2500 1.0576(7)
C6 C 0.2895(12) 0.2500 1.0090(7)
C7 C 0.2569(13) 0.2500 0.9388(7)
H4 H 0.3175 0.2500 0.9058
C8 C 0.2229(15) 0.2500 1.1325(8)
C9 C 0.4842(10) 0.1761(6) 1.0045(5)
H5 H 0.5710 0.1816 1.0141
H6 H 0.4743 0.1709 0.9560
C10 C 0.4350(9) 0.1006(6) 1.0392(5)
C11 C 0.4819(10) 0.0754(7) 1.1009(6)
H7 H 0.5416 0.1065 1.1220
C12 C 0.4424(10) 0.0053(7) 1.1316(6)
H8 H 0.4758 -0.0099 1.1729
C13 C 0.3531(9) -0.0432(6) 1.1015(5)
C14 C 0.3050(9) -0.0171(7) 1.0402(6)
H9 H 0.2445 -0.0479 1.0194
C15 C 0.3444(10) 0.0529(6) 1.0094(5)
H10 H 0.3103 0.0685 0.9684
C16 C 0.3114(10) -0.1185(7) 1.1341(6)
O7 O 0.3902(7) 0.1440(5) 0.7658(5)
H11 H 0.4512 0.1654 0.7857
H12 H 0.3552 0.1143 0.7951
O5F O 0.3643(7) 0.6455(5) 1.1869(4)
O6F O 0.2193(8) 0.6549(5) 1.1112(5)
C9F C 0.4842(10) 0.3239(6) 1.0045(5)
H5F H 0.5710 0.3184 1.0141
H6F H 0.4743 0.3291 0.9560
C10F C 0.4350(9) 0.3994(6) 1.0392(5)
C11F C 0.4819(10) 0.4246(7) 1.1009(6)
H7F H 0.5416 0.3935 1.1220
C12F C 0.4424(10) 0.4947(7) 1.1316(6)
H8F H 0.4758 0.5099 1.1729
C13F C 0.3531(9) 0.5432(6) 1.1015(5)
C14F C 0.3050(9) 0.5171(7) 1.0402(6)
H9F H 0.2445 0.5479 1.0194
C15F C 0.3444(10) 0.4471(6) 1.0094(5)
H10F H 0.3103 0.4315 0.9684
C16F C 0.3114(10) 0.6185(7) 1.1341(6)
O7F O 0.3902(7) 0.3560(5) 0.7658(5)
H11F H 0.4512 0.3346 0.7857
H12F H 0.3552 0.3857 0.7951
Tb1A Tb 0.20671(6) -0.2500 1.20436(3)
Tb1A_2 Tb 0.20671(6) 0.7500 1.20436(3)
Tb1C Tb -0.20671(6) 0.2500 0.79564(3)
O2C O 0.4931(10) 0.2500 0.6679(6)
O5A O 0.1357(7) 0.1455(5) 0.6869(4)
O5G O 0.1357(7) 0.3545(5) 0.6869(4)
O6A O 0.2807(8) 0.1549(5) 0.6112(5)
O6G O 0.2807(8) 0.3451(5) 0.6112(5)
O8 O 0.2391(13) 0.0642(9) 0.8489(8)
C17 C 0.1593(13) 0.0171(9) 0.8485(8)
N2 N 0.1618(15) -0.0604(10) 0.8169(9)
C18 C 0.0440(16) 0.0238(11) 0.8913(10)
H13 H -0.0035 0.0710 0.8785
H14 H 0.0644 0.0276 0.9389
C19 C 0.044(2) -0.1016(13) 0.8216(12)
H15 H 0.0549 -0.1577 0.8347
H16 H 0.0011 -0.0998 0.7787
C20 C -0.028(2) -0.0548(16) 0.8763(16)
H17 H -0.0347 -0.0872 0.9169
H18 H -0.1094 -0.0421 0.8603
C21 C 0.243(2) -0.0747(18) 0.7613(13)
H19 H 0.3173 -0.0447 0.7679
H20 H 0.2043 -0.0575 0.7201
H21 H 0.2613 -0.1313 0.7586
O9 O 0.097(4) 0.2500 1.311(2)
H22 H 0.0205 0.2500 1.3030
H23 H 0.1130 0.2500 1.2668
loop_
_geom_bond_atom_site_label_1
_geom_bond_atom_site_label_2
_geom_bond_site_symmetry_1
_geom_bond_site_symmetry_2
N1 C6 1_555 1_555
Tb1 O1 1_555 1_555
O1 C1 1_555 1_555
O2 C1 1_555 1_555
O3 H1 1_555 1_555
O4 C8 1_555 1_555
O5 C16 1_555 1_555
O6 C16 1_555 1_555
C1 C2 1_555 1_555
C2 C3 1_555 1_555
C3 H2 1_555 1_555
C4 C3 1_555 1_555
H3 C4 1_555 1_555
C5 C4 1_555 1_555
C6 C5 1_555 1_555
C7 C2 1_555 1_555
H4 C7 1_555 1_555
C8 O3 1_555 1_555
C9 N1 1_555 1_555
H5 C9 1_555 1_555
H6 C9 1_555 1_555
C10 C9 1_555 1_555
C11 C10 1_555 1_555
H7 C11 1_555 1_555
C12 C11 1_555 1_555
H8 C12 1_555 1_555
C13 C12 1_555 1_555
C14 C13 1_555 1_555
H9 C14 1_555 1_555
C15 C10 1_555 1_555
H10 C15 1_555 1_555
C16 C13 1_555 1_555
O7 Tb1 1_555 1_555
H11 O7 1_555 1_555
H12 O7 1_555 1_555
O8 C17 1_555 1_555
C17 N2 1_555 1_555
N2 C19 1_555 1_555
C18 C17 1_555 1_555
H13 C18 1_555 1_555
H14 C18 1_555 1_555
C19 H15 1_555 1_555
H16 C19 1_555 1_555
C20 C18 1_555 1_555
H17 C20 1_555 1_555
H18 C20 1_555 1_555
C21 N2 1_555 1_555
H19 C21 1_555 1_555
H20 C21 1_555 1_555
H21 C21 1_555 1_555
O9 H22 1_555 1_555
H23 O9 1_555 1_555
O5F C16F 1_555 1_555
O6F C16F 1_555 1_555
C9F N1 1_555 1_555
H5F C9F 1_555 1_555
H6F C9F 1_555 1_555
C10F C9F 1_555 1_555
C11F C10F 1_555 1_555
H7F C11F 1_555 1_555
C12F C11F 1_555 1_555
H8F C12F 1_555 1_555
C13F C12F 1_555 1_555
C14F C13F 1_555 1_555
H9F C14F 1_555 1_555
C15F C10F 1_555 1_555
H10F C15F 1_555 1_555
C16F C13F 1_555 1_555
O7F Tb1 1_555 1_555
H11F O7F 1_555 1_555
H12F O7F 1_555 1_555
Tb1A O5 1_555 1_555
Tb1A_2 O5F 1_555 1_555
Tb1C O2 1_555 1_555
O2C Tb1 1_555 1_555
O5A Tb1 1_555 1_555
O5G Tb1 1_555 1_555
O6A Tb1 1_555 1_555
O6G Tb1 1_555 1_555
O6 Tb1A 1_555 1_555
C5 C8 1_555 1_555
C6 C7 1_555 1_555
C14 C15 1_555 1_555
C19 C20 1_555 1_555
O6F Tb1A_2 1_555 1_555
C14F C15F 1_555 1_555

#END
