
#######################################################################
#
#                 Cambridge Crystallographic Data Centre
#                                CCDC 
#
#######################################################################
#
# If this CIF has been generated from an entry in the Cambridge 
# Structural Database, then it will include bibliographic, chemical, 
# crystal, experimental, refinement or atomic coordinate data resulting 
# from the CCDC's data processing and validation procedures.
#
#######################################################################

data_TOVJOF
_symmetry_cell_setting           monoclinic
_symmetry_space_group_name_H-M   'P 21/c'
_symmetry_Int_Tables_number      14
_space_group_name_Hall           '-P 2ybc'
loop_
_symmetry_equiv_pos_site_id
_symmetry_equiv_pos_as_xyz
1 x,y,z
2 -x,1/2+y,1/2-z
3 -x,-y,-z
4 x,1/2-y,1/2+z
_cell_length_a                   25.085(3)
_cell_length_b                   18.549(3)
_cell_length_c                   35.494(5)
_cell_angle_alpha                90
_cell_angle_beta                 91.607(2)
_cell_angle_gamma                90
_cell_volume                     16508.9
loop_
_atom_site_label
_atom_site_type_symbol
_atom_site_fract_x
_atom_site_fract_y
_atom_site_fract_z
Fe1 Fe 0.29576(3) 0.27735(3) 0.373486(18)
Fe2 Fe 0.17759(3) 0.35149(3) 0.384853(18)
Fe3 Fe 0.25669(3) 0.41146(3) 0.319368(18)
O1 O 0.16812(12) 0.24389(14) 0.39106(8)
O2 O 0.24665(13) 0.19458(16) 0.37419(10)
O3 O -0.18161(12) -0.09309(15) 0.20343(8)
O4 O -0.13303(11) -0.15750(15) 0.16398(9)
O5 O 0.16743(12) -0.54017(15) 0.38120(9)
O6 O 0.23787(13) -0.50043(16) 0.34835(10)
O7 O 0.16095(14) -0.15050(17) 0.38714(16)
O8 O 0.21534(12) 0.36421(14) 0.43610(8)
O9 O 0.28774(13) 0.29656(16) 0.42836(8)
O10 O 0.64131(11) 0.65399(17) 0.62512(9)
O11 O 0.66666(12) 0.56905(14) 0.66565(8)
O12 O 0.31344(13) 0.25126(16) 0.82132(9)
O13 O 0.27826(12) 0.16617(16) 0.78277(8)
O14 O 0.2742(2) 0.3587(3) 0.62284(12)
C1 C 0.1982(2) 0.1922(3) 0.38074(14)
C2 C 0.16875(14) 0.12002(13) 0.37502(8)
C3 C 0.11394(14) 0.11211(15) 0.37809(8)
H1 H 0.0929 0.1518 0.3857
C4 C 0.08996(10) 0.0461(2) 0.36999(8)
H2 H 0.0525 0.0407 0.3721
C5 C 0.12079(15) -0.01191(13) 0.35882(8)
C6 C 0.17560(15) -0.00400(15) 0.35575(8)
H3 H 0.1967 -0.0437 0.3481
C7 C 0.19958(10) 0.0620(2) 0.36385(8)
H4 H 0.2370 0.0674 0.3617
C8 C 0.09620(13) -0.08200(13) 0.34592(9)
C9 C 0.05156(13) -0.08022(13) 0.32184(8)
H5 H 0.0365 -0.0353 0.3143
C10 C 0.02893(10) -0.14420(19) 0.30873(8)
C11 C 0.05095(13) -0.20995(14) 0.31969(9)
H6 H 0.0355 -0.2537 0.3107
C12 C 0.09560(13) -0.21173(13) 0.34377(9)
C13 C 0.11823(10) -0.14776(18) 0.35688(8)
C14 C 0.1942(2) -0.4918(3) 0.36434(15)
C15 C 0.16805(16) -0.41716(14) 0.36371(9)
C16 C 0.19784(10) -0.3603(2) 0.34987(9)
H7 H 0.2341 -0.3676 0.3438
C17 C 0.17458(16) -0.29284(16) 0.34491(8)
H8 H 0.1949 -0.2540 0.3354
C18 C 0.12154(16) -0.28221(14) 0.35379(9)
C19 C 0.09176(11) -0.3391(2) 0.36763(9)
H9 H 0.0555 -0.3318 0.3737
C20 C 0.11501(15) -0.40653(17) 0.37259(8)
H10 H 0.0947 -0.4454 0.3820
C21 C -0.1401(2) -0.1286(3) 0.19479(16)
C22 C -0.09700(12) -0.13372(18) 0.22460(9)
C23 C -0.05353(16) -0.17878(15) 0.21943(8)
H11 H -0.0515 -0.2069 0.1972
C24 C -0.01298(11) -0.18265(14) 0.24685(11)
H12 H 0.0167 -0.2134 0.2433
C25 C -0.01588(12) -0.14146(18) 0.27945(9)
C26 C -0.05934(16) -0.09640(15) 0.28462(8)
H13 H -0.0613 -0.0683 0.3069
C27 C -0.09990(11) -0.09253(15) 0.25720(11)
H14 H -0.1296 -0.0617 0.2607
C28 C 0.2612(2) 0.3392(3) 0.44689(15)
C29 C 0.28251(19) 0.36325(17) 0.48348(8)
C30 C 0.25120(11) 0.39575(17) 0.51036(13)
H15 H 0.2146 0.4051 0.5049
C31 C 0.27351(17) 0.41462(16) 0.54527(10)
H16 H 0.2521 0.4368 0.5636
C32 C 0.32712(18) 0.40100(18) 0.55330(9)
C33 C 0.35842(11) 0.36850(19) 0.52643(14)
H17 H 0.3951 0.3592 0.5319
C34 C 0.33612(18) 0.34963(16) 0.49152(11)
H18 H 0.3575 0.3274 0.4731
C35 C 0.40060(17) 0.45399(18) 0.59423(10)
H19 H 0.4154 0.4751 0.5725
C36 C 0.35269(16) 0.4165(2) 0.59116(9)
C37 C 0.33098(12) 0.38564(18) 0.62295(13)
C38 C 0.35718(17) 0.39225(18) 0.65781(10)
C39 C 0.40508(17) 0.4297(2) 0.66088(9)
H20 H 0.4230 0.4343 0.6847
C40 C 0.42680(12) 0.46060(17) 0.62909(13)
C41 C 0.30130(19) 0.2266(3) 0.78857(15)
C42 C 0.31252(12) 0.2700(2) 0.75498(11)
C43 C 0.30866(12) 0.23913(15) 0.71932(15)
H21 H 0.2970 0.1906 0.7165
C44 C 0.32178(13) 0.2792(3) 0.68783(10)
H22 H 0.3191 0.2582 0.6635
C45 C 0.33877(13) 0.3502(3) 0.69199(11)
C46 C 0.34264(12) 0.38104(15) 0.72765(15)
H23 H 0.3542 0.4295 0.7305
C47 C 0.32951(13) 0.3409(2) 0.75915(9)
H24 H 0.3322 0.3620 0.7835
C48 C 0.6324(2) 0.5974(3) 0.64277(15)
C49 C 0.57978(12) 0.5626(2) 0.63903(10)
C50 C 0.56921(15) 0.5003(2) 0.65921(8)
H25 H 0.5961 0.4797 0.6753
C51 C 0.51932(18) 0.46790(15) 0.65589(9)
H26 H 0.5121 0.4253 0.6697
C52 C 0.48000(12) 0.4979(2) 0.63240(11)
C53 C 0.49057(15) 0.5603(2) 0.61222(8)
H27 H 0.4637 0.5808 0.5962
C54 C 0.54046(18) 0.59263(15) 0.61553(9)
H28 H 0.5477 0.6353 0.6017
C55 C 0.1269(7) -0.1522(18) 0.4285(4)
H29 H 0.1200 -0.1040 0.4393
H30 H 0.0940 -0.1818 0.4274
C56 C 0.1749(9) -0.1905(8) 0.4460(4)
H31 H 0.1682 -0.2016 0.4727
H32 H 0.1807 -0.2365 0.4326
C57 C 0.2237(7) -0.1445(13) 0.4437(4)
H33 H 0.2197 -0.1100 0.4225
H34 H 0.2553 -0.1751 0.4393
C58 C 0.2310(9) -0.1040(9) 0.4807(4)
H35 H 0.1970 -0.0800 0.4868
H36 H 0.2583 -0.0661 0.4778
C59 C 0.2482(10) -0.1542(12) 0.5139(4)
H37 H 0.2350 -0.2036 0.5085
H38 H 0.2876 -0.1562 0.5156
C60 C 0.2274(9) -0.1299(14) 0.5517(3)
H39 H 0.2377 -0.1651 0.5712
H40 H 0.1884 -0.1262 0.5500
H41 H 0.2427 -0.0828 0.5583
C61 C 0.2300(5) 0.3873(10) 0.6438(5)
H42 H 0.2363 0.4392 0.6486
H43 H 0.2293 0.3628 0.6686
C62 C 0.1775(5) 0.3789(7) 0.6248(5)
H44 H 0.1769 0.4071 0.6011
H45 H 0.1498 0.3988 0.6412
C63 C 0.1643(5) 0.3026(9) 0.6159(5)
H46 H 0.1957 0.2724 0.6225
H47 H 0.1577 0.2984 0.5883
C64 C 0.1163(6) 0.2724(9) 0.6357(4)
H48 H 0.1259 0.2234 0.6447
H49 H 0.1109 0.3023 0.6584
C65 C 0.0635(5) 0.2668(9) 0.6150(5)
H50 H 0.0679 0.2875 0.5895
H51 H 0.0380 0.2981 0.6281
C66 C 0.0382(5) 0.1945(10) 0.6102(6)
H52 H 0.0036 0.1997 0.5969
H53 H 0.0330 0.1728 0.6350
H54 H 0.0614 0.1633 0.5955
O15 O 0.24357(9) 0.34563(12) 0.35901(7)
O16 O 0.10531(11) 0.35527(14) 0.41356(7)
O17 O 0.27131(11) 0.48284(15) 0.27436(8)
O18 O 0.35314(10) 0.20047(13) 0.39068(7)
Fe1B Fe 0.70424(3) 0.72265(3) 0.626514(18)
Fe1C Fe 0.29576(3) 0.22265(3) 0.873486(18)
Fe2_2 Fe 0.17759(3) -0.64851(3) 0.384853(18)
Fe2A Fe -0.17759(3) -0.14851(3) 0.115147(18)
Fe3_2 Fe 0.25669(3) -0.58854(3) 0.319368(18)
Fe3A Fe -0.25669(3) -0.08854(3) 0.180632(18)
Fe3B Fe 0.74331(3) 0.58854(3) 0.680632(18)
Fe3C Fe 0.25669(3) 0.08854(3) 0.819368(18)
O3A O 0.18161(12) 0.40691(15) 0.29657(8)
O4A O 0.13303(11) 0.34250(15) 0.33602(9)
O5_2 O 0.16743(12) 0.45983(15) 0.38120(9)
O6_2 O 0.23787(13) 0.49957(16) 0.34835(10)
O10B O 0.35869(11) 0.34601(17) 0.37488(9)
O11B O 0.33334(12) 0.43095(14) 0.33435(8)
O12C O 0.31344(13) 0.24874(16) 0.32132(9)
O13C O 0.27826(12) 0.33383(16) 0.28277(8)
loop_
_geom_bond_atom_site_label_1
_geom_bond_atom_site_label_2
_geom_bond_site_symmetry_1
_geom_bond_site_symmetry_2
Fe1 O2 1_555 1_555
Fe2 O1 1_555 1_555
Fe3 O15 1_555 1_555
O1 C1 1_555 1_555
O2 C1 1_555 1_555
O3 C21 1_555 1_555
O4 C21 1_555 1_555
O5 C14 1_555 1_555
O6 C14 1_555 1_555
O7 C13 1_555 1_555
O8 Fe2 1_555 1_555
O9 Fe1 1_555 1_555
O10 C48 1_555 1_555
O11 C48 1_555 1_555
O12 C41 1_555 1_555
O13 C41 1_555 1_555
O14 C37 1_555 1_555
C1 C2 1_555 1_555
C2 C3 1_555 1_555
C3 H1 1_555 1_555
C4 C3 1_555 1_555
H2 C4 1_555 1_555
C5 C4 1_555 1_555
C6 C5 1_555 1_555
H3 C6 1_555 1_555
C7 C2 1_555 1_555
H4 C7 1_555 1_555
C8 C5 1_555 1_555
C9 C8 1_555 1_555
H5 C9 1_555 1_555
C10 C9 1_555 1_555
C11 C10 1_555 1_555
H6 C11 1_555 1_555
C12 C11 1_555 1_555
C13 C8 1_555 1_555
C14 C15 1_555 1_555
C15 C16 1_555 1_555
C16 H7 1_555 1_555
C17 C16 1_555 1_555
H8 C17 1_555 1_555
C18 C12 1_555 1_555
C19 C18 1_555 1_555
H9 C19 1_555 1_555
C20 C15 1_555 1_555
H10 C20 1_555 1_555
C21 C22 1_555 1_555
C22 C23 1_555 1_555
C23 H11 1_555 1_555
C24 C23 1_555 1_555
H12 C24 1_555 1_555
C25 C10 1_555 1_555
C26 C25 1_555 1_555
H13 C26 1_555 1_555
C27 C22 1_555 1_555
H14 C27 1_555 1_555
C28 O8 1_555 1_555
C29 C28 1_555 1_555
C30 C29 1_555 1_555
H15 C30 1_555 1_555
C31 C30 1_555 1_555
H16 C31 1_555 1_555
C32 C31 1_555 1_555
C33 C32 1_555 1_555
H17 C33 1_555 1_555
C34 C29 1_555 1_555
H18 C34 1_555 1_555
C35 H19 1_555 1_555
C36 C32 1_555 1_555
C37 C36 1_555 1_555
C38 C37 1_555 1_555
C39 C38 1_555 1_555
H20 C39 1_555 1_555
C40 C35 1_555 1_555
C41 C42 1_555 1_555
C42 C43 1_555 1_555
C43 H21 1_555 1_555
C44 C43 1_555 1_555
H22 C44 1_555 1_555
C45 C38 1_555 1_555
C46 C45 1_555 1_555
H23 C46 1_555 1_555
C47 C42 1_555 1_555
H24 C47 1_555 1_555
C48 C49 1_555 1_555
C49 C50 1_555 1_555
C50 H25 1_555 1_555
C51 C50 1_555 1_555
H26 C51 1_555 1_555
C52 C40 1_555 1_555
C53 C52 1_555 1_555
H27 C53 1_555 1_555
C54 C49 1_555 1_555
H28 C54 1_555 1_555
C55 O7 1_555 1_555
H29 C55 1_555 1_555
H30 C55 1_555 1_555
C56 C55 1_555 1_555
H31 C56 1_555 1_555
H32 C56 1_555 1_555
C57 C56 1_555 1_555
H33 C57 1_555 1_555
H34 C57 1_555 1_555
C58 C57 1_555 1_555
H35 C58 1_555 1_555
H36 C58 1_555 1_555
C59 C58 1_555 1_555
H37 C59 1_555 1_555
H38 C59 1_555 1_555
C60 C59 1_555 1_555
H39 C60 1_555 1_555
H40 C60 1_555 1_555
H41 C60 1_555 1_555
C61 O14 1_555 1_555
H42 C61 1_555 1_555
H43 C61 1_555 1_555
C62 C61 1_555 1_555
H44 C62 1_555 1_555
H45 C62 1_555 1_555
C63 C62 1_555 1_555
H46 C63 1_555 1_555
H47 C63 1_555 1_555
C64 C63 1_555 1_555
H48 C64 1_555 1_555
H49 C64 1_555 1_555
C65 C64 1_555 1_555
H50 C65 1_555 1_555
H51 C65 1_555 1_555
C66 C65 1_555 1_555
H52 C66 1_555 1_555
H53 C66 1_555 1_555
H54 C66 1_555 1_555
O15 Fe1 1_555 1_555
O16 Fe2 1_555 1_555
O17 Fe3 1_555 1_555
O18 Fe1 1_555 1_555
Fe1B O10 1_555 1_555
Fe1C O12 1_555 1_555
Fe2_2 O5 1_555 1_555
Fe2A O4 1_555 1_555
Fe3_2 O6 1_555 1_555
Fe3A O3 1_555 1_555
Fe3B O11 1_555 1_555
Fe3C O13 1_555 1_555
O3A Fe3 1_555 1_555
O4A Fe2 1_555 1_555
O5_2 Fe2 1_555 1_555
O6_2 Fe3 1_555 1_555
O10B Fe1 1_555 1_555
O11B Fe3 1_555 1_555
O12C Fe1 1_555 1_555
O13C Fe3 1_555 1_555
Fe2 O15 1_555 1_555
O9 C28 1_555 1_555
C6 C7 1_555 1_555
C12 C13 1_555 1_555
C17 C18 1_555 1_555
C19 C20 1_555 1_555
C24 C25 1_555 1_555
C26 C27 1_555 1_555
C33 C34 1_555 1_555
C35 C36 1_555 1_555
C39 C40 1_555 1_555
C44 C45 1_555 1_555
C46 C47 1_555 1_555
C51 C52 1_555 1_555
C53 C54 1_555 1_555

#END
