
#######################################################################
#
#                 Cambridge Crystallographic Data Centre
#                                CCDC 
#
#######################################################################
#
# If this CIF has been generated from an entry in the Cambridge 
# Structural Database, then it will include bibliographic, chemical, 
# crystal, experimental, refinement or atomic coordinate data resulting 
# from the CCDC's data processing and validation procedures.
#
#######################################################################

data_TOVJIZ
_symmetry_cell_setting           monoclinic
_symmetry_space_group_name_H-M   'P 21/c'
_symmetry_Int_Tables_number      14
_space_group_name_Hall           '-P 2ybc'
loop_
_symmetry_equiv_pos_site_id
_symmetry_equiv_pos_as_xyz
1 x,y,z
2 -x,1/2+y,1/2-z
3 -x,-y,-z
4 x,1/2-y,1/2+z
_cell_length_a                   24.688(4)
_cell_length_b                   18.375(3)
_cell_length_c                   35.257(6)
_cell_angle_alpha                90
_cell_angle_beta                 90.345(2)
_cell_angle_gamma                90
_cell_volume                     15993.8
loop_
_atom_site_label
_atom_site_type_symbol
_atom_site_fract_x
_atom_site_fract_y
_atom_site_fract_z
Fe1 Fe 0.17181(2) 0.65951(2) 0.108720(14)
Fe2 Fe 0.29304(2) 0.73408(2) 0.121374(14)
Fe3 Fe 0.25434(2) 0.59545(2) 0.174614(15)
O1 O 0.16389(10) 0.76830(11) 0.10398(6)
O2 O 0.24175(11) 0.81835(10) 0.12217(7)
O3 O -0.17847(10) 1.09803(11) 0.30484(7)
O4 O -0.12819(8) 1.16880(11) 0.34205(6)
O5 O 0.16149(10) 1.54916(11) 0.11210(6)
O6 O 0.23457(11) 1.50943(11) 0.14293(8)
O7 O 0.02642(15) 1.28932(14) 0.19393(11)
H1 H -0.0046 1.2841 0.2032
O8 O 0.20848(10) 0.64478(10) 0.05783(6)
O9 O 0.28094(10) 0.71668(12) 0.06651(7)
O10 O 0.27493(10) 0.82753(13) -0.28831(7)
O11 O 0.31252(10) 0.74143(13) -0.32542(7)
O12 O 0.66796(9) 0.42070(12) -0.16131(7)
O13 O 0.64471(9) 0.33684(12) -0.11850(7)
O14 O 0.42032(19) 0.5079(4) -0.06187(14)
H2 H 0.4503 0.5268 -0.0562
O15 O 0.10034(10) 0.65706(12) 0.07909(7)
O16 O 0.34901(10) 0.81058(12) 0.10559(7)
O17 O 0.26862(10) 0.52231(13) 0.21752(8)
O18 O 0.23818(8) 0.66408(9) 0.13471(6)
C1 C 0.19136(18) 0.82100(16) 0.11517(11)
C2 C -0.13812(15) 1.13674(16) 0.31135(10)
C3 C 0.1894(2) 1.50072(18) 0.12859(12)
C4 C 0.25330(17) 0.66972(19) 0.04818(10)
C5 C 0.29927(13) 0.7665(2) -0.29333(11)
C6 C 0.63581(14) 0.39198(19) -0.13742(11)
C7 C 0.16422(13) 0.89114(14) 0.12403(9)
C8 C 0.10814(13) 0.89500(14) 0.12495(8)
H3 H 0.0869 0.8533 0.1192
C9 C 0.08307(13) 0.96065(14) 0.13435(8)
H4 H 0.0447 0.9632 0.1353
C10 C 0.11369(14) 1.02214(14) 0.14237(10)
C11 C 0.17031(13) 1.01691(14) 0.14148(9)
H5 H 0.1917 1.0586 0.1470
C12 C 0.19580(13) 0.95126(14) 0.13255(9)
H6 H 0.2342 0.9480 0.1323
C13 C 0.08876(12) 1.09168(14) 0.15555(9)
C14 C 0.04499(11) 1.09128(14) 0.18067(8)
H7 H 0.0299 1.0464 0.1888
C15 C 0.02345(12) 1.15717(15) 0.19381(8)
C16 C 0.04575(13) 1.22245(14) 0.18191(9)
C17 C 0.08919(13) 1.22329(14) 0.15677(9)
C18 C 0.11050(12) 1.15810(14) 0.14390(9)
H8 H 0.1403 1.1586 0.1269
C19 C -0.01981(12) 1.15439(14) 0.22346(9)
C20 C -0.06655(12) 1.11335(13) 0.21780(9)
H9 H -0.0722 1.0886 0.1945
C21 C -0.10498(12) 1.10874(14) 0.24654(9)
H10 H -0.1370 1.0810 0.2427
C22 C -0.09667(13) 1.14450(15) 0.28084(9)
C23 C -0.05063(13) 1.18543(15) 0.28625(9)
H11 H -0.0451 1.2104 0.3095
C24 C -0.01174(13) 1.19028(15) 0.25730(9)
H12 H 0.0201 1.2184 0.2611
C25 C 0.11450(14) 1.29310(15) 0.14454(9)
C26 C 0.08453(13) 1.35029(15) 0.12977(8)
H13 H 0.0470 1.3440 0.1245
C27 C 0.10939(14) 1.41721(15) 0.12257(9)
H14 H 0.0888 1.4563 0.1123
C28 C 0.16324(14) 1.42646(15) 0.13035(10)
C29 C 0.19424(13) 1.36928(15) 0.14513(10)
H15 H 0.2317 1.3759 0.1505
C30 C 0.16956(14) 1.30276(15) 0.15180(10)
H16 H 0.1904 1.2633 0.1614
C31 C 0.27831(15) 0.64261(18) 0.01245(10)
C32 C 0.33348(14) 0.65401(16) 0.00656(9)
H17 H 0.3550 0.6769 0.0255
C33 C 0.35665(14) 0.63151(18) -0.02731(10)
H18 H 0.3942 0.6393 -0.0314
C34 C 0.32603(15) 0.5982(2) -0.05499(10)
C35 C 0.27089(14) 0.58678(19) -0.04891(9)
H19 H 0.2493 0.5637 -0.0678
C36 C 0.24777(14) 0.60920(19) -0.01524(10)
H20 H 0.2102 0.6014 -0.0112
C37 C 0.35208(14) 0.58252(19) -0.09275(9)
C38 C 0.33159(13) 0.61357(18) -0.12540(9)
H21 H 0.2990 0.6410 -0.1244
C39 C 0.35819(14) 0.60515(19) -0.16002(9)
C40 C 0.40612(14) 0.5648(2) -0.16045(9)
H22 H 0.4248 0.5592 -0.1837
C41 C 0.42708(14) 0.5331(2) -0.12830(10)
C42 C 0.39900(15) 0.5422(2) -0.09429(10)
C43 C 0.33923(14) 0.6435(2) -0.19413(10)
C44 C 0.32011(12) 0.71492(19) -0.19143(10)
H23 H 0.3163 0.7365 -0.1671
C45 C 0.30655(13) 0.75519(19) -0.22356(10)
H24 H 0.2934 0.8036 -0.2212
C46 C 0.31242(15) 0.7238(2) -0.25927(10)
C47 C 0.33131(15) 0.6532(2) -0.26206(10)
H25 H 0.3356 0.6317 -0.2864
C48 C 0.34391(15) 0.61372(19) -0.23017(10)
H26 H 0.3561 0.5650 -0.2328
C49 C 0.48088(13) 0.49549(19) -0.12920(9)
C50 C 0.52116(13) 0.52701(18) -0.15096(8)
H27 H 0.5147 0.5718 -0.1637
C51 C 0.57121(13) 0.49264(18) -0.15408(9)
H28 H 0.5988 0.5142 -0.1690
C52 C 0.58129(13) 0.42723(19) -0.13560(10)
C53 C 0.54050(14) 0.39667(19) -0.11391(10)
H29 H 0.5468 0.3522 -0.1009
C54 C 0.49052(14) 0.43066(19) -0.11109(10)
H30 H 0.4627 0.4088 -0.0965
Fe1_2 Fe 0.17181(2) 1.65951(2) 0.108720(14)
Fe1A Fe -0.17181(2) 1.15951(2) 0.391280(14)
Fe2B Fe 0.70696(2) 0.26592(2) -0.121374(14)
Fe2C Fe 0.29304(2) 0.76592(2) -0.378626(14)
Fe3_2 Fe 0.25434(2) 1.59545(2) 0.174614(15)
Fe3A Fe -0.25434(2) 1.09545(2) 0.325386(15)
Fe3B Fe 0.74566(2) 0.40455(2) -0.174614(15)
Fe3C Fe 0.25434(2) 0.90455(2) -0.325386(15)
O3A O 0.17847(10) 0.59803(11) 0.19516(7)
O4A O 0.12819(8) 0.66880(11) 0.15795(6)
O5_2 O 0.16149(10) 0.54916(11) 0.11210(6)
O6_2 O 0.23457(11) 0.50943(11) 0.14293(8)
O10C O 0.27493(10) 0.67247(13) 0.21169(7)
O11C O 0.31252(10) 0.75857(13) 0.17458(7)
O12B O 0.33204(9) 0.57930(12) 0.16131(7)
O13B O 0.35529(9) 0.66316(12) 0.11850(7)
loop_
_geom_bond_atom_site_label_1
_geom_bond_atom_site_label_2
_geom_bond_site_symmetry_1
_geom_bond_site_symmetry_2
Fe1 O1 1_555 1_555
Fe2 O2 1_555 1_555
Fe3 O17 1_555 1_555
O1 C1 1_555 1_555
O2 C1 1_555 1_555
O3 C2 1_555 1_555
O4 C2 1_555 1_555
O5 C3 1_555 1_555
O6 C3 1_555 1_555
O7 H1 1_555 1_555
O8 Fe1 1_555 1_555
O9 Fe2 1_555 1_555
O10 C5 1_555 1_555
O11 C5 1_555 1_555
O12 C6 1_555 1_555
O13 C6 1_555 1_555
O14 H2 1_555 1_555
O15 Fe1 1_555 1_555
O16 Fe2 1_555 1_555
O18 Fe1 1_555 1_555
C1 C7 1_555 1_555
C2 C22 1_555 1_555
C3 C28 1_555 1_555
C4 O8 1_555 1_555
C5 C46 1_555 1_555
C6 C52 1_555 1_555
C7 C8 1_555 1_555
C8 H3 1_555 1_555
C9 C8 1_555 1_555
H4 C9 1_555 1_555
C10 C9 1_555 1_555
C11 C10 1_555 1_555
H5 C11 1_555 1_555
C12 C7 1_555 1_555
H6 C12 1_555 1_555
C13 C10 1_555 1_555
C14 C13 1_555 1_555
H7 C14 1_555 1_555
C15 C14 1_555 1_555
C16 O7 1_555 1_555
C17 C16 1_555 1_555
C18 C13 1_555 1_555
H8 C18 1_555 1_555
C19 C15 1_555 1_555
C20 C19 1_555 1_555
H9 C20 1_555 1_555
C21 C20 1_555 1_555
H10 C21 1_555 1_555
C22 C21 1_555 1_555
C23 C22 1_555 1_555
H11 C23 1_555 1_555
C24 C19 1_555 1_555
H12 C24 1_555 1_555
C25 C17 1_555 1_555
C26 C25 1_555 1_555
H13 C26 1_555 1_555
C27 C26 1_555 1_555
H14 C27 1_555 1_555
C28 C27 1_555 1_555
C29 C28 1_555 1_555
H15 C29 1_555 1_555
C30 C25 1_555 1_555
H16 C30 1_555 1_555
C31 C4 1_555 1_555
C32 C31 1_555 1_555
H17 C32 1_555 1_555
C33 C32 1_555 1_555
H18 C33 1_555 1_555
C34 C33 1_555 1_555
C35 C34 1_555 1_555
H19 C35 1_555 1_555
C36 C31 1_555 1_555
H20 C36 1_555 1_555
C37 C34 1_555 1_555
C38 C37 1_555 1_555
H21 C38 1_555 1_555
C39 C38 1_555 1_555
C40 C39 1_555 1_555
H22 C40 1_555 1_555
C41 C40 1_555 1_555
C42 O14 1_555 1_555
C43 C39 1_555 1_555
C44 C43 1_555 1_555
H23 C44 1_555 1_555
C45 C44 1_555 1_555
H24 C45 1_555 1_555
C46 C45 1_555 1_555
C47 C46 1_555 1_555
H25 C47 1_555 1_555
C48 C43 1_555 1_555
H26 C48 1_555 1_555
C49 C41 1_555 1_555
C50 C49 1_555 1_555
H27 C50 1_555 1_555
C51 C50 1_555 1_555
H28 C51 1_555 1_555
C52 C51 1_555 1_555
C53 C52 1_555 1_555
H29 C53 1_555 1_555
C54 C49 1_555 1_555
H30 C54 1_555 1_555
Fe1_2 O5 1_555 1_555
Fe1A O4 1_555 1_555
Fe2B O13 1_555 1_555
Fe2C O11 1_555 1_555
Fe3_2 O6 1_555 1_555
Fe3A O3 1_555 1_555
Fe3B O12 1_555 1_555
Fe3C O10 1_555 1_555
O3A Fe3 1_555 1_555
O4A Fe1 1_555 1_555
O5_2 Fe1 1_555 1_555
O6_2 Fe3 1_555 1_555
O10C Fe3 1_555 1_555
O11C Fe2 1_555 1_555
O12B Fe3 1_555 1_555
O13B Fe2 1_555 1_555
Fe2 O18 1_555 1_555
Fe3 O18 1_555 1_555
O9 C4 1_555 1_555
C11 C12 1_555 1_555
C15 C16 1_555 1_555
C17 C18 1_555 1_555
C23 C24 1_555 1_555
C29 C30 1_555 1_555
C35 C36 1_555 1_555
C37 C42 1_555 1_555
C41 C42 1_555 1_555
C47 C48 1_555 1_555
C53 C54 1_555 1_555

#END
