
#######################################################################
#
#                 Cambridge Crystallographic Data Centre
#                                CCDC 
#
#######################################################################
#
# If this CIF has been generated from an entry in the Cambridge 
# Structural Database, then it will include bibliographic, chemical, 
# crystal, experimental, refinement or atomic coordinate data resulting 
# from the CCDC's data processing and validation procedures.
#
#######################################################################

data_TOVKIA
_symmetry_cell_setting           rhombohedral
_symmetry_space_group_name_H-M   'R 3 m'
_symmetry_Int_Tables_number      160
_space_group_name_Hall           'R 3 -2"'
loop_
_symmetry_equiv_pos_site_id
_symmetry_equiv_pos_as_xyz
1 x,y,z
2 -y,x-y,z
3 -x+y,-x,z
4 -x+y,y,z
5 x,x-y,z
6 -y,-x,z
7 2/3+x,1/3+y,1/3+z
8 2/3-y,1/3+x-y,1/3+z
9 2/3-x+y,1/3-x,1/3+z
10 2/3-x+y,1/3+y,1/3+z
11 2/3+x,1/3+x-y,1/3+z
12 2/3-y,1/3-x,1/3+z
13 1/3+x,2/3+y,2/3+z
14 1/3-y,2/3+x-y,2/3+z
15 1/3-x+y,2/3-x,2/3+z
16 1/3-x+y,2/3+y,2/3+z
17 1/3+x,2/3+x-y,2/3+z
18 1/3-y,2/3-x,2/3+z
_cell_length_a                   33.020(16)
_cell_length_b                   33.020(16)
_cell_length_c                   22.796(11)
_cell_angle_alpha                90
_cell_angle_beta                 90
_cell_angle_gamma                120
_cell_volume                     21525
loop_
_atom_site_label
_atom_site_type_symbol
_atom_site_fract_x
_atom_site_fract_y
_atom_site_fract_z
Fe1 Fe 0.151118(13) 0.30224(3) 0.47767(8)
Fe2 Fe 0.21658(2) 0.33416(2) 0.35831(8)
O1 O 0.16881(18) 0.25309(13) 0.4634(2)
O2 O 0.21232(14) 0.27450(13) 0.3837(2)
O3 O 0.13362(17) 0.34892(13) 0.50533(18)
O4 O 0.11009(13) 0.36913(13) 0.4269(2)
O5 O 0.0313(2) 0.48179(19) 0.9520(2)
O6 O 0.23206(12) 0.39621(12) 0.3270(2)
O7 O 0.16229(6) 0.32458(12) 0.3985(2)
O8 O 0.13970(9) 0.27940(18) 0.5637(2)
O9 O 0.27771(14) 0.34711(16) 0.31568(18)
C1 C 0.1895(3) 0.2455(2) 0.4260(4)
C2 C 0.1939(4) 0.2038(2) 0.4291(4)
C3 C 0.2180(3) 0.1946(2) 0.3860(3)
H1 H 0.2364 0.2182 0.3582
C4 C 0.2154(4) 0.1518(2) 0.3831(3)
H2 H 0.2320 0.1459 0.3535
C5 C 0.1883(4) 0.1170(2) 0.4239(4)
C6 C 0.1645(3) 0.1259(2) 0.4672(4)
H3 H 0.1465 0.1026 0.4954
C7 C 0.1669(3) 0.1692(2) 0.4695(3)
H4 H 0.1500 0.1750 0.4988
C8 C 0.1212(2) 0.3739(2) 0.4787(3)
C9 C 0.1220(3) 0.41245(19) 0.5091(2)
C10 C 0.1405(2) 0.4234(2) 0.5653(2)
H5 H 0.1522 0.4055 0.5835
C11 C 0.1417(2) 0.46097(19) 0.5952(2)
H6 H 0.1544 0.4685 0.6337
C12 C 0.1246(3) 0.4875(2) 0.5692(2)
C13 C 0.1063(3) 0.4760(2) 0.5124(2)
H7 H 0.0946 0.4940 0.4941
C14 C 0.1048(2) 0.4391(2) 0.4826(2)
H8 H 0.0920 0.4316 0.4442
C15 C 0.1176(4) 0.5221(2) 0.6019(3)
C16 C 0.1191(5) 0.5596(3) 0.5713(3)
H9 H 0.1212 0.5606 0.5297
C17 C 0.1146(4) 0.5209(2) 0.6627(3)
H10 H 0.1135 0.4955 0.6836
C18 C 0.1133(5) 0.5566(2) 0.6931(3)
C19 C 0.0927(3) 0.54636(17) 0.7543(3)
C20 C 0.0839(3) 0.50541(16) 0.7829(2)
H11 H 0.0898 0.4834 0.7635
C21 C 0.0665(3) 0.49687(17) 0.8394(2)
H12 H 0.0604 0.4689 0.8587
C22 C 0.0578(4) 0.52888(19) 0.8684(3)
C23 C 0.0374(5) 0.5187(3) 0.9294(5)
C24 C 0.20831(14) 0.4166(3) 0.3215(4)
C25 C 0.23371(9) 0.46741(18) 0.3109(5)
C26 C 0.28187(12) 0.49126(14) 0.3031(3)
H13 H 0.2983 0.4744 0.3017
C27 C 0.30628(11) 0.53983(14) 0.2973(3)
H14 H 0.3392 0.5561 0.2922
C28 C 0.28222(9) 0.56444(18) 0.2990(5)
C29 C 0.30899(5) 0.61798(9) 0.29905(19)
C30 C 0.28469(9) 0.64235(5) 0.29906(19)
H15 H 0.2515 0.6257 0.2991
O1D O 0.16881(18) -0.08428(22) 0.4634(2)
O2D O 0.21232(14) -0.06218(19) 0.3837(2)
C1D C 0.1895(3) -0.0560(4) 0.4260(4)
C2D C 0.1939(4) -0.0099(4) 0.4291(4)
C3D C 0.2180(3) 0.0234(4) 0.3860(3)
H1D H 0.2364 0.0182 0.3582
C4D C 0.2154(4) 0.0636(4) 0.3831(3)
H2D H 0.2320 0.0861 0.3535
C5D C 0.1883(4) 0.0713(4) 0.4239(4)
C6D C 0.1645(3) 0.0386(4) 0.4672(4)
H3D H 0.1465 0.0439 0.4954
C7D C 0.1669(3) -0.0023(4) 0.4695(3)
H4D H 0.1500 -0.0250 0.4988
O3D O 0.13362(17) 0.78470(21) 0.50533(18)
O4D O 0.11009(13) 0.74096(18) 0.4269(2)
O5D O 0.0313(2) 0.54951(28) 0.9520(2)
C8D C 0.1212(2) 0.7473(3) 0.4787(3)
C9D C 0.1220(3) 0.70955(36) 0.5091(2)
C10D C 0.1405(2) 0.7171(3) 0.5653(2)
H5D H 0.1522 0.7467 0.5835
C11D C 0.1417(2) 0.68073(28) 0.5952(2)
H6D H 0.1544 0.6859 0.6337
C12D C 0.1246(3) 0.6371(4) 0.5692(2)
C13D C 0.1063(3) 0.6303(4) 0.5124(2)
H7D H 0.0946 0.6006 0.4941
C14D C 0.1048(2) 0.6657(3) 0.4826(2)
H8D H 0.0920 0.6604 0.4442
C15D C 0.1176(4) 0.5955(4) 0.6019(3)
C17D C 0.1146(4) 0.5937(4) 0.6627(3)
H10D H 0.1135 0.6180 0.6836
C20D C 0.0839(3) 0.57849(34) 0.7829(2)
H11D H 0.0898 0.6064 0.7635
C21D C 0.0665(3) 0.56963(34) 0.8394(2)
H12D H 0.0604 0.5915 0.8587
O6A O 0.60379(12) 0.83585(17) 0.3270(2)
C24A C 0.5834(3) 0.79171(33) 0.3215(4)
C25A C 0.53259(18) 0.76630(20) 0.3109(5)
C26A C 0.50874(14) 0.79061(18) 0.3031(3)
H13A H 0.5256 0.8239 0.3017
C27A C 0.46017(14) 0.76645(18) 0.2973(3)
H14A H 0.4439 0.7831 0.2922
C28A C 0.43556(18) 0.71778(20) 0.2990(5)
C29A C 0.38202(9) 0.69101(10) 0.29905(19)
C30A C 0.35765(5) 0.64234(10) 0.29906(19)
H15A H 0.3743 0.6258 0.2991
O6B O 0.16415(17) 0.76794(12) 0.3270(2)
C24B C 0.20829(33) 0.79169(14) 0.3215(4)
C25B C 0.23370(20) 0.76629(9) 0.3109(5)
C26B C 0.20939(18) 0.71813(12) 0.3031(3)
H13B H 0.1761 0.7017 0.3017
C27B C 0.23355(18) 0.69372(11) 0.2973(3)
H14B H 0.2169 0.6608 0.2922
C28B C 0.28222(20) 0.71778(9) 0.2990(5)
C29B C 0.30899(10) 0.69101(5) 0.29905(19)
C30B C 0.35766(10) 0.71531(9) 0.29906(19)
H15B H 0.3742 0.7485 0.2991
O6C O 0.16415(17) 0.39621(12) 0.3270(2)
C26C C 0.20939(18) 0.49126(14) 0.3031(3)
H13C H 0.1761 0.4744 0.3017
C27C C 0.23355(18) 0.53983(14) 0.2973(3)
H14C H 0.2169 0.5561 0.2922
O6D O 0.23206(12) 0.83585(17) 0.3270(2)
C26D C 0.28187(12) 0.79061(18) 0.3031(3)
H13D H 0.2983 0.8239 0.3017
C27D C 0.30628(11) 0.76645(18) 0.2973(3)
H14D H 0.3392 0.7831 0.2922
O6E O 0.60379(12) 0.76794(12) 0.3270(2)
C26E C 0.50874(14) 0.71813(12) 0.3031(3)
H13E H 0.5256 0.7017 0.3017
C27E C 0.46017(14) 0.69372(11) 0.2973(3)
H14E H 0.4439 0.6608 0.2922
Fe1A Fe -0.30224(3) -0.151122(33) 0.47767(8)
Fe2A Fe -0.33416(2) -0.11758(3) 0.35831(8)
O1A O -0.25309(13) -0.08428(22) 0.4634(2)
O2A O -0.27450(13) -0.06218(19) 0.3837(2)
O7A O -0.32458(12) -0.16229(13) 0.3985(2)
O8A O -0.27940(18) -0.13970(20) 0.5637(2)
O9A O -0.34711(16) -0.06940(21) 0.31568(18)
C1A C -0.2455(2) -0.0560(4) 0.4260(4)
C2A C -0.2038(2) -0.0099(4) 0.4291(4)
C3A C -0.1946(2) 0.0234(4) 0.3860(3)
H1A H -0.2182 0.0182 0.3582
C4A C -0.1518(2) 0.0636(4) 0.3831(3)
H2A H -0.1459 0.0861 0.3535
C5A C -0.1170(2) 0.0713(4) 0.4239(4)
C6A C -0.1259(2) 0.0386(4) 0.4672(4)
H3A H -0.1026 0.0439 0.4954
C7A C -0.1692(2) -0.0023(4) 0.4695(3)
H4A H -0.1750 -0.0250 0.4988
O1C O 0.08428(22) 0.25309(13) 0.4634(2)
O2C O 0.06218(19) 0.27450(13) 0.3837(2)
C1C C 0.0560(4) 0.2455(2) 0.4260(4)
C2C C 0.0099(4) 0.2038(2) 0.4291(4)
C3C C -0.0234(4) 0.1946(2) 0.3860(3)
H1C H -0.0182 0.2182 0.3582
C4C C -0.0636(4) 0.1518(2) 0.3831(3)
H2C H -0.0861 0.1459 0.3535
C5C C -0.0713(4) 0.1170(2) 0.4239(4)
C6C C -0.0386(4) 0.1259(2) 0.4672(4)
H3C H -0.0439 0.1026 0.4954
C7C C 0.0023(4) 0.1692(2) 0.4695(3)
H4C H 0.0250 0.1750 0.4988
Fe1B Fe 0.151122(33) -0.151118(13) 0.47767(8)
Fe2B Fe 0.11758(3) -0.21658(2) 0.35831(8)
O1B O 0.08428(22) -0.16881(18) 0.4634(2)
O2B O 0.06218(19) -0.21232(14) 0.3837(2)
O7B O 0.16229(13) -0.16229(6) 0.3985(2)
O8B O 0.13970(20) -0.13970(9) 0.5637(2)
O9B O 0.06940(21) -0.27771(14) 0.31568(18)
C1B C 0.0560(4) -0.1895(3) 0.4260(4)
C2B C 0.0099(4) -0.1939(4) 0.4291(4)
C3B C -0.0234(4) -0.2180(3) 0.3860(3)
H1B H -0.0182 -0.2364 0.3582
C4B C -0.0636(4) -0.2154(4) 0.3831(3)
H2B H -0.0861 -0.2320 0.3535
C5B C -0.0713(4) -0.1883(4) 0.4239(4)
C6B C -0.0386(4) -0.1645(3) 0.4672(4)
H3B H -0.0439 -0.1465 0.4954
C7B C 0.0023(4) -0.1669(3) 0.4695(3)
H4B H 0.0250 -0.1500 0.4988
O1E O -0.25309(13) -0.16881(18) 0.4634(2)
O2E O -0.27450(13) -0.21232(14) 0.3837(2)
C1E C -0.2455(2) -0.1895(3) 0.4260(4)
C2E C -0.2038(2) -0.1939(4) 0.4291(4)
C3E C -0.1946(2) -0.2180(3) 0.3860(3)
H1E H -0.2182 -0.2364 0.3582
C4E C -0.1518(2) -0.2154(4) 0.3831(3)
H2E H -0.1459 -0.2320 0.3535
C5E C -0.1170(2) -0.1883(4) 0.4239(4)
C6E C -0.1259(2) -0.1645(3) 0.4672(4)
H3E H -0.1026 -0.1465 0.4954
C7E C -0.1692(2) -0.1669(3) 0.4695(3)
H4E H -0.1750 -0.1500 0.4988
Fe2C Fe 0.11758(3) 0.33416(2) 0.35831(8)
O3C O 0.21530(21) 0.34892(13) 0.50533(18)
O4C O 0.25904(18) 0.36913(13) 0.4269(2)
O5C O 0.45049(28) 0.48179(19) 0.9520(2)
O9C O 0.06940(21) 0.34711(16) 0.31568(18)
C8C C 0.2527(3) 0.3739(2) 0.4787(3)
C9C C 0.29045(36) 0.41245(19) 0.5091(2)
C10C C 0.2829(3) 0.4234(2) 0.5653(2)
H5C H 0.2533 0.4055 0.5835
C11C C 0.31927(28) 0.46097(19) 0.5952(2)
H6C H 0.3141 0.4685 0.6337
C12C C 0.3629(4) 0.4875(2) 0.5692(2)
C13C C 0.3697(4) 0.4760(2) 0.5124(2)
H7C H 0.3994 0.4940 0.4941
C14C C 0.3343(3) 0.4391(2) 0.4826(2)
H8C H 0.3396 0.4316 0.4442
C15C C 0.4045(4) 0.5221(2) 0.6019(3)
C16A C 0.4404(3) 0.5595(6) 0.5713(3)
H9A H 0.4394 0.5606 0.5297
C17C C 0.4063(4) 0.5209(2) 0.6627(3)
H10C H 0.3820 0.4955 0.6836
C18A C 0.4434(2) 0.5567(5) 0.6931(3)
C19A C 0.45364(17) 0.54634(34) 0.7543(3)
C20C C 0.42151(34) 0.50541(16) 0.7829(2)
H11C H 0.3936 0.4834 0.7635
C21C C 0.43037(34) 0.49687(17) 0.8394(2)
H12C H 0.4085 0.4689 0.8587
C22A C 0.47112(19) 0.52892(44) 0.8684(3)
C23A C 0.4813(3) 0.5187(6) 0.9294(5)
O3A O 0.65108(13) 0.78470(21) 0.50533(18)
O4A O 0.63087(13) 0.74096(18) 0.4269(2)
O5A O 0.51821(19) 0.54951(28) 0.9520(2)
C8A C 0.6261(2) 0.7473(3) 0.4787(3)
C9A C 0.58755(19) 0.70955(36) 0.5091(2)
C10A C 0.5766(2) 0.7171(3) 0.5653(2)
H5A H 0.5945 0.7467 0.5835
C11A C 0.53903(19) 0.68073(28) 0.5952(2)
H6A H 0.5315 0.6859 0.6337
C12A C 0.5125(2) 0.6371(4) 0.5692(2)
C13A C 0.5240(2) 0.6303(4) 0.5124(2)
H7A H 0.5060 0.6006 0.4941
C14A C 0.5609(2) 0.6657(3) 0.4826(2)
H8A H 0.5684 0.6604 0.4442
C15A C 0.4779(2) 0.5955(4) 0.6019(3)
C17A C 0.4791(2) 0.5937(4) 0.6627(3)
H10A H 0.5045 0.6180 0.6836
C20A C 0.49459(16) 0.57849(34) 0.7829(2)
H11A H 0.5166 0.6064 0.7635
C21A C 0.50313(17) 0.56963(34) 0.8394(2)
H12A H 0.5311 0.5915 0.8587
Fe2D Fe 0.21658(2) -0.11758(3) 0.35831(8)
O9D O 0.27771(14) -0.06940(21) 0.31568(18)
Fe2E Fe -0.33416(2) -0.21658(2) 0.35831(8)
O3E O -0.34892(13) -0.13362(17) 0.50533(18)
O4E O -0.36913(13) -0.11009(13) 0.4269(2)
O5E O -0.48179(19) -0.0313(2) 0.9520(2)
O9E O -0.34711(16) -0.27771(14) 0.31568(18)
C8E C -0.3739(2) -0.1212(2) 0.4787(3)
C9E C -0.41245(19) -0.1220(3) 0.5091(2)
C10E C -0.4234(2) -0.1405(2) 0.5653(2)
H5E H -0.4055 -0.1522 0.5835
C11E C -0.46097(19) -0.1417(2) 0.5952(2)
H6E H -0.4685 -0.1544 0.6337
C12E C -0.4875(2) -0.1246(3) 0.5692(2)
C13E C -0.4760(2) -0.1063(3) 0.5124(2)
H7E H -0.4940 -0.0946 0.4941
C14E C -0.4391(2) -0.1048(2) 0.4826(2)
H8E H -0.4316 -0.0920 0.4442
C15E C -0.5221(2) -0.1176(4) 0.6019(3)
C16B C -0.5595(6) -0.1191(5) 0.5713(3)
H9B H -0.5606 -0.1212 0.5297
C17E C -0.5209(2) -0.1146(4) 0.6627(3)
H10E H -0.4955 -0.1135 0.6836
C18B C -0.5567(5) -0.1133(5) 0.6931(3)
C19B C -0.54634(34) -0.0927(3) 0.7543(3)
C20E C -0.50541(16) -0.0839(3) 0.7829(2)
H11E H -0.4834 -0.0898 0.7635
C21E C -0.49687(17) -0.0665(3) 0.8394(2)
H12E H -0.4689 -0.0604 0.8587
C22B C -0.52892(44) -0.0578(4) 0.8684(3)
C23B C -0.5187(6) -0.0374(5) 0.9294(5)
O3B O -0.78470(21) -0.13362(17) 0.50533(18)
O4B O -0.74096(18) -0.11009(13) 0.4269(2)
O5B O -0.54951(28) -0.0313(2) 0.9520(2)
C8B C -0.7473(3) -0.1212(2) 0.4787(3)
C9B C -0.70955(36) -0.1220(3) 0.5091(2)
C10B C -0.7171(3) -0.1405(2) 0.5653(2)
H5B H -0.7467 -0.1522 0.5835
C11B C -0.68073(28) -0.1417(2) 0.5952(2)
H6B H -0.6859 -0.1544 0.6337
C12B C -0.6371(4) -0.1246(3) 0.5692(2)
C13B C -0.6303(4) -0.1063(3) 0.5124(2)
H7B H -0.6006 -0.0946 0.4941
C14B C -0.6657(3) -0.1048(2) 0.4826(2)
H8B H -0.6604 -0.0920 0.4442
C15B C -0.5955(4) -0.1176(4) 0.6019(3)
C17B C -0.5937(4) -0.1146(4) 0.6627(3)
H10B H -0.6180 -0.1135 0.6836
C20B C -0.57849(34) -0.0839(3) 0.7829(2)
H11B H -0.6064 -0.0898 0.7635
C21B C -0.56963(34) -0.0665(3) 0.8394(2)
H12B H -0.5915 -0.0604 0.8587
Fe1A_2 Fe 0.69776(3) 0.848878(33) 0.47767(8)
Fe1B_2 Fe -0.848878(33) -0.151118(13) 0.47767(8)
Fe1B_3 Fe 0.151122(33) 0.848882(13) 0.47767(8)
Fe2A_2 Fe 0.66584(2) 0.88242(3) 0.35831(8)
Fe2B_2 Fe 0.11758(3) 0.78342(2) 0.35831(8)
Fe2D_2 Fe -0.78342(2) -0.11758(3) 0.35831(8)
Fe2D_3 Fe 0.21658(2) 0.88242(3) 0.35831(8)
Fe2E_2 Fe 0.66584(2) 0.78342(2) 0.35831(8)
Fe2L Fe -0.45009(2) 0.00083(2) 1.02498(8)
Fe2M Fe -0.00083(2) 0.54909(3) 1.02498(8)
Fe2N Fe 0.45091(3) 0.45009(2) 1.02498(8)
Fe2O Fe -0.54909(3) 0.00083(2) 1.02498(8)
Fe2P Fe 0.54991(2) 0.54909(3) 1.02498(8)
Fe2Q Fe -0.00083(2) 0.45009(2) 1.02498(8)
O3A_2 O -0.34892(13) -0.21530(21) 0.50533(18)
O3B_2 O 0.21530(21) -0.13362(17) 0.50533(18)
O3D_2 O 0.13362(17) -0.21530(21) 0.50533(18)
O4A_2 O -0.36913(13) -0.25904(18) 0.4269(2)
O4B_2 O 0.25904(18) -0.11009(13) 0.4269(2)
O4D_2 O 0.11009(13) -0.25904(18) 0.4269(2)
O5F O -0.3020(2) -0.18488(19) 0.2853(2)
O5G O 0.18488(19) -0.11716(28) 0.2853(2)
O5H O 0.11716(28) 0.3020(2) 0.2853(2)
O5I O 0.11716(28) -0.18488(19) 0.2853(2)
O5J O -0.3020(2) -0.11716(28) 0.2853(2)
O5K O 0.18488(19) 0.3020(2) 0.2853(2)
O6A_2 O -0.39621(12) -0.16415(17) 0.3270(2)
O6B_2 O 0.16415(17) -0.23206(12) 0.3270(2)
O6D_2 O 0.23206(12) -0.16415(17) 0.3270(2)
O6E_2 O -0.39621(12) -0.23206(12) 0.3270(2)
loop_
_geom_bond_atom_site_label_1
_geom_bond_atom_site_label_2
_geom_bond_site_symmetry_1
_geom_bond_site_symmetry_2
Fe1 O1 1_555 1_555
Fe2 O2 1_555 1_555
O1 C1 1_555 1_555
O2 C1 1_555 1_555
O3 Fe1 1_555 1_555
O4 C8 1_555 1_555
O5 C23 1_555 1_555
O6 Fe2 1_555 1_555
O7 Fe1 1_555 1_555
O8 Fe1 1_555 1_555
O9 Fe2 1_555 1_555
C1 C2 1_555 1_555
C2 C3 1_555 1_555
C3 H1 1_555 1_555
C4 C3 1_555 1_555
H2 C4 1_555 1_555
C5 C4 1_555 1_555
C6 C5 1_555 1_555
H3 C6 1_555 1_555
C7 C2 1_555 1_555
H4 C7 1_555 1_555
C8 O3 1_555 1_555
C9 C8 1_555 1_555
C10 C9 1_555 1_555
H5 C10 1_555 1_555
C11 C10 1_555 1_555
H6 C11 1_555 1_555
C12 C11 1_555 1_555
C13 C12 1_555 1_555
H7 C13 1_555 1_555
C14 C9 1_555 1_555
H8 C14 1_555 1_555
C15 C12 1_555 1_555
C16 C15 1_555 1_555
H9 C16 1_555 1_555
C17 C15 1_555 1_555
H10 C17 1_555 1_555
C18 C17 1_555 1_555
C19 C18 1_555 1_555
C20 C19 1_555 1_555
H11 C20 1_555 1_555
C21 C20 1_555 1_555
H12 C21 1_555 1_555
C22 C21 1_555 1_555
C23 C22 1_555 1_555
C24 O6 1_555 1_555
C25 C24 1_555 1_555
C26 C25 1_555 1_555
H13 C26 1_555 1_555
C27 C26 1_555 1_555
H14 C27 1_555 1_555
C28 C27 1_555 1_555
C29 C28 1_555 1_555
C30 C29 1_555 1_555
H15 C30 1_555 1_555
O1D C1D 1_555 1_555
O2D C1D 1_555 1_555
C1D C2D 1_555 1_555
C2D C3D 1_555 1_555
C3D H1D 1_555 1_555
C4D C3D 1_555 1_555
H2D C4D 1_555 1_555
C5D C5 1_555 1_555
C6D C5D 1_555 1_555
H3D C6D 1_555 1_555
C7D C2D 1_555 1_555
H4D C7D 1_555 1_555
O3D C8D 1_555 1_555
O4D C8D 1_555 1_555
O5D C23 1_555 1_555
C8D C9D 1_555 1_555
C9D C10D 1_555 1_555
C10D H5D 1_555 1_555
C11D C10D 1_555 1_555
H6D C11D 1_555 1_555
C12D C11D 1_555 1_555
C13D C12D 1_555 1_555
H7D C13D 1_555 1_555
C14D C9D 1_555 1_555
H8D C14D 1_555 1_555
C15D C16 1_555 1_555
C17D C18 1_555 1_555
H10D C17D 1_555 1_555
C20D C19 1_555 1_555
H11D C20D 1_555 1_555
C21D C22 1_555 1_555
H12D C21D 1_555 1_555
O6A C24A 1_555 1_555
C24A C25A 1_555 1_555
C25A C26A 1_555 1_555
C26A H13A 1_555 1_555
C27A C26A 1_555 1_555
H14A C27A 1_555 1_555
C28A C27A 1_555 1_555
C29A C28A 1_555 1_555
C30A C29 1_555 1_555
H15A C30A 1_555 1_555
O6B C24B 1_555 1_555
C24B C25B 1_555 1_555
C25B C26B 1_555 1_555
C26B H13B 1_555 1_555
C27B C26B 1_555 1_555
H14B C27B 1_555 1_555
C28B C27B 1_555 1_555
C29B C30 1_555 1_555
C30B C29A 1_555 1_555
H15B C30B 1_555 1_555
O6C C24 1_555 1_555
C26C C25 1_555 1_555
H13C C26C 1_555 1_555
C27C C28 1_555 1_555
H14C C27C 1_555 1_555
O6D C24B 1_555 1_555
C26D C25B 1_555 1_555
H13D C26D 1_555 1_555
C27D C28B 1_555 1_555
H14D C27D 1_555 1_555
O6E C24A 1_555 1_555
C26E C25A 1_555 1_555
H13E C26E 1_555 1_555
C27E C28A 1_555 1_555
H14E C27E 1_555 1_555
Fe1A O1A 1_555 1_555
Fe2A O2A 1_555 1_555
O1A C1A 1_555 1_555
O2A C1A 1_555 1_555
O7A Fe1A 1_555 1_555
O8A Fe1A 1_555 1_555
O9A Fe2A 1_555 1_555
C1A C2A 1_555 1_555
C2A C3A 1_555 1_555
C3A H1A 1_555 1_555
C4A C3A 1_555 1_555
H2A C4A 1_555 1_555
C5A C4A 1_555 1_555
C6A C5A 1_555 1_555
H3A C6A 1_555 1_555
C7A C2A 1_555 1_555
H4A C7A 1_555 1_555
O1C Fe1 1_555 1_555
O2C C1C 1_555 1_555
C1C O1C 1_555 1_555
C2C C1C 1_555 1_555
C3C C2C 1_555 1_555
H1C C3C 1_555 1_555
C4C C3C 1_555 1_555
H2C C4C 1_555 1_555
C5C C5A 1_555 1_555
C6C C5C 1_555 1_555
H3C C6C 1_555 1_555
C7C C2C 1_555 1_555
H4C C7C 1_555 1_555
Fe1B O1D 1_555 1_555
Fe2B O2B 1_555 1_555
O1B Fe1B 1_555 1_555
O2B C1B 1_555 1_555
O7B Fe1B 1_555 1_555
O8B Fe1B 1_555 1_555
O9B Fe2B 1_555 1_555
C1B O1B 1_555 1_555
C2B C1B 1_555 1_555
C3B C2B 1_555 1_555
H1B C3B 1_555 1_555
C4B C3B 1_555 1_555
H2B C4B 1_555 1_555
C5B C4B 1_555 1_555
C6B C5B 1_555 1_555
H3B C6B 1_555 1_555
C7B C2B 1_555 1_555
H4B C7B 1_555 1_555
O1E Fe1A 1_555 1_555
O2E C1E 1_555 1_555
C1E O1E 1_555 1_555
C2E C1E 1_555 1_555
C3E C2E 1_555 1_555
H1E C3E 1_555 1_555
C4E C3E 1_555 1_555
H2E C4E 1_555 1_555
C5E C5B 1_555 1_555
C6E C5E 1_555 1_555
H3E C6E 1_555 1_555
C7E C2E 1_555 1_555
H4E C7E 1_555 1_555
Fe2C O4 1_555 1_555
O3C Fe1 1_555 1_555
O4C Fe2 1_555 1_555
O5C C23A 1_555 1_555
O9C Fe2C 1_555 1_555
C8C O3C 1_555 1_555
C9C C8C 1_555 1_555
C10C C9C 1_555 1_555
H5C C10C 1_555 1_555
C11C C10C 1_555 1_555
H6C C11C 1_555 1_555
C12C C11C 1_555 1_555
C13C C12C 1_555 1_555
H7C C13C 1_555 1_555
C14C C9C 1_555 1_555
H8C C14C 1_555 1_555
C15C C12C 1_555 1_555
C16A C15C 1_555 1_555
H9A C16A 1_555 1_555
C17C C15C 1_555 1_555
H10C C17C 1_555 1_555
C18A C17C 1_555 1_555
C19A C18A 1_555 1_555
C20C C19A 1_555 1_555
H11C C20C 1_555 1_555
C21C C20C 1_555 1_555
H12C C21C 1_555 1_555
C22A C21C 1_555 1_555
C23A C22A 1_555 1_555
O3A C8A 1_555 1_555
O4A C8A 1_555 1_555
O5A C23A 1_555 1_555
C8A C9A 1_555 1_555
C9A C10A 1_555 1_555
C10A H5A 1_555 1_555
C11A C10A 1_555 1_555
H6A C11A 1_555 1_555
C12A C11A 1_555 1_555
C13A C12A 1_555 1_555
H7A C13A 1_555 1_555
C14A C9A 1_555 1_555
H8A C14A 1_555 1_555
C15A C16A 1_555 1_555
C17A C18A 1_555 1_555
H10A C17A 1_555 1_555
C20A C19A 1_555 1_555
H11A C20A 1_555 1_555
C21A C22A 1_555 1_555
H12A C21A 1_555 1_555
Fe2D O2D 1_555 1_555
O9D Fe2D 1_555 1_555
Fe2E O7A 1_555 1_555
O3E Fe1A 1_555 1_555
O4E Fe2A 1_555 1_555
O5E C23B 1_555 1_555
O9E Fe2E 1_555 1_555
C8E O3E 1_555 1_555
C9E C8E 1_555 1_555
C10E C9E 1_555 1_555
H5E C10E 1_555 1_555
C11E C10E 1_555 1_555
H6E C11E 1_555 1_555
C12E C11E 1_555 1_555
C13E C12E 1_555 1_555
H7E C13E 1_555 1_555
C14E C9E 1_555 1_555
H8E C14E 1_555 1_555
C15E C12E 1_555 1_555
C16B C15E 1_555 1_555
H9B C16B 1_555 1_555
C17E C15E 1_555 1_555
H10E C17E 1_555 1_555
C18B C17E 1_555 1_555
C19B C18B 1_555 1_555
C20E C19B 1_555 1_555
H11E C20E 1_555 1_555
C21E C20E 1_555 1_555
H12E C21E 1_555 1_555
C22B C21E 1_555 1_555
C23B C22B 1_555 1_555
O3B C8B 1_555 1_555
O4B C8B 1_555 1_555
O5B C23B 1_555 1_555
C8B C9B 1_555 1_555
C9B C10B 1_555 1_555
C10B H5B 1_555 1_555
C11B C10B 1_555 1_555
H6B C11B 1_555 1_555
C12B C11B 1_555 1_555
C13B C12B 1_555 1_555
H7B C13B 1_555 1_555
C14B C9B 1_555 1_555
H8B C14B 1_555 1_555
C15B C16B 1_555 1_555
C17B C18B 1_555 1_555
H10B C17B 1_555 1_555
C20B C19B 1_555 1_555
H11B C20B 1_555 1_555
C21B C22B 1_555 1_555
H12B C21B 1_555 1_555
Fe1A_2 O3A 1_555 1_555
Fe1B_2 O3B 1_555 1_555
Fe1B_3 O3D 1_555 1_555
Fe2A_2 O6A 1_555 1_555
Fe2B_2 O4D 1_555 1_555
Fe2D_2 O4B 1_555 1_555
Fe2D_3 O6D 1_555 1_555
Fe2E_2 O6E 1_555 1_555
Fe2L O5E 1_555 1_555
Fe2M O5D 1_555 1_555
Fe2N O5C 1_555 1_555
Fe2O O5B 1_555 1_555
Fe2P O5A 1_555 1_555
Fe2Q O5 1_555 1_555
O3A_2 Fe1A 1_555 1_555
O3B_2 Fe1B 1_555 1_555
O3D_2 Fe1B 1_555 1_555
O4A_2 Fe2E 1_555 1_555
O4B_2 Fe2D 1_555 1_555
O4D_2 Fe2B 1_555 1_555
O5F Fe2E 1_555 1_555
O5G Fe2D 1_555 1_555
O5H Fe2C 1_555 1_555
O5I Fe2B 1_555 1_555
O5J Fe2A 1_555 1_555
O5K Fe2 1_555 1_555
O6A_2 Fe2A 1_555 1_555
O6B_2 Fe2B 1_555 1_555
O6D_2 Fe2D 1_555 1_555
O6E_2 Fe2E 1_555 1_555
Fe2 O7 1_555 1_555
O7 Fe2C 1_555 1_555
C6 C7 1_555 1_555
C13 C14 1_555 1_555
C4D C5D 1_555 1_555
C6D C7D 1_555 1_555
C12D C15D 1_555 1_555
C13D C14D 1_555 1_555
C15D C17D 1_555 1_555
C20D C21D 1_555 1_555
C29A C30A 1_555 1_555
O6B Fe2B_2 1_555 1_555
C28B C29B 1_555 1_555
C29B C30B 1_555 1_555
O6C Fe2C 1_555 1_555
C26C C27C 1_555 1_555
C26D C27D 1_555 1_555
C26E C27E 1_555 1_555
Fe2A O7A 1_555 1_555
C6A C7A 1_555 1_555
O2C Fe2C 1_555 1_555
C4C C5C 1_555 1_555
C6C C7C 1_555 1_555
Fe2B O7B 1_555 1_555
O7B Fe2D 1_555 1_555
C6B C7B 1_555 1_555
O2E Fe2E 1_555 1_555
C4E C5E 1_555 1_555
C6E C7E 1_555 1_555
O4C C8C 1_555 1_555
C13C C14C 1_555 1_555
O4A Fe2E_2 1_555 1_555
C12A C15A 1_555 1_555
C13A C14A 1_555 1_555
C15A C17A 1_555 1_555
C20A C21A 1_555 1_555
O4E C8E 1_555 1_555
C13E C14E 1_555 1_555
C12B C15B 1_555 1_555
C13B C14B 1_555 1_555
C15B C17B 1_555 1_555
C20B C21B 1_555 1_555

#END
