
#######################################################################
#
#                 Cambridge Crystallographic Data Centre
#                                CCDC 
#
#######################################################################
#
# If this CIF has been generated from an entry in the Cambridge 
# Structural Database, then it will include bibliographic, chemical, 
# crystal, experimental, refinement or atomic coordinate data resulting 
# from the CCDC's data processing and validation procedures.
#
#######################################################################

data_TOWNAW
_symmetry_cell_setting           hexagonal
_symmetry_space_group_name_H-M   'P 63 m c'
_symmetry_Int_Tables_number      186
_space_group_name_Hall           "P 6c -2'c"
loop_
_symmetry_equiv_pos_site_id
_symmetry_equiv_pos_as_xyz
1 x,y,z
2 x-y,x,1/2+z
3 -y,x-y,z
4 -x,-y,1/2+z
5 -x+y,-x,z
6 y,-x+y,1/2+z
7 -x+y,y,z
8 x,x-y,z
9 -y,-x,z
10 y,x,1/2+z
11 x-y,-y,1/2+z
12 -x,-x+y,1/2+z
_cell_length_a                   18.6996(8)
_cell_length_b                   18.6996(8)
_cell_length_c                   28.8572(18)
_cell_angle_alpha                90
_cell_angle_beta                 90
_cell_angle_gamma                120
_cell_volume                     8738.75
loop_
_atom_site_label
_atom_site_type_symbol
_atom_site_fract_x
_atom_site_fract_y
_atom_site_fract_z
Fe1 Fe 0.72571(10) 0.4514(2) 0.1937(2)
O1 O 0.8033(12) 0.4612(15) 0.2460(5)
O2 O 1.1935(11) 0.6568(14) 0.6436(5)
N1 N 1.0094(7) 0.5047(4) 0.4263(3)
N2 N 0.9809(7) 0.4905(4) 0.4667(3)
C1 C 0.8108(5) 0.4054(3) 0.2649(3)
C2 C 0.8634(4) 0.4317(2) 0.3076(2)
C3 C 0.8873(4) 0.5086(2) 0.3270(2)
H1 H 0.8705 0.5441 0.3134
C4 C 0.9363(5) 0.5330(3) 0.3669(2)
H2 H 0.9532 0.5852 0.3806
C5 C 0.9600(6) 0.4800(3) 0.3861(2)
C6 C 1.1905(5) 0.5952(3) 0.6237(3)
C7 C 1.1350(4) 0.5675(2) 0.5821(2)
C8 C 1.1097(4) 0.6198(2) 0.5632(2)
H3 H 1.1275 0.6726 0.5765
C9 C 1.0580(5) 0.5938(3) 0.5245(2)
H4 H 1.0402 0.6286 0.5111
C10 C 1.0330(6) 0.5165(3) 0.5057(2)
O3 O 0.7925(8) 0.5850(15) 0.1885(7)
O4 O 0.6667 0.3333 0.1927(16)
O1G O 0.8033(12) 0.3421(19) 0.2460(5)
O2G O 1.1935(11) 0.5367(18) 0.6436(5)
C3G C 0.8873(4) 0.3787(4) 0.3270(2)
H1G H 0.8705 0.3264 0.3134
C4G C 0.9363(5) 0.4033(6) 0.3669(2)
H2G H 0.9532 0.3680 0.3806
C8G C 1.1097(4) 0.4899(4) 0.5632(2)
H3G H 1.1275 0.4549 0.5765
C9G C 1.0580(5) 0.4642(6) 0.5245(2)
H4G H 1.0402 0.4116 0.5111
Fe1B Fe 0.5486(2) 0.27431(22) 0.1937(2)
O1B O 0.5388(15) 0.3421(19) 0.2460(5)
O2B O 0.3432(14) 0.5367(18) 0.6436(5)
N1B N 0.4953(4) 0.5047(8) 0.4263(3)
N2B N 0.5095(4) 0.4904(8) 0.4667(3)
C1B C 0.5946(3) 0.4054(6) 0.2649(3)
C2B C 0.5683(2) 0.4317(4) 0.3076(2)
C3B C 0.4914(2) 0.3787(4) 0.3270(2)
H1B H 0.4559 0.3264 0.3134
C4B C 0.4670(3) 0.4033(6) 0.3669(2)
H2B H 0.4148 0.3680 0.3806
C5B C 0.5200(3) 0.4800(7) 0.3861(2)
C6B C 0.4048(3) 0.5953(6) 0.6237(3)
C7B C 0.4325(2) 0.5675(4) 0.5821(2)
C8B C 0.3802(2) 0.4899(4) 0.5632(2)
H3B H 0.3274 0.4549 0.5765
C9B C 0.4062(3) 0.4642(6) 0.5245(2)
H4B H 0.3714 0.4116 0.5111
C10B C 0.4835(3) 0.5165(7) 0.5057(2)
O3B O 0.4150(15) 0.2075(17) 0.1885(7)
O1F O 0.6579(19) 0.4612(15) 0.2460(5)
O2F O 0.4633(18) 0.6568(14) 0.6436(5)
C3F C 0.6213(4) 0.5086(2) 0.3270(2)
H1F H 0.6736 0.5441 0.3134
C4F C 0.5967(6) 0.5330(3) 0.3669(2)
H2F H 0.6320 0.5852 0.3806
C8F C 0.5101(4) 0.6198(2) 0.5632(2)
H3F H 0.5451 0.6726 0.5765
C9F C 0.5358(6) 0.5938(3) 0.5245(2)
H4F H 0.5884 0.6286 0.5111
Fe1D Fe 0.72569(22) 0.27429(10) 0.1937(2)
O1D O 0.6579(19) 0.1967(12) 0.2460(5)
O2D O 0.4633(18) -0.1935(11) 0.6436(5)
N1D N 0.4953(8) -0.0094(7) 0.4263(3)
N2D N 0.5096(8) 0.0191(7) 0.4667(3)
C1D C 0.5946(6) 0.1892(5) 0.2649(3)
C2D C 0.5683(4) 0.1366(4) 0.3076(2)
C3D C 0.6213(4) 0.1127(4) 0.3270(2)
H1D H 0.6736 0.1295 0.3134
C4D C 0.5967(6) 0.0637(5) 0.3669(2)
H2D H 0.6320 0.0468 0.3806
C5D C 0.5200(7) 0.0400(6) 0.3861(2)
C6D C 0.4047(6) -0.1905(5) 0.6237(3)
C7D C 0.4325(4) -0.1350(4) 0.5821(2)
C8D C 0.5101(4) -0.1097(4) 0.5632(2)
H3D H 0.5451 -0.1275 0.5765
C9D C 0.5358(6) -0.0580(5) 0.5245(2)
H4D H 0.5884 -0.0402 0.5111
C10D C 0.4835(7) -0.0330(6) 0.5057(2)
O3D O 0.7925(17) 0.2075(8) 0.1885(7)
O1H O 0.5388(15) 0.1967(12) 0.2460(5)
O2H O 0.3432(14) -0.1935(11) 0.6436(5)
C3H C 0.4914(2) 0.1127(4) 0.3270(2)
H1H H 0.4559 0.1295 0.3134
C4H C 0.4670(3) 0.0637(5) 0.3669(2)
H2H H 0.4148 0.0468 0.3806
C8H C 0.3802(2) -0.1097(4) 0.5632(2)
H3H H 0.3274 -0.1275 0.5765
C9H C 0.4062(3) -0.0580(5) 0.5245(2)
H4H H 0.3714 -0.0402 0.5111
Fe1A Fe 0.27431(22) -0.27429(10) 0.6937(2)
Fe1A_2 Fe 1.27431(22) 0.72571(10) 0.6937(2)
Fe1C Fe 0.27429(10) 0.5486(2) 0.6937(2)
Fe1C_2 Fe 1.27429(10) 0.5486(2) 0.6937(2)
Fe1E Fe 0.4514(2) -0.27431(22) 0.6937(2)
Fe1E_2 Fe 0.4514(2) 0.72569(22) 0.6937(2)
O2A O 0.5367(18) 0.1935(11) 0.1436(5)
O2C O 0.8065(11) 0.3432(14) 0.1436(5)
O2E O 0.6568(14) 0.4633(18) 0.1436(5)
O2I O 0.6568(14) 0.1935(11) 0.1436(5)
O2J O 0.5367(18) 0.3432(14) 0.1436(5)
O2K O 0.8065(11) 0.4633(18) 0.1436(5)
Fe2 Fe 0.7842(2) 0.39212(12) 0.6624(2)
Fe3 Fe 1.05921(12) 0.1184(2) 1.1619(2)
O5 O 0.7950(15) 0.3233(15) 0.6138(5)
O6 O 0.9933(16) 0.1292(14) 0.2122(5)
O7 O 0.9904(15) 0.1290(16) 1.1116(5)
O8 O 0.7939(14) 0.3242(17) 0.7135(6)
N3 N 0.8203(4) 0.1797(4) 0.4203(4)
N4 N 0.8583(4) 0.1417(4) 0.4116(4)
N5 N 0.8500(4) 0.1500(4) 0.9149(4)
N6 N 0.8112(4) 0.1888(4) 0.9141(4)
C11 C 0.7464(3) 0.2536(3) 0.5978(3)
C12 C 0.7659(2) 0.2341(2) 0.5508(3)
C13 C 0.7100(2) 0.1602(2) 0.5293(3)
H5 H 0.6598 0.1226 0.5443
C14 C 0.7284(3) 0.1421(3) 0.4855(3)
H6 H 0.6909 0.0920 0.4704
C15 C 0.8020(3) 0.1980(3) 0.4642(4)
C16 C 0.9199(3) 0.0801(3) 0.2282(4)
C17 C 0.9035(2) 0.0965(2) 0.2768(3)
C18 C 0.8312(2) 0.0391(2) 0.2990(3)
H7 H 0.7925 -0.0100 0.2835
C19 C 0.8162(3) 0.0544(3) 0.3442(3)
H8 H 0.7671 0.0158 0.3598
C20 C 0.8735(3) 0.1265(3) 0.3662(4)
C21 C 0.9179(3) 0.0821(3) 1.0946(4)
C22 C 0.8999(2) 0.1001(2) 1.0468(3)
C23 C 0.8667(3) 0.1333(3) 0.9591(4)
C24 C 0.7464(3) 0.2536(3) 0.7328(4)
C25 C 0.7636(2) 0.2364(2) 0.7810(3)
C26 C 0.7953(3) 0.2047(3) 0.8695(4)
O9 O 0.9093(18) 0.4547(9) 0.6668(7)
O10 O 0.6667 0.3333 0.6612(14)
O11 O 1.1234(7) 0.2467(13) 1.1596(7)
O12 O 1.0000 0.0000 1.1618(14)
C27 C 0.8524(3) 0.2773(3) 0.8479(3)
H9 H 0.9016 0.3155 0.8634
C28 C 0.9568(2) 0.1734(2) 1.0252(3)
H10 H 1.0064 0.2115 1.0405
C29 C 0.9397(3) 0.1900(3) 0.9806(3)
H11 H 0.9776 0.2396 0.9651
C30 C 0.8365(2) 0.2936(2) 0.8029(3)
H12 H 0.8749 0.3430 0.7875
O5H O 0.6767(15) 0.2050(15) 0.6138(5)
O6H O 0.8708(14) 0.0067(16) 0.2122(5)
C13H C 0.8398(2) 0.2900(2) 0.5293(3)
H5H H 0.8774 0.3402 0.5443
C14H C 0.8579(3) 0.2716(3) 0.4855(3)
H6H H 0.9080 0.3091 0.4704
C18H C 0.9609(2) 0.1688(2) 0.2990(3)
H7H H 1.0100 0.2075 0.2835
C19H C 0.9456(3) 0.1838(3) 0.3442(3)
H8H H 0.9842 0.2329 0.3598
O7H O 0.8710(16) 0.0096(15) 1.1116(5)
O8H O 0.6758(17) 0.2061(14) 0.7135(6)
C27H C 0.7227(3) 0.1476(3) 0.8479(3)
H9H H 0.6845 0.0984 0.8634
C28H C 0.8266(2) 0.0432(2) 1.0252(3)
H10H H 0.7885 -0.0064 1.0405
C29H C 0.8100(3) 0.0603(3) 0.9806(3)
H11H H 0.7604 0.0224 0.9651
C30H C 0.7064(2) 0.1635(2) 0.8029(3)
H12H H 0.6570 0.1251 0.7875
Fe2B Fe 0.60788(12) -0.60792(23) 0.6624(2)
Fe3B Fe 0.8816(2) -0.05919(23) 1.1619(2)
O5B O 0.6767(15) -0.5283(21) 0.6138(5)
O6B O 0.8708(14) -0.1359(21) 0.2122(5)
O7B O 0.8710(16) -0.1386(22) 1.1116(5)
O8B O 0.6758(17) -0.5303(22) 0.7135(6)
N3B N 0.8203(4) -0.3594(6) 0.4203(4)
N4B N 0.8583(4) -0.2834(6) 0.4116(4)
N5B N 0.8500(4) -0.3000(6) 0.9149(4)
N6B N 0.8112(4) -0.3776(6) 0.9141(4)
C11B C 0.7464(3) -0.5072(4) 0.5978(3)
C12B C 0.7659(2) -0.4682(3) 0.5508(3)
C13B C 0.8398(2) -0.4502(3) 0.5293(3)
H5B H 0.8774 -0.4628 0.5443
C14B C 0.8579(3) -0.4137(4) 0.4855(3)
H6B H 0.9080 -0.4011 0.4704
C15B C 0.8020(3) -0.3960(4) 0.4642(4)
C16B C 0.9199(3) -0.1602(4) 0.2282(4)
C17B C 0.9035(2) -0.1930(3) 0.2768(3)
C18B C 0.9609(2) -0.2079(3) 0.2990(3)
H7B H 1.0100 -0.1975 0.2835
C19B C 0.9456(3) -0.2382(4) 0.3442(3)
H8B H 0.9842 -0.2487 0.3598
C20B C 0.8735(3) -0.2530(4) 0.3662(4)
C21B C 0.9179(3) -0.1642(4) 1.0946(4)
C22B C 0.8999(2) -0.2002(3) 1.0468(3)
C23B C 0.8667(3) -0.2666(4) 0.9591(4)
C24B C 0.7464(3) -0.5072(4) 0.7328(4)
C25B C 0.7636(2) -0.4728(3) 0.7810(3)
C26B C 0.7953(3) -0.4094(4) 0.8695(4)
O9B O 0.5453(9) -0.5454(20) 0.6668(7)
O11B O 0.7533(13) -0.1233(15) 1.1596(7)
C27B C 0.7227(3) -0.4249(4) 0.8479(3)
H9B H 0.6845 -0.4139 0.8634
C28B C 0.8266(2) -0.2166(3) 1.0252(3)
H10B H 0.7885 -0.2051 1.0405
C29B C 0.8100(3) -0.2503(4) 0.9806(3)
H11B H 0.7604 -0.2620 0.9651
C30B C 0.7064(2) -0.4571(3) 0.8029(3)
H12B H 0.6570 -0.4681 0.7875
O5G O 0.7950(15) -0.5283(21) 0.6138(5)
O6G O 0.9933(16) -0.1359(21) 0.2122(5)
C13G C 0.7100(2) -0.4502(3) 0.5293(3)
H5G H 0.6598 -0.4628 0.5443
C14G C 0.7284(3) -0.4137(4) 0.4855(3)
H6G H 0.6909 -0.4011 0.4704
C18G C 0.8312(2) -0.2079(3) 0.2990(3)
H7G H 0.7925 -0.1975 0.2835
C19G C 0.8162(3) -0.2382(4) 0.3442(3)
H8G H 0.7671 -0.2487 0.3598
O7G O 0.9904(15) -0.1386(22) 1.1116(5)
O8G O 0.7939(14) -0.5303(22) 0.7135(6)
C27G C 0.8524(3) -0.4249(4) 0.8479(3)
H9G H 0.9016 -0.4139 0.8634
C28G C 0.9568(2) -0.2166(3) 1.0252(3)
H10G H 1.0064 -0.2051 1.0405
C29G C 0.9397(3) -0.2503(4) 0.9806(3)
H11G H 0.9776 -0.2620 0.9651
C30G C 0.8365(2) -0.4571(3) 0.8029(3)
H12G H 0.8749 -0.4681 0.7875
Fe2D Fe 0.60792(23) 0.2158(2) 0.6624(2)
Fe3D Fe 0.05919(23) -0.05921(12) 1.1619(2)
O5D O 0.5283(21) 0.2050(15) 0.6138(5)
O6D O 0.1359(21) 0.0067(16) 0.2122(5)
O7D O 0.1386(22) 0.0096(15) 1.1116(5)
O8D O 0.5303(22) 0.2061(14) 0.7135(6)
N3D N 0.3594(6) 0.1797(4) 0.4203(4)
N4D N 0.2834(6) 0.1417(4) 0.4116(4)
N5D N 0.3000(6) 0.1500(4) 0.9149(4)
N6D N 0.3776(6) 0.1888(4) 0.9141(4)
C11D C 0.5072(4) 0.2536(3) 0.5978(3)
C12D C 0.4682(3) 0.2341(2) 0.5508(3)
C13D C 0.4502(3) 0.2900(2) 0.5293(3)
H5D H 0.4628 0.3402 0.5443
C14D C 0.4137(4) 0.2716(3) 0.4855(3)
H6D H 0.4011 0.3091 0.4704
C15D C 0.3960(4) 0.1980(3) 0.4642(4)
C16D C 0.1602(4) 0.0801(3) 0.2282(4)
C17D C 0.1930(3) 0.0965(2) 0.2768(3)
C18D C 0.2079(3) 0.1688(2) 0.2990(3)
H7D H 0.1975 0.2075 0.2835
C19D C 0.2382(4) 0.1838(3) 0.3442(3)
H8D H 0.2487 0.2329 0.3598
C20D C 0.2530(4) 0.1265(3) 0.3662(4)
C21D C 0.1642(4) 0.0821(3) 1.0946(4)
C22D C 0.2002(3) 0.1001(2) 1.0468(3)
C23D C 0.2666(4) 0.1333(3) 0.9591(4)
C24D C 0.5072(4) 0.2536(3) 0.7328(4)
C25D C 0.4728(3) 0.2364(2) 0.7810(3)
C26D C 0.4094(4) 0.2047(3) 0.8695(4)
O9D O 0.5454(20) 0.0907(18) 0.6668(7)
O11D O 0.1233(15) -0.1234(7) 1.1596(7)
C27D C 0.4249(4) 0.1476(3) 0.8479(3)
H9D H 0.4139 0.0984 0.8634
C28D C 0.2166(3) 0.0432(2) 1.0252(3)
H10D H 0.2051 -0.0064 1.0405
C29D C 0.2503(4) 0.0603(3) 0.9806(3)
H11D H 0.2620 0.0224 0.9651
C30D C 0.4571(3) 0.1635(2) 0.8029(3)
H12D H 0.4681 0.1251 0.7875
O5F O 0.5283(21) 0.3233(15) 0.6138(5)
O6F O 0.1359(21) 0.1292(14) 0.2122(5)
C13F C 0.4502(3) 0.1602(2) 0.5293(3)
H5F H 0.4628 0.1226 0.5443
C14F C 0.4137(4) 0.1421(3) 0.4855(3)
H6F H 0.4011 0.0920 0.4704
C18F C 0.2079(3) 0.0391(2) 0.2990(3)
H7F H 0.1975 -0.0100 0.2835
C19F C 0.2382(4) 0.0544(3) 0.3442(3)
H8F H 0.2487 0.0158 0.3598
O7F O 0.1386(22) 0.1290(16) 1.1116(5)
O8F O 0.5303(22) 0.3242(17) 0.7135(6)
C27F C 0.4249(4) 0.2773(3) 0.8479(3)
H9F H 0.4139 0.3155 0.8634
C28F C 0.2166(3) 0.1734(2) 1.0252(3)
H10F H 0.2051 0.2115 1.0405
C29F C 0.2503(4) 0.1900(3) 0.9806(3)
H11F H 0.2620 0.2396 0.9651
C30F C 0.4571(3) 0.2936(2) 0.8029(3)
H12F H 0.4681 0.3430 0.7875
Fe2_2 Fe 0.7842(2) -0.60788(12) 0.6624(2)
Fe2B_2 Fe 0.60788(12) 0.39208(23) 0.6624(2)
Fe3_2 Fe 0.05921(12) 0.1184(2) 0.1619(2)
Fe3_3 Fe 0.05921(12) 0.1184(2) 1.1619(2)
Fe3_4 Fe 1.05921(12) 0.1184(2) 0.1619(2)
Fe3B_2 Fe 0.8816(2) -0.05919(23) 0.1619(2)
Fe3D_2 Fe 0.05919(23) -0.05921(12) 0.1619(2)
Fe3D_3 Fe 1.05919(23) -0.05921(12) 0.1619(2)
Fe3D_4 Fe 1.05919(23) -0.05921(12) 1.1619(2)
O5F_2 O 0.5283(21) -0.6767(15) 0.6138(5)
O5G_2 O 0.7950(15) 0.4717(21) 0.6138(5)
O6_2 O 0.9933(16) 0.1292(14) 1.2122(5)
O6B_2 O 0.8708(14) -0.1359(21) 1.2122(5)
O6D_2 O 0.1359(21) 0.0067(16) 1.2122(5)
O6F_2 O 1.1359(21) 0.1292(14) 1.2122(5)
O6G_2 O -0.0067(16) -0.1359(21) 1.2122(5)
O6H_2 O 0.8708(14) 0.0067(16) 1.2122(5)
O7F_2 O 1.1386(22) 0.1290(16) 1.1116(5)
O7G_2 O -0.0096(15) -0.1386(22) 1.1116(5)
O8F_2 O 0.5303(22) -0.6758(17) 0.7135(6)
O8G_2 O 0.7939(14) 0.4697(22) 0.7135(6)
O10_2 O 0.6667 -0.6667 0.6612(14)
O12_2 O 0.0000 0.0000 1.1618(14)
loop_
_geom_bond_atom_site_label_1
_geom_bond_atom_site_label_2
_geom_bond_site_symmetry_1
_geom_bond_site_symmetry_2
Fe1 O1 1_555 1_555
O1 C1 1_555 1_555
O2 C6 1_555 1_555
N1 N2 1_555 1_555
N2 C10 1_555 1_555
C1 C2 1_555 1_555
C2 C3 1_555 1_555
C3 H1 1_555 1_555
C4 C3 1_555 1_555
H2 C4 1_555 1_555
C5 N1 1_555 1_555
C6 C7 1_555 1_555
C7 C8 1_555 1_555
C8 H3 1_555 1_555
C9 C8 1_555 1_555
H4 C9 1_555 1_555
C10 C9 1_555 1_555
O3 Fe1 1_555 1_555
O4 Fe1 1_555 1_555
Fe2 O5 1_555 1_555
Fe3 O7 1_555 1_555
O5 C11 1_555 1_555
O6 C16 1_555 1_555
O7 C21 1_555 1_555
O8 Fe2 1_555 1_555
N3 N4 1_555 1_555
N4 C20 1_555 1_555
N5 N6 1_555 1_555
N6 C26 1_555 1_555
C11 C12 1_555 1_555
C12 C13 1_555 1_555
C13 H5 1_555 1_555
C14 C13 1_555 1_555
H6 C14 1_555 1_555
C15 N3 1_555 1_555
C16 C17 1_555 1_555
C17 C18 1_555 1_555
C18 H7 1_555 1_555
C19 C18 1_555 1_555
H8 C19 1_555 1_555
C20 C19 1_555 1_555
C21 C22 1_555 1_555
C22 C28 1_555 1_555
C23 N5 1_555 1_555
C24 O8 1_555 1_555
C25 C24 1_555 1_555
C26 C27 1_555 1_555
O9 Fe2 1_555 1_555
O10 Fe2 1_555 1_555
O11 Fe3 1_555 1_555
O12 Fe3 1_555 1_555
C27 H9 1_555 1_555
C28 H10 1_555 1_555
C29 C23 1_555 1_555
H11 C29 1_555 1_555
C30 C25 1_555 1_555
H12 C30 1_555 1_555
O1G C1 1_555 1_555
O2G C6 1_555 1_555
C3G C2 1_555 1_555
H1G C3G 1_555 1_555
C4G C5 1_555 1_555
H2G C4G 1_555 1_555
C8G C7 1_555 1_555
H3G C8G 1_555 1_555
C9G C10 1_555 1_555
H4G C9G 1_555 1_555
Fe1B O4 1_555 1_555
O1B Fe1B 1_555 1_555
O2B C6B 1_555 1_555
N1B N2B 1_555 1_555
N2B C10B 1_555 1_555
C1B O1B 1_555 1_555
C2B C1B 1_555 1_555
C3B C2B 1_555 1_555
H1B C3B 1_555 1_555
C4B C3B 1_555 1_555
H2B C4B 1_555 1_555
C5B N1B 1_555 1_555
C6B C7B 1_555 1_555
C7B C8B 1_555 1_555
C8B H3B 1_555 1_555
C9B C8B 1_555 1_555
H4B C9B 1_555 1_555
C10B C9B 1_555 1_555
O3B Fe1B 1_555 1_555
O1F Fe1 1_555 1_555
O2F C6B 1_555 1_555
C3F C2B 1_555 1_555
H1F C3F 1_555 1_555
C4F C5B 1_555 1_555
H2F C4F 1_555 1_555
C8F C7B 1_555 1_555
H3F C8F 1_555 1_555
C9F C10B 1_555 1_555
H4F C9F 1_555 1_555
Fe1D O4 1_555 1_555
O1D Fe1D 1_555 1_555
O2D C6D 1_555 1_555
N1D N2D 1_555 1_555
N2D C10D 1_555 1_555
C1D O1D 1_555 1_555
C2D C1D 1_555 1_555
C3D C2D 1_555 1_555
H1D C3D 1_555 1_555
C4D C3D 1_555 1_555
H2D C4D 1_555 1_555
C5D N1D 1_555 1_555
C6D C7D 1_555 1_555
C7D C8D 1_555 1_555
C8D H3D 1_555 1_555
C9D C8D 1_555 1_555
H4D C9D 1_555 1_555
C10D C9D 1_555 1_555
O3D Fe1D 1_555 1_555
O1H Fe1B 1_555 1_555
O2H C6D 1_555 1_555
C3H C2D 1_555 1_555
H1H C3H 1_555 1_555
C4H C5D 1_555 1_555
H2H C4H 1_555 1_555
C8H C7D 1_555 1_555
H3H C8H 1_555 1_555
C9H C10D 1_555 1_555
H4H C9H 1_555 1_555
Fe1A O2H 1_555 1_555
Fe1A_2 O2 1_555 1_555
Fe1C O2B 1_555 1_555
Fe1C_2 O2G 1_555 1_555
Fe1E O2D 1_555 1_555
Fe1E_2 O2F 1_555 1_555
O2A Fe1B 1_555 1_555
O2C Fe1D 1_555 1_555
O2E Fe1 1_555 1_555
O2I Fe1D 1_555 1_555
O2J Fe1B 1_555 1_555
O2K Fe1 1_555 1_555
O5H C11 1_555 1_555
O6H C16 1_555 1_555
C13H C12 1_555 1_555
H5H C13H 1_555 1_555
C14H C15 1_555 1_555
H6H C14H 1_555 1_555
C18H C17 1_555 1_555
H7H C18H 1_555 1_555
C19H C20 1_555 1_555
H8H C19H 1_555 1_555
O7H C21 1_555 1_555
O8H C24 1_555 1_555
C27H C26 1_555 1_555
H9H C27H 1_555 1_555
C28H C22 1_555 1_555
H10H C28H 1_555 1_555
C29H C23 1_555 1_555
H11H C29H 1_555 1_555
C30H C25 1_555 1_555
H12H C30H 1_555 1_555
Fe2B O5B 1_555 1_555
Fe3B O12 1_555 1_555
O5B C11B 1_555 1_555
O6B C16B 1_555 1_555
O7B Fe3B 1_555 1_555
O8B Fe2B 1_555 1_555
N3B N4B 1_555 1_555
N4B C20B 1_555 1_555
N5B N6B 1_555 1_555
N6B C26B 1_555 1_555
C11B C12B 1_555 1_555
C12B C13B 1_555 1_555
C13B H5B 1_555 1_555
C14B C13B 1_555 1_555
H6B C14B 1_555 1_555
C15B N3B 1_555 1_555
C16B C17B 1_555 1_555
C17B C18B 1_555 1_555
C18B H7B 1_555 1_555
C19B C18B 1_555 1_555
H8B C19B 1_555 1_555
C20B C19B 1_555 1_555
C21B O7B 1_555 1_555
C22B C21B 1_555 1_555
C23B N5B 1_555 1_555
C24B O8B 1_555 1_555
C25B C24B 1_555 1_555
C26B C27B 1_555 1_555
O9B Fe2B 1_555 1_555
O11B Fe3B 1_555 1_555
C27B H9B 1_555 1_555
C28B C22B 1_555 1_555
H10B C28B 1_555 1_555
C29B C23B 1_555 1_555
H11B C29B 1_555 1_555
C30B C25B 1_555 1_555
H12B C30B 1_555 1_555
O5G C11B 1_555 1_555
O6G C16B 1_555 1_555
C13G C12B 1_555 1_555
H5G C13G 1_555 1_555
C14G C15B 1_555 1_555
H6G C14G 1_555 1_555
C18G C17B 1_555 1_555
H7G C18G 1_555 1_555
C19G C20B 1_555 1_555
H8G C19G 1_555 1_555
O7G C21B 1_555 1_555
O8G C24B 1_555 1_555
C27G C26B 1_555 1_555
H9G C27G 1_555 1_555
C28G C22B 1_555 1_555
H10G C28G 1_555 1_555
C29G C23B 1_555 1_555
H11G C29G 1_555 1_555
C30G C25B 1_555 1_555
H12G C30G 1_555 1_555
Fe2D O10 1_555 1_555
Fe3D O7D 1_555 1_555
O5D Fe2D 1_555 1_555
O6D C16D 1_555 1_555
O7D C21D 1_555 1_555
O8D Fe2D 1_555 1_555
N3D N4D 1_555 1_555
N4D C20D 1_555 1_555
N5D N6D 1_555 1_555
N6D C26D 1_555 1_555
C11D O5D 1_555 1_555
C12D C11D 1_555 1_555
C13D C12D 1_555 1_555
H5D C13D 1_555 1_555
C14D C13D 1_555 1_555
H6D C14D 1_555 1_555
C15D N3D 1_555 1_555
C16D C17D 1_555 1_555
C17D C18D 1_555 1_555
C18D H7D 1_555 1_555
C19D C18D 1_555 1_555
H8D C19D 1_555 1_555
C20D C19D 1_555 1_555
C21D C22D 1_555 1_555
C22D C28D 1_555 1_555
C23D N5D 1_555 1_555
C24D O8D 1_555 1_555
C25D C24D 1_555 1_555
C26D C27D 1_555 1_555
O9D Fe2D 1_555 1_555
O11D Fe3D 1_555 1_555
C27D H9D 1_555 1_555
C28D H10D 1_555 1_555
C29D C23D 1_555 1_555
H11D C29D 1_555 1_555
C30D C25D 1_555 1_555
H12D C30D 1_555 1_555
O5F C11D 1_555 1_555
O6F C16D 1_555 1_555
C13F C12D 1_555 1_555
H5F C13F 1_555 1_555
C14F C15D 1_555 1_555
H6F C14F 1_555 1_555
C18F C17D 1_555 1_555
H7F C18F 1_555 1_555
C19F C20D 1_555 1_555
H8F C19F 1_555 1_555
O7F C21D 1_555 1_555
O8F C24D 1_555 1_555
C27F C26D 1_555 1_555
H9F C27F 1_555 1_555
C28F C22D 1_555 1_555
H10F C28F 1_555 1_555
C29F C23D 1_555 1_555
H11F C29F 1_555 1_555
C30F C25D 1_555 1_555
H12F C30F 1_555 1_555
Fe2_2 O5G 1_555 1_555
Fe2B_2 O10 1_555 1_555
Fe3_2 O6F 1_555 1_555
Fe3_3 O7F 1_555 1_555
Fe3_4 O6 1_555 1_555
Fe3B_2 O6H 1_555 1_555
Fe3D_2 O6D 1_555 1_555
Fe3D_3 O6G 1_555 1_555
Fe3D_4 O12 1_555 1_555
O5F_2 Fe2B 1_555 1_555
O5G_2 Fe2 1_555 1_555
O6_2 Fe3 1_555 1_555
O6B_2 Fe3B 1_555 1_555
O6D_2 Fe3D 1_555 1_555
O6F_2 Fe3 1_555 1_555
O6G_2 Fe3D 1_555 1_555
O6H_2 Fe3B 1_555 1_555
O7F_2 Fe3 1_555 1_555
O7G_2 Fe3D 1_555 1_555
O8F_2 Fe2B 1_555 1_555
O8G_2 Fe2 1_555 1_555
O10_2 Fe2B 1_555 1_555
O12_2 Fe3D 1_555 1_555
C4 C5 1_555 1_555
C14 C15 1_555 1_555
C27 C30 1_555 1_555
C28 C29 1_555 1_555
O1G Fe1D 1_555 1_555
C3G C4G 1_555 1_555
C8G C9G 1_555 1_555
C1B O1F 1_555 1_555
C4B C5B 1_555 1_555
C3F C4F 1_555 1_555
C8F C9F 1_555 1_555
C1D O1H 1_555 1_555
C4D C5D 1_555 1_555
C3H C4H 1_555 1_555
C8H C9H 1_555 1_555
O5H Fe2D 1_555 1_555
C13H C14H 1_555 1_555
C18H C19H 1_555 1_555
O7H Fe3B 1_555 1_555
O8H Fe2D 1_555 1_555
C27H C30H 1_555 1_555
C28H C29H 1_555 1_555
O6B Fe3B_2 1_555 1_555
C14B C15B 1_555 1_555
C27B C30B 1_555 1_555
C28B C29B 1_555 1_555
C13G C14G 1_555 1_555
C18G C19G 1_555 1_555
O7G Fe3D_4 1_555 1_555
O8G Fe2_2 1_555 1_555
C27G C30G 1_555 1_555
C28G C29G 1_555 1_555
C14D C15D 1_555 1_555
C27D C30D 1_555 1_555
C28D C29D 1_555 1_555
O5F Fe2B_2 1_555 1_555
C13F C14F 1_555 1_555
C18F C19F 1_555 1_555
O8F Fe2B_2 1_555 1_555
C27F C30F 1_555 1_555
C28F C29F 1_555 1_555
Fe2_2 O10_2 1_555 1_555
Fe3_3 O12_2 1_555 1_555

#END
