
#######################################################################
#
#                 Cambridge Crystallographic Data Centre
#                                CCDC 
#
#######################################################################
#
# If this CIF has been generated from an entry in the Cambridge 
# Structural Database, then it will include bibliographic, chemical, 
# crystal, experimental, refinement or atomic coordinate data resulting 
# from the CCDC's data processing and validation procedures.
#
#######################################################################

data_TOWNEA
_symmetry_cell_setting           tetragonal
_symmetry_space_group_name_H-M   'P 43 21 2'
_symmetry_Int_Tables_number      96
_space_group_name_Hall           'P 4nw 2abw'
loop_
_symmetry_equiv_pos_site_id
_symmetry_equiv_pos_as_xyz
1 x,y,z
2 1/2-y,1/2+x,3/4+z
3 -x,-y,1/2+z
4 1/2+y,1/2-x,1/4+z
5 1/2+x,1/2-y,1/4-z
6 1/2-x,1/2+y,3/4-z
7 y,x,-z
8 -y,-x,1/2-z
_cell_length_a                   21.757(11)
_cell_length_b                   21.757(11)
_cell_length_c                   35.299(18)
_cell_angle_alpha                90
_cell_angle_beta                 90
_cell_angle_gamma                90
_cell_volume                     16709.4
loop_
_atom_site_label
_atom_site_type_symbol
_atom_site_fract_x
_atom_site_fract_y
_atom_site_fract_z
Fe1 Fe 0.78344(5) 0.50024(6) 0.10032(3)
Fe2 Fe 0.84314(4) 0.49761(6) 0.01390(3)
Fe3 Fe 0.69377(4) 0.50546(5) 0.02412(3)
O1 O 0.77350(18) 0.5025(2) 0.04680(11)
O2 O 0.7127(2) 0.4381(2) 0.10768(14)
O3 O 0.6696(2) 0.4272(2) 0.04915(14)
O4 O 0.7948(2) 0.4984(3) 0.15857(13)
O5 O 0.3423(3) 0.0724(2) 0.15092(15)
O6 O 0.6072(2) 0.5105(2) -0.00094(13)
O7 O 0.8123(2) 0.4247(2) -0.01445(13)
O8 O 0.9189(2) 0.4917(3) -0.02393(14)
O9 O 0.3550(2) 0.9408(2) 0.15061(14)
O10 O 0.3831(2) 0.9303(2) 0.21255(14)
O11 O 0.7132(2) 0.4535(2) -0.02152(12)
O12 O 0.6915(2) 0.0567(2) -0.22495(12)
O13 O 0.3930(2) 0.0597(2) 0.20346(15)
O14 O 0.6560(2) 0.5521(2) 0.06572(13)
O15 O 0.7856(2) 0.0839(2) -0.24629(13)
O16 O 0.7251(2) 0.5695(2) 0.11195(13)
C1 C 0.6753(5) 0.4131(5) 0.0834(3)
C2 C 0.6398(3) 0.3601(3) 0.09907(17)
C3 C 0.6033(3) 0.3287(3) 0.07315(12)
H1 H 0.6056 0.3386 0.0470
C4 C 0.5635(3) 0.2830(3) 0.08555(15)
H2 H 0.5386 0.2615 0.0678
C5 C 0.5602(3) 0.2686(3) 0.12386(17)
C6 C 0.5967(3) 0.3000(3) 0.14978(13)
H3 H 0.5944 0.2901 0.1760
C7 C 0.6364(3) 0.3457(3) 0.13738(15)
H4 H 0.6613 0.3672 0.1551
C8 C 0.5125(3) 0.2226(3) 0.13705(17)
C9 C 0.4610(3) 0.2100(3) 0.11512(14)
H5 H 0.4543 0.2317 0.0921
C10 C 0.4191(3) 0.1656(3) 0.12682(16)
H6 H 0.3839 0.1570 0.1118
C11 C 0.4288(3) 0.1338(3) 0.16044(17)
C12 C 0.4804(3) 0.1463(3) 0.18236(14)
H7 H 0.4870 0.1246 0.2053
C13 C 0.5222(3) 0.1907(3) 0.17067(16)
H8 H 0.5575 0.1993 0.1856
C14 C 0.3860(6) 0.0858(5) 0.1731(3)
C15 C 0.6729(4) 0.5806(4) 0.0953(2)
C16 C 0.6289(2) 0.6249(2) 0.11267(14)
C17 C 0.5779(2) 0.6410(2) 0.09118(11)
H9 H 0.5698 0.6204 0.0680
C18 C 0.53863(19) 0.6872(2) 0.10364(12)
H10 H 0.5037 0.6982 0.0890
C19 C 0.5505(2) 0.71732(19) 0.13759(13)
C20 C 0.6015(2) 0.7012(2) 0.15908(11)
H11 H 0.6096 0.7218 0.1823
C21 C 0.64076(19) 0.6550(2) 0.14662(13)
H12 H 0.6757 0.6440 0.1613
C22 C 0.5118(2) 0.77212(19) 0.14824(13)
C23 C 0.4940(2) 0.7806(2) 0.18569(11)
H13 H 0.5098 0.7544 0.2049
C24 C 0.4531(2) 0.8273(2) 0.19500(10)
H14 H 0.4409 0.8330 0.2206
C25 C 0.4301(2) 0.8655(2) 0.16685(14)
C26 C 0.4479(2) 0.8571(2) 0.12940(12)
H15 H 0.4321 0.8833 0.1102
C27 C 0.4888(2) 0.8104(2) 0.12009(10)
H16 H 0.5010 0.8046 0.0945
C28 C 0.3855(4) 0.9148(4) 0.1768(3)
C29 C 0.7612(4) 0.4193(4) -0.0289(2)
C30 C 0.7506(2) 0.3748(2) -0.06067(12)
C31 C 0.69381(19) 0.3664(2) -0.07793(14)
H17 H 0.6590 0.3886 -0.0692
C32 C 0.68797(18) 0.3256(2) -0.10800(14)
H18 H 0.6491 0.3199 -0.1198
C33 C 0.7389(2) 0.2932(2) -0.12081(12)
C34 C 0.79574(19) 0.3015(2) -0.10355(14)
H19 H 0.8306 0.2794 -0.1123
C35 C 0.80158(18) 0.3424(2) -0.07348(13)
H20 H 0.8404 0.3481 -0.0617
C36 C 0.7337(2) 0.2468(2) -0.15347(13)
C37 C 0.78396(19) 0.2368(2) -0.17697(14)
H21 H 0.8184 0.2636 -0.1758
C38 C 0.78382(19) 0.1878(2) -0.20219(13)
H22 H 0.8182 0.1810 -0.2182
C39 C 0.7334(2) 0.1487(2) -0.20391(13)
C40 C 0.68308(19) 0.1586(2) -0.18042(14)
H23 H 0.6486 0.1319 -0.1816
C41 C 0.68323(19) 0.2077(2) -0.15520(13)
H24 H 0.6489 0.2145 -0.1391
C42 C 0.7360(4) 0.0936(4) -0.2263(2)
Fe1D Fe 0.28344(5) -0.00024(6) 0.14968(3)
Fe1D_2 Fe 0.28344(5) 0.99976(6) 0.14968(3)
Fe2D Fe 0.34314(4) 0.00239(6) 0.23610(3)
Fe2D_2 Fe 0.34314(4) 1.00239(6) 0.23610(3)
Fe2E Fe 0.65686(4) -0.00239(6) -0.26390(3)
Fe3E Fe 0.80623(4) 0.00546(5) -0.27412(3)
O5D O 0.8423(3) 0.4276(2) 0.09908(15)
O9D O 0.8550(2) 0.5592(2) 0.09939(14)
O10D O 0.8831(2) 0.5697(2) 0.03745(14)
O12E O 0.8085(2) 0.5567(2) -0.02505(12)
O13D O 0.8930(2) 0.4403(2) 0.04654(15)
O15E O 0.7144(2) 0.5839(2) -0.00371(13)
loop_
_geom_bond_atom_site_label_1
_geom_bond_atom_site_label_2
_geom_bond_site_symmetry_1
_geom_bond_site_symmetry_2
Fe1 O1 1_555 1_555
Fe2 O1 1_555 1_555
Fe3 O1 1_555 1_555
O2 Fe1 1_555 1_555
O3 Fe3 1_555 1_555
O4 Fe1 1_555 1_555
O5 C14 1_555 1_555
O6 Fe3 1_555 1_555
O7 Fe2 1_555 1_555
O8 Fe2 1_555 1_555
O9 C28 1_555 1_555
O10 C28 1_555 1_555
O11 Fe3 1_555 1_555
O12 C42 1_555 1_555
O13 C14 1_555 1_555
O14 Fe3 1_555 1_555
O15 C42 1_555 1_555
O16 Fe1 1_555 1_555
C1 O2 1_555 1_555
C2 C1 1_555 1_555
C3 C2 1_555 1_555
H1 C3 1_555 1_555
C4 C3 1_555 1_555
H2 C4 1_555 1_555
C5 C4 1_555 1_555
C6 C5 1_555 1_555
H3 C6 1_555 1_555
C7 C2 1_555 1_555
H4 C7 1_555 1_555
C8 C5 1_555 1_555
C9 C8 1_555 1_555
H5 C9 1_555 1_555
C10 C9 1_555 1_555
H6 C10 1_555 1_555
C11 C10 1_555 1_555
C12 C11 1_555 1_555
H7 C12 1_555 1_555
C13 C8 1_555 1_555
H8 C13 1_555 1_555
C14 C11 1_555 1_555
C15 O14 1_555 1_555
C16 C15 1_555 1_555
C17 C16 1_555 1_555
H9 C17 1_555 1_555
C18 C17 1_555 1_555
H10 C18 1_555 1_555
C19 C18 1_555 1_555
C20 C19 1_555 1_555
H11 C20 1_555 1_555
C21 C16 1_555 1_555
H12 C21 1_555 1_555
C22 C19 1_555 1_555
C23 C22 1_555 1_555
H13 C23 1_555 1_555
C24 C23 1_555 1_555
H14 C24 1_555 1_555
C25 C24 1_555 1_555
C26 C25 1_555 1_555
H15 C26 1_555 1_555
C27 C22 1_555 1_555
H16 C27 1_555 1_555
C28 C25 1_555 1_555
C29 O7 1_555 1_555
C30 C29 1_555 1_555
C31 C30 1_555 1_555
H17 C31 1_555 1_555
C32 C31 1_555 1_555
H18 C32 1_555 1_555
C33 C32 1_555 1_555
C34 C33 1_555 1_555
H19 C34 1_555 1_555
C35 C30 1_555 1_555
H20 C35 1_555 1_555
C36 C33 1_555 1_555
C37 C36 1_555 1_555
H21 C37 1_555 1_555
C38 C37 1_555 1_555
H22 C38 1_555 1_555
C39 C38 1_555 1_555
C40 C39 1_555 1_555
H23 C40 1_555 1_555
C41 C36 1_555 1_555
H24 C41 1_555 1_555
C42 C39 1_555 1_555
Fe1D O5 1_555 1_555
Fe1D_2 O9 1_555 1_555
Fe2D O13 1_555 1_555
Fe2D_2 O10 1_555 1_555
Fe2E O12 1_555 1_555
Fe3E O15 1_555 1_555
O5D Fe1 1_555 1_555
O9D Fe1 1_555 1_555
O10D Fe2 1_555 1_555
O12E Fe2 1_555 1_555
O13D Fe2 1_555 1_555
O15E Fe3 1_555 1_555
O3 C1 1_555 1_555
O11 C29 1_555 1_555
O16 C15 1_555 1_555
C6 C7 1_555 1_555
C12 C13 1_555 1_555
C20 C21 1_555 1_555
C26 C27 1_555 1_555
C34 C35 1_555 1_555
C40 C41 1_555 1_555

#END
