
#######################################################################
#
#                 Cambridge Crystallographic Data Centre
#                                CCDC 
#
#######################################################################
#
# If this CIF has been generated from an entry in the Cambridge 
# Structural Database, then it will include bibliographic, chemical, 
# crystal, experimental, refinement or atomic coordinate data resulting 
# from the CCDC's data processing and validation procedures.
#
#######################################################################

data_TUMDEM
_symmetry_cell_setting           monoclinic
_symmetry_space_group_name_H-M   'P 21/n'
_symmetry_Int_Tables_number      14
_space_group_name_Hall           '-P 2yn'
loop_
_symmetry_equiv_pos_site_id
_symmetry_equiv_pos_as_xyz
1 x,y,z
2 1/2-x,1/2+y,1/2-z
3 -x,-y,-z
4 1/2+x,1/2-y,1/2+z
_cell_length_a                   10.1128(8)
_cell_length_b                   11.8543(6)
_cell_length_c                   18.4224(12)
_cell_angle_alpha                90
_cell_angle_beta                 90.709(6)
_cell_angle_gamma                90
_cell_volume                     2208.31
loop_
_atom_site_label
_atom_site_type_symbol
_atom_site_fract_x
_atom_site_fract_y
_atom_site_fract_z
C1 C 0.7081(3) 0.1989(3) 0.10634(17)
C2 C 0.2091(3) 0.2153(2) 0.10354(16)
C3 C 0.4585(3) 0.2061(3) 0.10759(16)
H1 H 0.4565 0.1732 0.0606
C4 C 0.5798(3) 0.2258(2) 0.14247(16)
C5 C 0.3407(3) 0.2345(2) 0.14127(15)
C6 C 0.5814(3) 0.2736(2) 0.21137(15)
H2 H 0.6631 0.2878 0.2357
C7 C 0.3426(3) 0.2819(2) 0.21035(15)
H3 H 0.2626 0.3011 0.2338
C8 C 0.4637(3) 0.3004(2) 0.24413(14)
C9 C 0.5353(4) 0.5446(3) 0.26311(17)
H4 H 0.5411 0.6218 0.2818
H5 H 0.4652 0.5403 0.2260
H6 H 0.6199 0.5233 0.2417
C10 C 0.5045(3) 0.4661(2) 0.32353(15)
C11 C 0.4473(3) 0.3156(2) 0.38242(15)
C12 C 0.4046(3) 0.2012(2) 0.40355(16)
C13 C 0.3264(5) 0.0281(3) 0.3768(2)
H7 H 0.2999 -0.0273 0.3423
C14 C 0.3202(4) 0.0018(3) 0.44948(19)
H8 H 0.2887 -0.0693 0.4656
C15 C 0.3616(4) 0.0832(3) 0.49762(18)
H9 H 0.3590 0.0677 0.5482
N1 N 0.4689(2) 0.35584(19) 0.31425(12)
N2 N 0.5054(2) 0.4901(2) 0.39301(12)
N3 N 0.4685(2) 0.39474(19) 0.43003(12)
N4 N 0.3683(3) 0.1286(2) 0.35277(15)
N5 N 0.4056(2) 0.1841(2) 0.47546(13)
O1 O 0.7098(2) 0.1398(2) 0.05040(15)
O2 O 0.8120(2) 0.2371(2) 0.13483(12)
O3 O 0.2041(2) 0.1683(2) 0.04337(12)
O4 O 0.1072(2) 0.24831(19) 0.13535(12)
Cd1 Cd 0.460959(19) 0.336614(16) 0.552744(10)
N2B N 0.4946(2) 0.5099(2) 0.60699(12)
O1C O 0.2098(2) 0.3602(2) 0.55040(15)
O2C O 0.3120(2) 0.2629(2) 0.63483(12)
O3C O 0.7041(2) 0.3317(2) 0.54337(12)
O4C O 0.6072(2) 0.25169(19) 0.63535(12)
Cd1B Cd 0.539041(19) 0.663386(16) 0.447256(10)
Cd1C Cd -0.039041(19) 0.163386(16) 0.052744(10)
Cd1C_2 Cd 0.960959(19) 0.163386(16) 0.052744(10)
loop_
_geom_bond_atom_site_label_1
_geom_bond_atom_site_label_2
_geom_bond_site_symmetry_1
_geom_bond_site_symmetry_2
C1 C4 1_555 1_555
C2 C5 1_555 1_555
C3 H1 1_555 1_555
C4 C3 1_555 1_555
C5 C3 1_555 1_555
C6 C4 1_555 1_555
H2 C6 1_555 1_555
C7 C5 1_555 1_555
H3 C7 1_555 1_555
C8 C6 1_555 1_555
C9 H4 1_555 1_555
H5 C9 1_555 1_555
H6 C9 1_555 1_555
C10 C9 1_555 1_555
C11 C12 1_555 1_555
C12 N4 1_555 1_555
C13 H7 1_555 1_555
C14 C13 1_555 1_555
H8 C14 1_555 1_555
C15 C14 1_555 1_555
H9 C15 1_555 1_555
N1 C8 1_555 1_555
N2 C10 1_555 1_555
N3 C11 1_555 1_555
N4 C13 1_555 1_555
N5 C12 1_555 1_555
O1 C1 1_555 1_555
O2 C1 1_555 1_555
O3 C2 1_555 1_555
O4 C2 1_555 1_555
Cd1 N3 1_555 1_555
N2B Cd1 1_555 1_555
O1C Cd1 1_555 1_555
O2C Cd1 1_555 1_555
O3C Cd1 1_555 1_555
O4C Cd1 1_555 1_555
Cd1B N2 1_555 1_555
Cd1C O3 1_555 1_555
Cd1C_2 O1 1_555 1_555
C7 C8 1_555 1_555
C10 N1 1_555 1_555
C11 N1 1_555 1_555
C15 N5 1_555 1_555
N2 N3 1_555 1_555
N5 Cd1 1_555 1_555
O2 Cd1C_2 1_555 1_555
O4 Cd1C 1_555 1_555

#END
