
#######################################################################
#
#                 Cambridge Crystallographic Data Centre
#                                CCDC 
#
#######################################################################
#
# If this CIF has been generated from an entry in the Cambridge 
# Structural Database, then it will include bibliographic, chemical, 
# crystal, experimental, refinement or atomic coordinate data resulting 
# from the CCDC's data processing and validation procedures.
#
#######################################################################

data_TUMQID
_symmetry_cell_setting           monoclinic
_symmetry_space_group_name_H-M   'P 21/n'
_symmetry_Int_Tables_number      14
_space_group_name_Hall           '-P 2yn'
loop_
_symmetry_equiv_pos_site_id
_symmetry_equiv_pos_as_xyz
1 x,y,z
2 1/2-x,1/2+y,1/2-z
3 -x,-y,-z
4 1/2+x,1/2-y,1/2+z
_cell_length_a                   9.8660(11)
_cell_length_b                   17.646(2)
_cell_length_c                   11.9142(14)
_cell_angle_alpha                90
_cell_angle_beta                 96.014(9)
_cell_angle_gamma                90
_cell_volume                     2062.79
loop_
_atom_site_label
_atom_site_type_symbol
_atom_site_fract_x
_atom_site_fract_y
_atom_site_fract_z
C1 C 0.3385(4) 0.09003(19) 0.1789(4)
C2 C 0.8493(4) 0.1350(2) 0.2159(3)
C3 C 0.5918(4) 0.11546(18) 0.1997(3)
H1 H 0.6036 0.0697 0.1615
C4 C 0.4614(4) 0.13761(18) 0.2195(3)
C5 C 0.7059(4) 0.15952(18) 0.2351(3)
C6 C 0.4419(4) 0.20560(18) 0.2776(3)
H2 H 0.3548 0.2209 0.2938
C7 C 0.6867(4) 0.22875(18) 0.2890(3)
H3 H 0.7612 0.2607 0.3105
C8 C 0.5570(4) 0.24931(17) 0.3101(3)
C9 C 0.5767(4) 0.33464(18) 0.4784(3)
H4 H 0.6179 0.2991 0.5300
C10 C 0.4848(4) 0.38753(17) 0.3246(3)
C11 C 0.4319(4) 0.40891(19) 0.2096(3)
C12 C 0.4270(6) 0.3639(2) 0.1144(4)
H5 H 0.4600 0.3139 0.1189
C13 C 0.3727(7) 0.3937(3) 0.0129(4)
H6 H 0.3689 0.3641 -0.0529
C14 C 0.3235(7) 0.4674(3) 0.0075(4)
H7 H 0.2830 0.4878 -0.0608
C15 C 0.3357(6) 0.5101(2) 0.1056(4)
H8 H 0.3053 0.5606 0.1023
N1 N 0.5384(3) 0.32071(14) 0.3680(3)
N2 N 0.5481(3) 0.40488(14) 0.5033(2)
N3 N 0.4890(3) 0.43815(14) 0.4054(2)
N4 N 0.3889(4) 0.48214(16) 0.2044(3)
O1 O 0.3532(3) 0.03143(16) 0.1246(3)
O2 O 0.2232(3) 0.11453(12) 0.2034(2)
O3 O 0.8676(3) 0.06711(14) 0.1880(3)
O4 O 0.9427(4) 0.18074(19) 0.2343(4)
Cu1 Cu 0.42403(5) 0.54365(2) 0.34774(4)
N2B N 0.4519(3) 0.59512(14) 0.4967(2)
O1A O 0.1468(3) 0.53143(16) 0.3754(3)
O2A O 0.2768(3) 0.61453(12) 0.2966(2)
O3A O 0.6324(3) 0.56711(14) 0.3120(3)
Cu1A Cu 0.07597(5) 0.04365(2) 0.15226(4)
Cu1A_2 Cu 1.07597(5) 0.04365(2) 0.15226(4)
Cu1B Cu 0.57597(5) 0.45635(2) 0.65226(4)
O5 O 0.2387(5) 0.5738(2) 0.7412(5)
O6 O 0.2065(9) 0.6559(4) 0.9438(6)
O7 O 0.5615(10) 0.1972(3) 0.6414(7)
O8 O 0.1004(9) 0.2443(3) 0.4282(6)
O9 O 0.4492(14) 0.8907(6) 0.1620(11)
O10 O 0.5186(16) 0.9074(8) 0.0837(12)
O11? O 0.320(2) 0.8719(9) 0.1665(16)
O12? O 0.610(2) 0.8691(11) 0.0668(18)
loop_
_geom_bond_atom_site_label_1
_geom_bond_atom_site_label_2
_geom_bond_site_symmetry_1
_geom_bond_site_symmetry_2
C1 C4 1_555 1_555
C2 C5 1_555 1_555
C3 H1 1_555 1_555
C4 C3 1_555 1_555
C5 C3 1_555 1_555
C6 C4 1_555 1_555
H2 C6 1_555 1_555
C7 C5 1_555 1_555
H3 C7 1_555 1_555
C8 C6 1_555 1_555
C9 H4 1_555 1_555
C10 C11 1_555 1_555
C11 C12 1_555 1_555
C12 H5 1_555 1_555
C13 C12 1_555 1_555
H6 C13 1_555 1_555
C14 C13 1_555 1_555
H7 C14 1_555 1_555
C15 C14 1_555 1_555
H8 C15 1_555 1_555
N1 C8 1_555 1_555
N2 C9 1_555 1_555
N3 C10 1_555 1_555
N4 C11 1_555 1_555
O1 C1 1_555 1_555
O2 C1 1_555 1_555
O3 C2 1_555 1_555
O4 C2 1_555 1_555
Cu1 N3 1_555 1_555
N2B Cu1 1_555 1_555
O1A Cu1 1_555 1_555
O2A Cu1 1_555 1_555
O3A Cu1 1_555 1_555
Cu1A O1 1_555 1_555
Cu1A_2 O3 1_555 1_555
Cu1B N2 1_555 1_555
C7 C8 1_555 1_555
C9 N1 1_555 1_555
C10 N1 1_555 1_555
C15 N4 1_555 1_555
N2 N3 1_555 1_555
N4 Cu1 1_555 1_555
O2 Cu1A 1_555 1_555

#END
