
#######################################################################
#
#                 Cambridge Crystallographic Data Centre
#                                CCDC 
#
#######################################################################
#
# If this CIF has been generated from an entry in the Cambridge 
# Structural Database, then it will include bibliographic, chemical, 
# crystal, experimental, refinement or atomic coordinate data resulting 
# from the CCDC's data processing and validation procedures.
#
#######################################################################

data_TUMRAW
_symmetry_cell_setting           monoclinic
_symmetry_space_group_name_H-M   'P 21/n'
_symmetry_Int_Tables_number      14
_space_group_name_Hall           '-P 2yn'
loop_
_symmetry_equiv_pos_site_id
_symmetry_equiv_pos_as_xyz
1 x,y,z
2 1/2-x,1/2+y,1/2-z
3 -x,-y,-z
4 1/2+x,1/2-y,1/2+z
_cell_length_a                   10.0802(12)
_cell_length_b                   17.451(3)
_cell_length_c                   11.5185(15)
_cell_angle_alpha                90
_cell_angle_beta                 99.781(10)
_cell_angle_gamma                90
_cell_volume                     1996.76
loop_
_atom_site_label
_atom_site_type_symbol
_atom_site_fract_x
_atom_site_fract_y
_atom_site_fract_z
C1 C 0.3487(6) 0.0783(3) 0.1750(6)
C2 C 0.8495(5) 0.1338(3) 0.2063(4)
C3 C 0.5979(6) 0.1083(3) 0.1897(5)
H1 H 0.6091 0.0610 0.1519
C4 C 0.4704(5) 0.1290(3) 0.2115(5)
C5 C 0.7090(5) 0.1560(3) 0.2226(4)
C6 C 0.4538(5) 0.1984(3) 0.2686(4)
H2 H 0.3687 0.2123 0.2869
C7 C 0.6916(5) 0.2267(3) 0.2759(4)
H3 H 0.7657 0.2605 0.2966
C8 C 0.5652(5) 0.2467(3) 0.2981(4)
C9 C 0.6483(6) 0.2648(3) 0.5581(5)
H4 H 0.7433 0.2618 0.5498
H5 H 0.6045 0.2154 0.5363
H6 H 0.6416 0.2768 0.6400
C10 C 0.5807(5) 0.3258(3) 0.4794(4)
C11 C 0.4928(5) 0.3862(3) 0.3162(4)
C12 C 0.4442(5) 0.4109(3) 0.1953(4)
C13 C 0.4389(6) 0.3671(3) 0.0926(5)
H7 H 0.4748 0.3166 0.0986
C14 C 0.3343(6) 0.4653(3) -0.0185(5)
H8 H 0.2908 0.4852 -0.0920
C15 C 0.3434(6) 0.5112(3) 0.0813(5)
H9 H 0.3090 0.5619 0.0740
N1 N 0.5473(4) 0.3173(2) 0.3595(3)
N2 N 0.5467(4) 0.3965(2) 0.5082(4)
N3 N 0.4902(4) 0.4339(2) 0.4049(3)
N4 N 0.3996(4) 0.4850(2) 0.1874(4)
N5 N 0.3844(5) 0.3945(3) -0.0148(4)
O1 O 0.3518(5) 0.0270(3) 0.0982(5)
O2 O 0.2442(4) 0.0960(2) 0.2152(3)
O3 O 0.8687(4) 0.06345(19) 0.1820(3)
O4 O 0.9395(4) 0.1843(2) 0.2161(3)
Cu1 Cu 0.43189(6) 0.55000(3) 0.33726(5)
N2B N 0.4533(4) 0.6035(2) 0.4918(4)
O2A O 0.2558(4) 0.5960(2) 0.2848(3)
O3A O 0.6313(4) 0.56345(19) 0.3180(3)
O4A O 0.5605(4) 0.6843(2) 0.2839(3)
Cu1A Cu 0.06811(6) 0.05000(3) 0.16274(5)
Cu1A_2 Cu 1.06811(6) 0.05000(3) 0.16274(5)
Cu1B Cu 0.56811(6) 0.45000(3) 0.66274(5)
O5 O 1.0858(9) 0.2547(4) 0.4173(6)
O6 O 0.8257(7) 0.3016(4) 0.0350(6)
O7 O 0.0086(12) 0.4331(5) 0.0644(9)
O8 O 0.3241(13) 0.8810(6) 0.2122(10)
O9 O 0.7058(18) 0.9220(9) 0.1528(16)
O10 O 0.592(2) 0.8898(11) 0.0996(17)
O11? O 0.443(2) 0.8981(13) 0.1894(19)
O12? O 0.739(3) 0.9157(15) 0.253(3)
loop_
_geom_bond_atom_site_label_1
_geom_bond_atom_site_label_2
_geom_bond_site_symmetry_1
_geom_bond_site_symmetry_2
C1 C4 1_555 1_555
C2 C5 1_555 1_555
C3 H1 1_555 1_555
C4 C3 1_555 1_555
C5 C3 1_555 1_555
C6 C4 1_555 1_555
H2 C6 1_555 1_555
C7 C5 1_555 1_555
H3 C7 1_555 1_555
C8 C6 1_555 1_555
C9 H4 1_555 1_555
H5 C9 1_555 1_555
H6 C9 1_555 1_555
C10 C9 1_555 1_555
C11 C12 1_555 1_555
C12 C13 1_555 1_555
C13 H7 1_555 1_555
C14 H8 1_555 1_555
C15 C14 1_555 1_555
H9 C15 1_555 1_555
N1 C8 1_555 1_555
N2 C10 1_555 1_555
N3 C11 1_555 1_555
N4 C12 1_555 1_555
N5 C13 1_555 1_555
O1 C1 1_555 1_555
O2 C1 1_555 1_555
O3 C2 1_555 1_555
O4 C2 1_555 1_555
Cu1 N3 1_555 1_555
N2B Cu1 1_555 1_555
O2A Cu1 1_555 1_555
O3A Cu1 1_555 1_555
O4A Cu1 1_555 1_555
Cu1A O2 1_555 1_555
Cu1A_2 O3 1_555 1_555
Cu1B N2 1_555 1_555
C7 C8 1_555 1_555
C10 N1 1_555 1_555
C11 N1 1_555 1_555
C14 N5 1_555 1_555
C15 N4 1_555 1_555
N2 N3 1_555 1_555
N4 Cu1 1_555 1_555
O4 Cu1A_2 1_555 1_555

#END
