
#######################################################################
#
#                 Cambridge Crystallographic Data Centre
#                                CCDC 
#
#######################################################################
#
# If this CIF has been generated from an entry in the Cambridge 
# Structural Database, then it will include bibliographic, chemical, 
# crystal, experimental, refinement or atomic coordinate data resulting 
# from the CCDC's data processing and validation procedures.
#
#######################################################################

data_TUMREA
_symmetry_cell_setting           monoclinic
_symmetry_space_group_name_H-M   'P 21/n'
_symmetry_Int_Tables_number      14
_space_group_name_Hall           '-P 2yn'
loop_
_symmetry_equiv_pos_site_id
_symmetry_equiv_pos_as_xyz
1 x,y,z
2 1/2-x,1/2+y,1/2-z
3 -x,-y,-z
4 1/2+x,1/2-y,1/2+z
_cell_length_a                   9.8439(9)
_cell_length_b                   17.6747(12)
_cell_length_c                   11.8051(10)
_cell_angle_alpha                90
_cell_angle_beta                 99.458(7)
_cell_angle_gamma                90
_cell_volume                     2026.02
loop_
_atom_site_label
_atom_site_type_symbol
_atom_site_fract_x
_atom_site_fract_y
_atom_site_fract_z
C1 C 0.3309(2) 0.08174(14) 0.1864(2)
C2 C 0.8406(2) 0.13421(15) 0.2077(2)
C3 C 0.5852(2) 0.10904(13) 0.1990(2)
H1 H 0.5956 0.0620 0.1641
C4 C 0.4564(2) 0.13107(13) 0.2214(2)
C5 C 0.6981(2) 0.15626(13) 0.22775(19)
C6 C 0.4408(2) 0.20006(13) 0.2736(2)
H2 H 0.3548 0.2147 0.2912
C7 C 0.6827(2) 0.22685(13) 0.2771(2)
H3 H 0.7581 0.2599 0.2949
C8 C 0.5542(2) 0.24704(12) 0.29924(19)
C9 C 0.6341(3) 0.26913(14) 0.5497(2)
H4 H 0.7307 0.2645 0.5433
H5 H 0.5879 0.2214 0.5293
H6 H 0.6256 0.2822 0.6280
C10 C 0.5699(2) 0.32919(13) 0.4709(2)
C11 C 0.4894(2) 0.38535(12) 0.31020(19)
C12 C 0.4412(2) 0.40637(14) 0.1893(2)
C13 C 0.4362(3) 0.35940(16) 0.0941(2)
H7 H 0.4714 0.3100 0.1039
C14 C 0.3344(4) 0.45426(18) -0.0196(3)
H8 H 0.2915 0.4722 -0.0916
C15 C 0.3459(3) 0.50236(17) 0.0747(2)
H9 H 0.3150 0.5526 0.0644
N1 N 0.53854(19) 0.31827(11) 0.35518(17)
N2 N 0.53893(19) 0.39914(11) 0.49532(16)
N3 N 0.48769(18) 0.43442(11) 0.39303(16)
N4 N 0.3998(2) 0.47857(12) 0.17860(18)
N5 N 0.3818(3) 0.38365(15) -0.0114(2)
O1 O 0.3370(2) 0.02745(14) 0.1212(3)
O2 O 0.22370(16) 0.10246(10) 0.22271(16)
O3 O 0.86153(19) 0.06497(11) 0.18856(17)
O4 O 0.9288(2) 0.18473(14) 0.2087(2)
Zn1 Zn 0.44664(2) 0.54765(2) 0.34196(2)
N2B N 0.46107(19) 0.60086(11) 0.50468(16)
O2A O 0.27630(16) 0.60246(10) 0.27729(16)
O3A O 0.63847(19) 0.56497(11) 0.31144(17)
Zn1A Zn 0.05336(2) 0.04765(2) 0.15804(2)
Zn1A_2 Zn 1.05336(2) 0.04765(2) 0.15804(2)
Zn1B Zn 0.55336(2) 0.45235(2) 0.65804(2)
O5 O 0.8069(4) 0.3047(3) 0.0372(4)
O6 O 0.7611(7) 0.4175(5) 0.2291(10)
O7 O 0.8112(10) 0.4229(6) 0.3785(9)
O8 O 0.947(2) 0.4203(14) 0.4269(19)
O9 O 0.0743(8) 0.2626(3) 0.4050(6)
O10 O 0.0558(10) 0.4009(6) 0.3019(9)
O11 O 0.0080(11) 0.4287(4) 0.0456(9)
O12? O 0.8735(11) 0.3724(6) 0.4240(8)
O13? O 0.1265(13) 0.2564(5) 0.3728(9)
O14? O 0.1640(6) 0.3815(3) 0.2621(5)
O15? O -0.042(2) 0.4368(9) 0.0852(17)
loop_
_geom_bond_atom_site_label_1
_geom_bond_atom_site_label_2
_geom_bond_site_symmetry_1
_geom_bond_site_symmetry_2
C1 C4 1_555 1_555
C2 C5 1_555 1_555
C3 H1 1_555 1_555
C4 C3 1_555 1_555
C5 C3 1_555 1_555
C6 C4 1_555 1_555
H2 C6 1_555 1_555
C7 C5 1_555 1_555
H3 C7 1_555 1_555
C8 C6 1_555 1_555
C9 H4 1_555 1_555
H5 C9 1_555 1_555
H6 C9 1_555 1_555
C10 C9 1_555 1_555
C11 C12 1_555 1_555
C12 C13 1_555 1_555
C13 H7 1_555 1_555
C14 H8 1_555 1_555
C15 C14 1_555 1_555
H9 C15 1_555 1_555
N1 C8 1_555 1_555
N2 C10 1_555 1_555
N3 C11 1_555 1_555
N4 C12 1_555 1_555
N5 C13 1_555 1_555
O1 C1 1_555 1_555
O2 C1 1_555 1_555
O3 C2 1_555 1_555
O4 C2 1_555 1_555
Zn1 N3 1_555 1_555
N2B Zn1 1_555 1_555
O2A Zn1 1_555 1_555
O3A Zn1 1_555 1_555
Zn1A O2 1_555 1_555
Zn1A_2 O3 1_555 1_555
Zn1B N2 1_555 1_555
C7 C8 1_555 1_555
C10 N1 1_555 1_555
C11 N1 1_555 1_555
C14 N5 1_555 1_555
C15 N4 1_555 1_555
N2 N3 1_555 1_555
N4 Zn1 1_555 1_555

#END
