
#######################################################################
#
#                 Cambridge Crystallographic Data Centre
#                                CCDC 
#
#######################################################################
#
# If this CIF has been generated from an entry in the Cambridge 
# Structural Database, then it will include bibliographic, chemical, 
# crystal, experimental, refinement or atomic coordinate data resulting 
# from the CCDC's data processing and validation procedures.
#
#######################################################################

data_TUMROK
_symmetry_cell_setting           monoclinic
_symmetry_space_group_name_H-M   'P 21/n'
_symmetry_Int_Tables_number      14
_space_group_name_Hall           '-P 2yn'
loop_
_symmetry_equiv_pos_site_id
_symmetry_equiv_pos_as_xyz
1 x,y,z
2 1/2-x,1/2+y,1/2-z
3 -x,-y,-z
4 1/2+x,1/2-y,1/2+z
_cell_length_a                   9.8767(10)
_cell_length_b                   17.4389(12)
_cell_length_c                   12.0177(12)
_cell_angle_alpha                90
_cell_angle_beta                 97.458(8)
_cell_angle_gamma                90
_cell_volume                     2052.4
loop_
_atom_site_label
_atom_site_type_symbol
_atom_site_fract_x
_atom_site_fract_y
_atom_site_fract_z
C1 C 0.3231(3) 0.0823(2) 0.1836(3)
C2 C 0.8318(3) 0.1225(2) 0.2108(3)
C3 C 0.5775(3) 0.10485(18) 0.1988(3)
H1 H 0.5862 0.0577 0.1608
C4 C 0.4496(3) 0.12876(18) 0.2217(3)
C5 C 0.6926(3) 0.14930(18) 0.2311(3)
C6 C 0.4363(3) 0.19772(18) 0.2776(3)
H2 H 0.3499 0.2140 0.2955
C7 C 0.6790(3) 0.21985(18) 0.2839(3)
H3 H 0.7561 0.2519 0.3039
C8 C 0.5511(3) 0.24191(17) 0.3065(3)
C9 C 0.6193(4) 0.2646(2) 0.5565(3)
H4 H 0.7188 0.2626 0.5585
H5 H 0.5799 0.2149 0.5318
H6 H 0.5966 0.2763 0.6316
C10 C 0.5629(3) 0.32505(17) 0.4772(3)
C11 C 0.4888(3) 0.38188(17) 0.3205(3)
C12 C 0.4444(3) 0.40343(18) 0.2031(3)
C13 C 0.3836(4) 0.3760(2) 0.0206(3)
H7 H 0.3762 0.3409 -0.0404
C14 C 0.3419(4) 0.4504(2) 0.0007(3)
H8 H 0.3016 0.4664 -0.0717
C15 C 0.3607(4) 0.5011(2) 0.0898(3)
H9 H 0.3345 0.5532 0.0781
N1 N 0.5353(3) 0.31382(14) 0.3638(2)
N2 N 0.5337(3) 0.39649(15) 0.5008(2)
N3 N 0.4866(2) 0.43232(14) 0.4009(2)
N4 N 0.4345(3) 0.35075(16) 0.1235(2)
N5 N 0.4152(3) 0.47831(16) 0.1920(2)
O1 O 0.3290(3) 0.02858(16) 0.1165(3)
O2 O 0.2157(2) 0.10252(15) 0.2214(2)
O3 O 0.8439(3) 0.05596(16) 0.1739(3)
O4 O 0.9321(3) 0.1622(3) 0.2351(3)
Co1 Co 0.45150(4) 0.54625(2) 0.34492(3)
N2B N 0.4663(3) 0.60351(15) 0.4992(2)
O2A O 0.2843(2) 0.60252(15) 0.2786(2)
O3A O 0.6561(3) 0.55596(16) 0.3261(3)
Co1A Co 0.04850(4) 0.04625(2) 0.15508(3)
Co1A_2 Co 1.04850(4) 0.04625(2) 0.15508(3)
Co1B Co 0.54850(4) 0.45375(2) 0.65508(3)
O5 O 0.3435(4) 0.8901(2) 0.2454(4)
O6 O 0.4082(4) 0.7605(2) 0.1193(3)
O7 O 0.6228(5) 0.8629(3) 0.0693(4)
O8 O 0.7592(4) 0.4220(2) 0.2342(4)
O10 O 0.2692(9) 0.1684(7) 0.5315(6)
O11 O 1.0060(11) 0.4344(5) 0.0365(10)
O9? O 0.3038(12) 0.2086(9) 0.5241(9)
O12? O 0.9539(11) 0.4309(5) 0.0884(10)
loop_
_geom_bond_atom_site_label_1
_geom_bond_atom_site_label_2
_geom_bond_site_symmetry_1
_geom_bond_site_symmetry_2
C1 C4 1_555 1_555
C2 C5 1_555 1_555
C3 H1 1_555 1_555
C4 C3 1_555 1_555
C5 C3 1_555 1_555
C6 C4 1_555 1_555
H2 C6 1_555 1_555
C7 C5 1_555 1_555
H3 C7 1_555 1_555
C8 C6 1_555 1_555
C9 H4 1_555 1_555
H5 C9 1_555 1_555
H6 C9 1_555 1_555
C10 C9 1_555 1_555
C11 C12 1_555 1_555
C12 N4 1_555 1_555
C13 H7 1_555 1_555
C14 C13 1_555 1_555
H8 C14 1_555 1_555
C15 C14 1_555 1_555
H9 C15 1_555 1_555
N1 C8 1_555 1_555
N2 C10 1_555 1_555
N3 C11 1_555 1_555
N4 C13 1_555 1_555
N5 C12 1_555 1_555
O1 C1 1_555 1_555
O2 C1 1_555 1_555
O3 C2 1_555 1_555
O4 C2 1_555 1_555
Co1 N3 1_555 1_555
N2B Co1 1_555 1_555
O2A Co1 1_555 1_555
O3A Co1 1_555 1_555
Co1A O2 1_555 1_555
Co1A_2 O3 1_555 1_555
Co1B N2 1_555 1_555
C7 C8 1_555 1_555
C10 N1 1_555 1_555
C11 N1 1_555 1_555
C15 N5 1_555 1_555
N2 N3 1_555 1_555
N5 Co1 1_555 1_555

#END
