
#######################################################################
#
#                 Cambridge Crystallographic Data Centre
#                                CCDC 
#
#######################################################################
#
# If this CIF has been generated from an entry in the Cambridge 
# Structural Database, then it will include bibliographic, chemical, 
# crystal, experimental, refinement or atomic coordinate data resulting 
# from the CCDC's data processing and validation procedures.
#
#######################################################################

data_UBABIK
_symmetry_cell_setting           monoclinic
_symmetry_space_group_name_H-M   'C 2/c'
_symmetry_Int_Tables_number      15
_space_group_name_Hall           '-C 2yn'
loop_
_symmetry_equiv_pos_site_id
_symmetry_equiv_pos_as_xyz
1 x,y,z
2 -x,y,1/2-z
3 1/2+x,1/2+y,z
4 1/2-x,1/2+y,1/2-z
5 -x,-y,-z
6 x,-y,1/2+z
7 1/2-x,1/2-y,-z
8 1/2+x,1/2-y,1/2+z
_cell_length_a                   21.693(4)
_cell_length_b                   18.321(3)
_cell_length_c                   22.792(4)
_cell_angle_alpha                90
_cell_angle_beta                 117.959(2)
_cell_angle_gamma                90
_cell_volume                     8001.13
loop_
_atom_site_label
_atom_site_type_symbol
_atom_site_fract_x
_atom_site_fract_y
_atom_site_fract_z
Co1 Co 0.10553(3) -0.01254(3) 0.06597(2)
Co2 Co 0.2500 0.7500 0.0000
C1 C 0.0031(2) 0.1210(2) 0.0050(2)
C2 C 0.0331(2) 0.1971(2) 0.0170(2)
C3 C 0.0950(3) 0.2109(3) 0.0728(3)
H1 H 0.1182 0.1737 0.1029
C4 C 0.1225(3) 0.2798(3) 0.0837(3)
C5 C 0.0932(3) 0.3365(2) 0.0403(3)
C6 C 0.0306(3) 0.3219(3) -0.0152(3)
H2 H 0.0081 0.3591 -0.0455
C7 C 0.0007(3) 0.2535(3) -0.0269(3)
H3 H -0.0417 0.2453 -0.0646
C8 C 0.1222(3) 0.4120(2) 0.0488(3)
C9 C 0.1632(3) 0.4319(3) 0.0199(3)
H4 H 0.1761 0.3962 -0.0013
C10 C 0.1860(3) 0.5026(3) 0.0212(3)
H5 H 0.2137 0.5139 0.0013
C11 C 0.1674(3) 0.5563(2) 0.0523(2)
C12 C 0.1258(3) 0.5389(3) 0.0810(3)
H6 H 0.1123 0.5748 0.1014
C13 C 0.1044(3) 0.4672(3) 0.0793(3)
C14 C 0.1879(2) 0.6352(2) 0.0525(2)
C15 C 0.2380(3) 0.0003(3) 0.1240(2)
C16 C 0.3149(3) 0.0077(3) 0.1608(3)
C17 C 0.3450(3) 0.0648(3) 0.2038(3)
H7 H 0.3167 0.0996 0.2090
C18 C 0.4168(3) 0.0713(4) 0.2395(3)
C19 C 0.4609(3) 0.0227(3) 0.2314(3)
C20 C 0.4297(3) -0.0350(3) 0.1874(3)
H8 H 0.4578 -0.0687 0.1807
C21 C 0.3580(3) -0.0431(3) 0.1535(3)
H9 H 0.3387 -0.0831 0.1257
C22 C 0.1063(3) 0.0594(3) 0.4378(2)
H10 H 0.1042 0.1051 0.4545
C23 C 0.1084(3) 0.0556(3) 0.3786(2)
H11 H 0.1073 0.0984 0.3562
C24 C 0.1119(3) -0.0102(3) 0.3520(2)
C25 C 0.1147(3) -0.0713(3) 0.3888(3)
H12 H 0.1185 -0.1174 0.3738
C26 C 0.1117(3) -0.0640(3) 0.4472(3)
H13 H 0.1128 -0.1060 0.4706
C27 C 0.1123(3) -0.0145(3) 0.2868(2)
C28 C 0.1422(7) 0.0410(5) 0.2671(5)
H14 H 0.1626 0.0809 0.2947
C29 C 0.1414(7) 0.0367(5) 0.2071(5)
H15 H 0.1635 0.0733 0.1958
C30 C 0.0901(8) -0.0736(8) 0.1875(7)
H16 H 0.0755 -0.1160 0.1622
C31 C 0.0895(8) -0.0730(7) 0.2458(7)
H17 H 0.0730 -0.1137 0.2585
N1 N 0.1101(2) -0.0178(2) 0.16332(19)
C32 C 0.3440(2) 0.7434(3) 0.1527(2)
H18 H 0.3011 0.7354 0.1515
C33 C 0.4025(2) 0.7441(3) 0.2138(2)
H19 H 0.3986 0.7371 0.2523
C34 C 0.4676(2) 0.7555(2) 0.2174(2)
C35 C 0.4690(2) 0.7658(3) 0.1584(2)
H20 H 0.5113 0.7735 0.1583
C36 C 0.4072(2) 0.7647(3) 0.0988(2)
H21 H 0.4095 0.7722 0.0596
N2 N 0.1072(2) 0.00054(19) 0.47233(18)
N3 N 0.34500(18) 0.75361(19) 0.09518(17)
N4 N 0.1889(4) 0.2906(4) 0.1454(4)
N5 N 0.0585(4) 0.4528(3) 0.1095(3)
N6 N 0.4454(3) 0.1314(4) 0.2882(3)
O1 O 0.03837(17) 0.07262(16) 0.04559(16)
O2 O -0.05608(17) 0.11108(17) -0.04347(15)
O3 O 0.22148(16) 0.64973(15) 0.02194(16)
O4 O 0.1689(2) 0.68018(18) 0.0819(2)
O5 O 0.21030(17) -0.06148(17) 0.10468(16)
O6 O 0.20060(16) 0.05675(18) 0.11289(17)
O7 O 0.19386(18) 0.80468(16) 0.04100(15)
H22 H 0.205(3) 0.8440(15) 0.064(2)
H23 H 0.186(3) 0.7696(17) 0.062(2)
O8 O 0.1979(4) 0.2503(4) 0.1937(4)
O9 O 0.2255(3) 0.3392(3) 0.1531(3)
O10 O 0.0640(4) 0.3962(3) 0.1366(4)
O11 O 0.0181(4) 0.5010(3) 0.1063(4)
O12 O 0.5042(3) 0.1398(3) 0.3204(3)
O13 O 0.4069(4) 0.1573(7) 0.3091(6)
Co1F Co 0.39447(3) 1.51254(3) -0.06597(2)
Co1E Co 0.10553(3) 0.01254(3) 0.56597(2)
Co1D Co -0.10553(3) 0.01254(3) -0.06597(2)
Co1A Co 0.89447(3) -0.01254(3) 0.43403(2)
Co1B Co 0.60553(3) 1.48746(3) 0.06597(2)
Co1E_2 Co 0.10553(3) 0.01254(3) -0.43403(2)
Co2A Co 0.7500 0.7500 0.5000
C1F C 0.4969(2) 1.3790(2) -0.0050(2)
C2F C 0.4669(2) 1.3029(2) -0.0170(2)
C3F C 0.4050(3) 1.2891(3) -0.0728(3)
H1F H 0.3818 1.3263 -0.1029
C4F C 0.3775(3) 1.2202(3) -0.0837(3)
C5F C 0.4068(3) 1.1635(2) -0.0403(3)
C6F C 0.4694(3) 1.1781(3) 0.0152(3)
H2F H 0.4919 1.1409 0.0455
C7F C 0.4993(3) 1.2465(3) 0.0269(3)
H3F H 0.5417 1.2547 0.0646
C8F C 0.3778(3) 1.0880(2) -0.0488(3)
C9F C 0.3368(3) 1.0681(3) -0.0199(3)
H4F H 0.3239 1.1038 0.0013
C10F C 0.3140(3) 0.9974(3) -0.0212(3)
H5F H 0.2863 0.9861 -0.0013
C11F C 0.3326(3) 0.9437(2) -0.0523(2)
C12F C 0.3742(3) 0.9611(3) -0.0810(3)
H6F H 0.3877 0.9252 -0.1014
C13F C 0.3956(3) 1.0328(3) -0.0793(3)
C14F C 0.3121(2) 0.8648(2) -0.0525(2)
C15A C 0.7620(3) 0.0003(3) 0.3760(2)
C16A C 0.6851(3) 0.0077(3) 0.3392(3)
C17A C 0.6550(3) 0.0648(3) 0.2962(3)
H7A H 0.6833 0.0996 0.2910
C18A C 0.5832(3) 0.0713(4) 0.2605(3)
C19A C 0.5391(3) 0.0227(3) 0.2686(3)
C20A C 0.5703(3) -0.0350(3) 0.3126(3)
H8A H 0.5422 -0.0687 0.3193
C21A C 0.6420(3) -0.0431(3) 0.3465(3)
H9A H 0.6613 -0.0831 0.3743
C22E C 0.1063(3) -0.0594(3) -0.0622(2)
H10E H 0.1042 -0.1051 -0.0455
C23E C 0.1084(3) -0.0556(3) -0.1214(2)
H11E H 0.1073 -0.0984 -0.1438
C24E C 0.1119(3) 0.0102(3) -0.1480(2)
C25E C 0.1147(3) 0.0713(3) -0.1112(3)
H12E H 0.1185 0.1174 -0.1262
C26E C 0.1117(3) 0.0640(3) -0.0528(3)
H13E H 0.1128 0.1060 -0.0294
C27E C 0.1123(3) 0.0145(3) -0.2132(2)
C28E C 0.1422(7) -0.0410(5) -0.2329(5)
H14E H 0.1626 -0.0809 -0.2053
C29E C 0.1414(7) -0.0367(5) -0.2929(5)
H15E H 0.1635 -0.0733 -0.3042
C30E C 0.0901(8) 0.0736(8) -0.3125(7)
H16E H 0.0755 0.1160 -0.3378
C31E C 0.0895(8) 0.0730(7) -0.2542(7)
H17E H 0.0730 0.1137 -0.2415
N1E N 0.1101(2) 0.0178(2) -0.33668(19)
N1F N 0.3899(2) 1.5178(2) -0.16332(19)
C32A C 0.6560(2) 0.7434(3) 0.3473(2)
H18A H 0.6989 0.7354 0.3485
C33A C 0.5975(2) 0.7441(3) 0.2862(2)
H19A H 0.6014 0.7371 0.2477
C34A C 0.5324(2) 0.7555(2) 0.2826(2)
C35A C 0.5310(2) 0.7658(3) 0.3416(2)
H20A H 0.4887 0.7735 0.3417
C36A C 0.5928(2) 0.7647(3) 0.4012(2)
H21A H 0.5905 0.7722 0.4404
N2E N 0.1072(2) -0.00054(19) -0.02767(18)
N2C N 0.3928(2) 1.50054(19) 0.02767(18)
N3A N 0.65500(18) 0.75361(19) 0.40482(17)
N3F N 0.15500(18) 0.74639(19) -0.09518(17)
N4F N 0.3111(4) 1.2094(4) -0.1454(4)
N5F N 0.4415(4) 1.0472(3) -0.1095(3)
N6A N 0.5546(3) 0.1314(4) 0.2118(3)
O1F O 0.46163(17) 1.42738(16) -0.04559(16)
O2F O 0.55608(17) 1.38892(17) 0.04347(15)
O2D O 0.05608(17) -0.11108(17) 0.04347(15)
O2B O 0.44392(17) 1.61108(17) -0.04347(15)
O3F O 0.27852(16) 0.85027(15) -0.02194(16)
O4F O 0.3311(2) 0.81982(18) -0.0819(2)
O5A O 0.78970(17) -0.06148(17) 0.39532(16)
O5F O 0.28970(17) 1.56148(17) -0.10468(16)
O6A O 0.79940(16) 0.05675(18) 0.38711(17)
O6F O 0.29940(16) 1.44325(18) -0.11289(17)
O7F O 0.30614(18) 0.69532(16) -0.04100(15)
H22F H 0.295(3) 0.6560(15) -0.064(2)
H23F H 0.314(3) 0.7304(17) -0.062(2)
O8F O 0.3021(4) 1.2497(4) -0.1937(4)
O9F O 0.2745(3) 1.1608(3) -0.1531(3)
O10F O 0.4360(4) 1.1038(3) -0.1366(4)
O11F O 0.4819(4) 0.9990(3) -0.1063(4)
O12A O 0.4958(3) 0.1398(3) 0.1796(3)
O13A O 0.5931(4) 0.1573(7) 0.1909(6)
O14 O 0.2418(6) 0.1840(6) 0.0607(7)
O15 O 0.3614(7) 0.2493(6) 0.0780(8)
C37? C 0.0730(11) -0.0391(8) -0.2619(7)
C38? C 0.0737(11) -0.0379(8) -0.3221(7)
C39? C 0.1315(16) 0.0697(14) -0.2983(13)
C40? C 0.1319(13) 0.0720(13) -0.2358(10)
H24? H 0.0474 -0.0742 -0.2532
H25? H 0.0501 -0.0739 -0.3535
H26? H 0.1485 0.1101 -0.3109
H27? H 0.1462 0.1143 -0.2103
O16? O 0.4107(8) 0.1931(10) 0.2606(9)
loop_
_geom_bond_atom_site_label_1
_geom_bond_atom_site_label_2
_geom_bond_site_symmetry_1
_geom_bond_site_symmetry_2
Co1 N1 1_555 1_555
Co2 N3 1_555 1_555
C1 C2 1_555 1_555
C2 C3 1_555 1_555
C3 H1 1_555 1_555
C4 C3 1_555 1_555
C5 C4 1_555 1_555
C6 C5 1_555 1_555
H2 C6 1_555 1_555
C7 C2 1_555 1_555
H3 C7 1_555 1_555
C8 C5 1_555 1_555
C9 C8 1_555 1_555
H4 C9 1_555 1_555
C10 C9 1_555 1_555
H5 C10 1_555 1_555
C11 C10 1_555 1_555
C12 C11 1_555 1_555
H6 C12 1_555 1_555
C13 C8 1_555 1_555
C14 C11 1_555 1_555
C15 C16 1_555 1_555
C16 C17 1_555 1_555
C17 H7 1_555 1_555
C18 C17 1_555 1_555
C19 C18 1_555 1_555
C20 C19 1_555 1_555
H8 C20 1_555 1_555
C21 C16 1_555 1_555
H9 C21 1_555 1_555
C22 H10 1_555 1_555
C23 C22 1_555 1_555
H11 C23 1_555 1_555
C24 C23 1_555 1_555
C25 C24 1_555 1_555
H12 C25 1_555 1_555
C26 C25 1_555 1_555
H13 C26 1_555 1_555
C27 C24 1_555 1_555
C28 C27 1_555 1_555
H14 C28 1_555 1_555
C29 C28 1_555 1_555
H15 C29 1_555 1_555
C30 H16 1_555 1_555
C31 C27 1_555 1_555
H17 C31 1_555 1_555
N1 C29 1_555 1_555
C32 H18 1_555 1_555
C33 C32 1_555 1_555
H19 C33 1_555 1_555
C34 C33 1_555 1_555
C35 C34 1_555 1_555
H20 C35 1_555 1_555
C36 C35 1_555 1_555
H21 C36 1_555 1_555
N2 C22 1_555 1_555
N3 C32 1_555 1_555
N4 C4 1_555 1_555
N5 C13 1_555 1_555
N6 C18 1_555 1_555
O1 Co1 1_555 1_555
O2 C1 1_555 1_555
O3 Co2 1_555 1_555
O4 C14 1_555 1_555
O5 Co1 1_555 1_555
O6 Co1 1_555 1_555
O7 Co2 1_555 1_555
H22 O7 1_555 1_555
H23 O7 1_555 1_555
O8 N4 1_555 1_555
O9 N4 1_555 1_555
O10 N5 1_555 1_555
O11 N5 1_555 1_555
O12 N6 1_555 1_555
O13 N6 1_555 1_555
Co1F N1F 1_555 1_555
Co1E N2 1_555 1_555
Co1D O2 1_555 1_555
Co1A O5A 1_555 1_555
Co1B O2F 1_555 1_555
Co1E_2 N1E 1_555 1_555
Co2A N3A 1_555 1_555
C1F C2F 1_555 1_555
C2F C3F 1_555 1_555
C3F H1F 1_555 1_555
C4F C3F 1_555 1_555
C5F C4F 1_555 1_555
C6F C5F 1_555 1_555
H2F C6F 1_555 1_555
C7F C2F 1_555 1_555
H3F C7F 1_555 1_555
C8F C5F 1_555 1_555
C9F C8F 1_555 1_555
H4F C9F 1_555 1_555
C10F C9F 1_555 1_555
H5F C10F 1_555 1_555
C11F C10F 1_555 1_555
C12F C11F 1_555 1_555
H6F C12F 1_555 1_555
C13F C8F 1_555 1_555
C14F C11F 1_555 1_555
C15A C16A 1_555 1_555
C16A C17A 1_555 1_555
C17A H7A 1_555 1_555
C18A C17A 1_555 1_555
C19A C19 1_555 1_555
C20A C19A 1_555 1_555
H8A C20A 1_555 1_555
C21A C16A 1_555 1_555
H9A C21A 1_555 1_555
C22E H10E 1_555 1_555
C23E C22E 1_555 1_555
H11E C23E 1_555 1_555
C24E C23E 1_555 1_555
C25E C24E 1_555 1_555
H12E C25E 1_555 1_555
C26E C25E 1_555 1_555
H13E C26E 1_555 1_555
C27E C24E 1_555 1_555
C28E C27E 1_555 1_555
H14E C28E 1_555 1_555
C29E C28E 1_555 1_555
H15E C29E 1_555 1_555
C30E H16E 1_555 1_555
C31E C27E 1_555 1_555
H17E C31E 1_555 1_555
N1E C29E 1_555 1_555
C32A H18A 1_555 1_555
C33A C32A 1_555 1_555
H19A C33A 1_555 1_555
C34A C34 1_555 1_555
C35A C34A 1_555 1_555
H20A C35A 1_555 1_555
C36A C35A 1_555 1_555
H21A C36A 1_555 1_555
N2E Co1 1_555 1_555
N2C Co1F 1_555 1_555
N3A C32A 1_555 1_555
N3F Co2 1_555 1_555
N4F C4F 1_555 1_555
N5F C13F 1_555 1_555
N6A C18A 1_555 1_555
O1F Co1F 1_555 1_555
O2F C1F 1_555 1_555
O2D Co1 1_555 1_555
O2B Co1F 1_555 1_555
O3F Co2 1_555 1_555
O4F C14F 1_555 1_555
O5A C15A 1_555 1_555
O5F Co1F 1_555 1_555
O6A Co1A 1_555 1_555
O6F Co1F 1_555 1_555
O7F Co2 1_555 1_555
H22F O7F 1_555 1_555
H23F O7F 1_555 1_555
O8F N4F 1_555 1_555
O9F N4F 1_555 1_555
O10F N5F 1_555 1_555
O11F N5F 1_555 1_555
O12A N6A 1_555 1_555
O13A N6A 1_555 1_555
C1 O1 1_555 1_555
C6 C7 1_555 1_555
C12 C13 1_555 1_555
C14 O3 1_555 1_555
C15 O5 1_555 1_555
C15 O6 1_555 1_555
C20 C21 1_555 1_555
C26 N2 1_555 1_555
C30 C31 1_555 1_555
C30 N1 1_555 1_555
C36 N3 1_555 1_555
C1F O1F 1_555 1_555
C6F C7F 1_555 1_555
C12F C13F 1_555 1_555
C14F O3F 1_555 1_555
C15A O6A 1_555 1_555
C18A C19A 1_555 1_555
C20A C21A 1_555 1_555
C22E N2E 1_555 1_555
C26E N2E 1_555 1_555
C30E C31E 1_555 1_555
C30E N1E 1_555 1_555
C33A C34A 1_555 1_555
C36A N3A 1_555 1_555

#END
