
#######################################################################
#
#                 Cambridge Crystallographic Data Centre
#                                CCDC 
#
#######################################################################
#
# If this CIF has been generated from an entry in the Cambridge 
# Structural Database, then it will include bibliographic, chemical, 
# crystal, experimental, refinement or atomic coordinate data resulting 
# from the CCDC's data processing and validation procedures.
#
#######################################################################

data_UBULUA
_symmetry_cell_setting           orthorhombic
_symmetry_space_group_name_H-M   'P b c a'
_symmetry_Int_Tables_number      61
_space_group_name_Hall           '-P 2ac 2ab'
loop_
_symmetry_equiv_pos_site_id
_symmetry_equiv_pos_as_xyz
1 x,y,z
2 1/2-x,-y,1/2+z
3 -x,1/2+y,1/2-z
4 1/2+x,1/2-y,-z
5 -x,-y,-z
6 1/2+x,y,1/2-z
7 x,1/2-y,1/2+z
8 1/2-x,1/2+y,z
_cell_length_a                   27.574(3)
_cell_length_b                   13.8942(17)
_cell_length_c                   44.874(6)
_cell_angle_alpha                90
_cell_angle_beta                 90
_cell_angle_gamma                90
_cell_volume                     17192.1
loop_
_atom_site_label
_atom_site_type_symbol
_atom_site_fract_x
_atom_site_fract_y
_atom_site_fract_z
C21 C 0.8222(3) -0.0377(5) 0.84945(19)
C22 C 0.8702(3) -0.0513(6) 0.86466(17)
C23 C 0.9133(3) -0.0496(8) 0.8482(2)
H15 H 0.9133 -0.0384 0.8274
C24 C 0.9554(3) -0.0650(7) 0.8637(2)
H16 H 0.9851 -0.0613 0.8530
C25 C 0.9167(3) -0.0859(6) 0.9077(2)
H17 H 0.9173 -0.0974 0.9285
C26 C 0.8723(3) -0.0708(6) 0.8943(2)
H18 H 0.8433 -0.0741 0.9057
C27 C 0.7407(3) -0.0389(5) 0.85146(17)
C28 C 0.6948(3) -0.0580(6) 0.86770(18)
C29 C 0.6504(3) -0.0435(6) 0.8537(2)
H19 H 0.6487 -0.0195 0.8339
C30 C 0.6085(3) -0.0655(7) 0.8696(2)
H20 H 0.5781 -0.0558 0.8601
C31 C 0.6519(3) -0.1103(6) 0.91045(19)
H21 H 0.6523 -0.1328 0.9304
C32 C 0.6962(3) -0.0913(6) 0.89679(19)
H22 H 0.7261 -0.1007 0.9070
C33 C 0.7780(3) -0.0005(5) 0.80833(19)
C34 C 0.7753(3) 0.0281(5) 0.77653(17)
C35 C 0.8145(3) 0.0562(6) 0.7604(2)
H23 H 0.8458 0.0517 0.7691
C36 C 0.8101(3) 0.0906(7) 0.7322(2)
H24 H 0.8383 0.1102 0.7218
C37 C 0.7280(3) 0.0655(6) 0.7328(2)
H25 H 0.6977 0.0647 0.7228
C38 C 0.7298(3) 0.0321(5) 0.76197(19)
H26 H 0.7011 0.0124 0.7719
C39 C 0.6014(4) 0.1984(6) 1.0619(2)
C40 C 0.5877(3) 0.3002(6) 1.06765(18)
C41 C 0.5910(4) 0.3432(6) 1.0940(2)
H27 H 0.6045 0.3091 1.1104
C42 C 0.5752(3) 0.4352(7) 1.0980(2)
H28 H 0.5803 0.4647 1.1169
C43 C 0.5479(4) 0.4420(6) 1.05084(18)
H29 H 0.5320 0.4764 1.0354
C44 C 0.5639(4) 0.3526(6) 1.0452(2)
H30 H 0.5591 0.3248 1.0261
C45 C 0.5947(3) 0.0609(6) 1.03580(19)
C46 C 0.5784(3) 0.0089(6) 1.00879(17)
C47 C 0.5573(4) 0.0577(6) 0.9853(2)
H31 H 0.5512 0.1248 0.9867
C48 C 0.5450(4) 0.0079(7) 0.9594(2)
H32 H 0.5314 0.0422 0.9431
C49 C 0.5694(4) -0.1354(7) 0.9809(2)
H33 H 0.5719 -0.2035 0.9798
C50 C 0.5837(4) -0.0897(7) 1.0069(2)
H34 H 0.5968 -0.1254 1.0231
C51 C 0.6357(3) 0.0622(6) 1.0797(2)
C52 C 0.6602(3) 0.0077(6) 1.10326(17)
C53 C 0.6594(4) -0.0918(6) 1.1038(2)
H35 H 0.6431 -0.1264 1.0885
C54 C 0.6822(4) -0.1405(7) 1.1265(2)
H36 H 0.6812 -0.2088 1.1265
C55 C 0.7048(4) -0.0011(7) 1.1488(2)
H37 H 0.7189 0.0312 1.1654
C56 C 0.6843(5) 0.0559(7) 1.1260(2)
H38 H 0.6868 0.1241 1.1263
I1 I 0.56187(3) -0.33002(5) 0.92291(2)
I2 I 0.47823(3) -0.07865(11) 0.88513(3)
I3 I 0.57515(3) 0.69941(6) 1.12399(2)
I4 I 0.50417(3) 0.69371(4) 1.035220(15)
I5 I 0.69412(3) -0.33247(5) 1.187780(17)
I6 I 0.83104(3) -0.18598(6) 1.166680(19)
N1 N 0.7058(3) -0.0959(5) 1.14888(16)
N2 N 0.5521(3) -0.0877(5) 0.95690(17)
N3 N 0.5534(3) 0.4846(5) 1.07730(15)
N4 N 0.6191(3) 0.0102(5) 1.05628(16)
N5 N 0.6298(3) 0.1563(5) 1.08299(17)
N6 N 0.5842(3) 0.1536(6) 1.03813(15)
N7 N 0.9576(3) -0.0852(5) 0.89350(17)
N8 N 0.6086(2) -0.0990(5) 0.89724(16)
N9 N 0.7657(3) 0.0978(5) 0.71855(15)
N10 N 0.7829(2) -0.0504(4) 0.86568(15)
N11 N 0.8225(2) -0.0138(5) 0.81963(14)
N12 N 0.7366(3) -0.0146(5) 0.82213(14)
Zn1 Zn 0.54587(4) -0.15183(8) 0.91588(3)
Zn2 Zn 0.52245(4) 0.61702(7) 1.08596(2)
Zn3 Zn 0.74146(4) -0.17576(7) 1.18001(2)
N7C N 0.4576(3) 0.5852(5) 1.10650(17)
N9A N 0.7343(3) -0.0978(5) 1.21855(15)
Zn2C Zn 1.02245(4) -0.11702(7) 0.91404(2)
Zn3A Zn 0.75854(4) 0.17576(7) 0.68001(2)
C1 C 0.8249(9) 0.7425(16) 0.8094(4)
C2 C 0.8640(9) 0.754(2) 0.7873(5)
H1 H 0.8961 0.7360 0.7924
C3 C 0.8548(9) 0.791(2) 0.7592(6)
H2 H 0.8808 0.8078 0.7464
C4 C 0.8083(10) 0.803(3) 0.7504(6)
H3 H 0.8019 0.8219 0.7304
C5 C 0.7704(9) 0.789(2) 0.7692(5)
H4 H 0.7383 0.8001 0.7622
C6 C 0.7773(8) 0.7585(19) 0.7995(4)
C7 C 0.7393(8) 0.7383(19) 0.8210(5)
C8 C 0.6921(9) 0.7459(16) 0.8111(4)
H5 H 0.6861 0.7625 0.7909
C9 C 0.6524(7) 0.7296(16) 0.8304(5)
C10 C 0.6650(8) 0.6964(16) 0.8588(4)
H6 H 0.6396 0.6761 0.8716
C11 C 0.7133(8) 0.6910(19) 0.8698(5)
H7 H 0.7200 0.6748 0.8900
C12 C 0.7515(7) 0.7113(19) 0.8488(5)
C13 C 0.8000(8) 0.7034(17) 0.8596(5)
C14 C 0.8126(8) 0.6838(19) 0.8881(5)
H8 H 0.7867 0.6798 0.9020
C15 C 0.8585(8) 0.6688(18) 0.8994(5)
H9 H 0.8642 0.6520 0.9196
C16 C 0.8970(8) 0.6808(16) 0.8781(5)
H10 H 0.9297 0.6700 0.8838
C17 C 0.8862(7) 0.7076(14) 0.8496(4)
H11 H 0.9124 0.7217 0.8366
C18 C 0.8382(7) 0.7158(16) 0.8382(4)
C19 C 0.6041(10) 0.741(3) 0.8175(8)
H12 H 0.6014 0.7672 0.7980
C20 C 0.563(2) 0.717(6) 0.8323(16)
H13 H 0.5651 0.6908 0.8519
H14 H 0.5324 0.7254 0.8231
C57? C 0.6337(11) 0.701(3) 0.8498(7)
C58? C 0.6792(10) 0.688(4) 0.8631(8)
C59? C 0.7211(8) 0.7107(14) 0.8470(5)
C60? C 0.7671(8) 0.702(2) 0.8603(5)
C61? C 0.7682(9) 0.680(2) 0.8907(5)
C62? C 0.8153(8) 0.673(2) 0.9021(6)
C63? C 0.8572(9) 0.683(2) 0.8846(5)
C64? C 0.8504(8) 0.7043(16) 0.8544(5)
C65? C 0.8040(8) 0.7128(18) 0.8421(5)
C66? C 0.8980(9) 0.674(2) 0.9021(7)
C67? C 0.8002(9) 0.7400(15) 0.8121(4)
C68? C 0.9431(11) 0.665(2) 0.8870(8)
C69? C 0.8434(9) 0.752(2) 0.7961(5)
C70? C 0.8376(11) 0.779(2) 0.7662(5)
C71? C 0.7954(9) 0.798(3) 0.7500(7)
C72? C 0.7534(11) 0.781(3) 0.7666(5)
C73? C 0.7563(8) 0.7544(16) 0.7966(4)
C74? C 0.7168(8) 0.7419(18) 0.8158(5)
C75? C 0.6702(9) 0.749(2) 0.8034(6)
C76? C 0.6283(10) 0.728(2) 0.8198(6)
H39? H 0.6054 0.6926 0.8616
H40? H 0.6816 0.6628 0.8828
H41? H 0.7398 0.6713 0.9024
H42? H 0.8192 0.6606 0.9227
H43? H 0.8779 0.7133 0.8420
H44? H 0.8961 0.6733 0.9233
H45? H 0.9440 0.6657 0.8659
H46? H 0.9723 0.6586 0.8981
H47? H 0.8744 0.7418 0.8048
H48? H 0.8669 0.7855 0.7553
H49? H 0.7953 0.8204 0.7299
H50? H 0.7226 0.7879 0.7574
H51? H 0.6669 0.7697 0.7833
H52? H 0.5972 0.7307 0.8108
loop_
_geom_bond_atom_site_label_1
_geom_bond_atom_site_label_2
_geom_bond_site_symmetry_1
_geom_bond_site_symmetry_2
C1 C2 1_555 1_555
C2 H1 1_555 1_555
C3 C2 1_555 1_555
H2 C3 1_555 1_555
C4 C3 1_555 1_555
H3 C4 1_555 1_555
C5 C4 1_555 1_555
H4 C5 1_555 1_555
C6 C1 1_555 1_555
C7 C6 1_555 1_555
C8 C7 1_555 1_555
H5 C8 1_555 1_555
C9 C8 1_555 1_555
C10 C9 1_555 1_555
H6 C10 1_555 1_555
C11 C10 1_555 1_555
H7 C11 1_555 1_555
C12 C7 1_555 1_555
C13 C12 1_555 1_555
C14 C13 1_555 1_555
H8 C14 1_555 1_555
C15 C14 1_555 1_555
H9 C15 1_555 1_555
C16 C15 1_555 1_555
H10 C16 1_555 1_555
C17 C16 1_555 1_555
H11 C17 1_555 1_555
C18 C1 1_555 1_555
C19 C9 1_555 1_555
H12 C19 1_555 1_555
C20 C19 1_555 1_555
H13 C20 1_555 1_555
H14 C20 1_555 1_555
C21 C22 1_555 1_555
C22 C23 1_555 1_555
C23 H15 1_555 1_555
C24 C23 1_555 1_555
H16 C24 1_555 1_555
C25 H17 1_555 1_555
C26 C22 1_555 1_555
H18 C26 1_555 1_555
C27 C28 1_555 1_555
C28 C29 1_555 1_555
C29 H19 1_555 1_555
C30 C29 1_555 1_555
H20 C30 1_555 1_555
C31 H21 1_555 1_555
C32 C28 1_555 1_555
H22 C32 1_555 1_555
C33 C34 1_555 1_555
C34 C35 1_555 1_555
C35 H23 1_555 1_555
C36 C35 1_555 1_555
H24 C36 1_555 1_555
C37 H25 1_555 1_555
C38 C34 1_555 1_555
H26 C38 1_555 1_555
C39 C40 1_555 1_555
C40 C41 1_555 1_555
C41 H27 1_555 1_555
C42 C41 1_555 1_555
H28 C42 1_555 1_555
C43 H29 1_555 1_555
C44 C40 1_555 1_555
H30 C44 1_555 1_555
C45 C46 1_555 1_555
C46 C47 1_555 1_555
C47 H31 1_555 1_555
C48 C47 1_555 1_555
H32 C48 1_555 1_555
C49 H33 1_555 1_555
C50 C46 1_555 1_555
H34 C50 1_555 1_555
C51 C52 1_555 1_555
C52 C53 1_555 1_555
C53 H35 1_555 1_555
C54 C53 1_555 1_555
H36 C54 1_555 1_555
C55 H37 1_555 1_555
C56 C52 1_555 1_555
H38 C56 1_555 1_555
I1 Zn1 1_555 1_555
I2 Zn1 1_555 1_555
I3 Zn2 1_555 1_555
I4 Zn2 1_555 1_555
I5 Zn3 1_555 1_555
I6 Zn3 1_555 1_555
N1 C54 1_555 1_555
N2 C48 1_555 1_555
N3 C42 1_555 1_555
N4 C45 1_555 1_555
N5 C39 1_555 1_555
N6 C39 1_555 1_555
N7 C24 1_555 1_555
N8 C30 1_555 1_555
N9 C36 1_555 1_555
N10 C21 1_555 1_555
N11 C21 1_555 1_555
N12 C27 1_555 1_555
Zn1 N2 1_555 1_555
Zn2 N3 1_555 1_555
Zn3 N1 1_555 1_555
N7C Zn2 1_555 1_555
N9A Zn3 1_555 1_555
Zn2C N7 1_555 1_555
Zn3A N9 1_555 1_555
C5 C6 1_555 1_555
C11 C12 1_555 1_555
C13 C18 1_555 1_555
C17 C18 1_555 1_555
C25 C26 1_555 1_555
C25 N7 1_555 1_555
C27 N10 1_555 1_555
C31 C32 1_555 1_555
C31 N8 1_555 1_555
C33 N11 1_555 1_555
C33 N12 1_555 1_555
C37 C38 1_555 1_555
C37 N9 1_555 1_555
C43 C44 1_555 1_555
C43 N3 1_555 1_555
C45 N6 1_555 1_555
C49 C50 1_555 1_555
C49 N2 1_555 1_555
C51 N4 1_555 1_555
C51 N5 1_555 1_555
C55 C56 1_555 1_555
C55 N1 1_555 1_555
N8 Zn1 1_555 1_555

#END
