
#######################################################################
#
#                 Cambridge Crystallographic Data Centre
#                                CCDC 
#
#######################################################################
#
# If this CIF has been generated from an entry in the Cambridge 
# Structural Database, then it will include bibliographic, chemical, 
# crystal, experimental, refinement or atomic coordinate data resulting 
# from the CCDC's data processing and validation procedures.
#
#######################################################################

data_UBUMAH
_symmetry_cell_setting           orthorhombic
_symmetry_space_group_name_H-M   'P n a 21'
_symmetry_Int_Tables_number      33
_space_group_name_Hall           'P 2c -2n'
loop_
_symmetry_equiv_pos_site_id
_symmetry_equiv_pos_as_xyz
1 x,y,z
2 -x,-y,1/2+z
3 1/2+x,1/2-y,z
4 1/2-x,1/2+y,1/2+z
_cell_length_a                   21.312(3)
_cell_length_b                   11.2949(15)
_cell_length_c                   29.097(4)
_cell_angle_alpha                90
_cell_angle_beta                 90
_cell_angle_gamma                90
_cell_volume                     7004.14
loop_
_atom_site_label
_atom_site_type_symbol
_atom_site_fract_x
_atom_site_fract_y
_atom_site_fract_z
Zn1 Zn 0.16450(3) 0.38376(4) 0.32562(14)
Zn2 Zn 0.09925(2) 0.24182(4) 0.24062(13)
Zn3 Zn 0.10486(2) 0.51473(4) 0.23911(14)
Zn4 Zn 0.01585(3) 0.34597(6) 0.31439(14)
O1 O 0.09147(15) 0.3779(2) 0.28064(19)
O2 O 0.1036(2) 0.3668(4) 0.3855(2)
O3 O 0.0254(3) 0.2476(5) 0.3694(2)
O4 O -0.01632(14) -0.1898(3) 0.71856(19)
O5 O 0.04327(18) -0.2466(4) 0.77767(18)
O6 O 0.2674(2) -0.1251(4) 0.7777(2)
O7 O 0.30025(15) 0.0037(3) 0.72339(18)
O8 O 0.35651(18) 0.7643(4) 0.68156(19)
O9 O 0.40324(19) 0.9465(4) 0.67256(18)
O10 O 0.16321(18) 0.5637(3) 0.33482(19)
O11 O 0.12062(18) 0.6621(3) 0.27549(19)
O12 O 0.1679(2) 1.1950(3) 0.3318(2)
O13 O 0.13007(17) 1.0967(3) 0.26998(17)
O14 O 0.2354(3) 0.3855(4) 0.3762(3)
O15 O 0.0158(2) 0.5836(4) 0.2281(2)
O16 O -0.0342(3) 0.4805(6) 0.3378(3)
C1 C 0.0707(3) 0.2823(6) 0.3947(2)
C2 C 0.0850(3) 0.2183(5) 0.4394(3)
C3 C 0.0393(4) 0.1354(10) 0.4564(3)
H1 H 0.0025 0.1206 0.4402
C4 C 0.0520(4) 0.0770(9) 0.4985(3)
H2 H 0.0223 0.0253 0.5106
C5 C 0.1089(4) 0.0957(8) 0.5225(3)
C6 C 0.1497(4) 0.1727(10) 0.5029(3)
H3 H 0.1883 0.1834 0.5172
C7 C 0.1377(3) 0.2395(7) 0.4614(3)
H4 H 0.1662 0.2954 0.4507
C8 C 0.1152(4) 0.0498(6) 0.5682(3)
C9 C 0.1249(4) 0.0109(6) 0.6035(3)
C10 C 0.1340(3) -0.0449(6) 0.6494(2)
C11 C 0.0855(2) -0.0911(6) 0.6714(2)
H5 H 0.0463 -0.0895 0.6574
C12 C 0.0912(2) -0.1428(5) 0.7155(2)
C13 C 0.1488(2) -0.1364(5) 0.7397(3)
H6 H 0.1540 -0.1718 0.7683
C14 C 0.1983(2) -0.0733(4) 0.7180(2)
C15 C 0.1906(3) -0.0240(6) 0.6726(2)
H7 H 0.2223 0.0205 0.6591
C16 C 0.0341(2) -0.1953(4) 0.7379(2)
C17 C 0.25969(19) -0.0656(4) 0.7418(2)
C18 C 0.3674(3) 0.8624(5) 0.6593(2)
C19 C 0.3411(2) 0.8672(5) 0.6131(2)
C20 C 0.3136(5) 0.7744(7) 0.5930(3)
H8 H 0.3119 0.7032 0.6090
C21 C 0.2880(3) 0.7791(6) 0.5504(2)
H9 H 0.2773 0.7087 0.5358
C22 C 0.2779(5) 0.8789(5) 0.5292(3)
C23 C 0.3091(6) 0.9811(6) 0.5479(3)
H10 H 0.3120 1.0507 0.5309
C24 C 0.3346(3) 0.9745(6) 0.5915(3)
H11 H 0.3475 1.0433 0.6063
C25 C 0.2489(4) 0.8878(6) 0.4852(3)
C26 C 0.2311(4) 0.8865(5) 0.4463(3)
C27 C 0.2043(4) 0.8820(5) 0.4001(3)
C28 C 0.1899(3) 0.7784(4) 0.3789(2)
H12 H 0.1970 0.7073 0.3941
C29 C 0.1654(2) 0.7766(4) 0.3359(2)
C30 C 0.1527(3) 0.8834(4) 0.3132(3)
H13 H 0.1349 0.8811 0.2841
C31 C 0.1659(2) 0.9924(4) 0.3329(2)
C32 C 0.1913(3) 0.9889(4) 0.3774(2)
H14 H 0.1998 1.0599 0.3924
C33 C 0.1479(2) 0.6578(4) 0.3134(2)
C34 C 0.1565(2) 1.0984(5) 0.3105(3)
Zn1_2 Zn 0.16450(3) 1.38376(4) 0.32562(14)
Zn1C Zn 0.33550(3) -0.11624(4) 0.82562(14)
Zn2_2 Zn 0.09925(2) 1.24182(4) 0.24062(13)
Zn2A Zn -0.09925(2) -0.24182(4) 0.74062(13)
Zn2C Zn 0.40075(2) 0.74182(4) 0.74062(13)
Zn3C Zn 0.39514(2) 0.01473(4) 0.73911(14)
Zn3C_2 Zn 0.39514(2) 1.01473(4) 0.73911(14)
Zn4A Zn -0.01585(3) -0.34597(6) 0.81439(14)
O4A O 0.01632(14) 0.1898(3) 0.21856(19)
O5A O -0.04327(18) 0.2466(4) 0.27767(18)
O6C O 0.2326(2) 0.3749(4) 0.2777(2)
O7C O 0.19975(15) 0.5037(3) 0.22339(18)
O8C O 0.14349(18) 0.2643(4) 0.18156(19)
O9C O 0.09676(19) 0.4465(4) 0.17256(18)
O12_2 O 0.1679(2) 0.1950(3) 0.3318(2)
O13_2 O 0.13007(17) 0.0967(3) 0.26998(17)
C35 C 0.353(4) 0.524(4) 0.364(3)
H15 H 0.3670 0.4882 0.3923
H16 H 0.3843 0.5144 0.3409
H17 H 0.3147 0.4863 0.3544
C36 C 0.372(4) 0.676(9) 0.413(3)
H18 H 0.3813 0.6058 0.4301
H19 H 0.3459 0.7275 0.4305
H20 H 0.4110 0.7163 0.4057
O17 O 0.344(2) 0.819(6) 0.3554(18)
C37 C 0.303(6) 0.689(15) 0.287(3)
H21 H 0.2936 0.7619 0.2712
H22 H 0.2658 0.6397 0.2867
H23 H 0.3363 0.6488 0.2716
N1 N 0.342(3) 0.645(5) 0.372(3)
C38 C 0.321(11) 0.714(6) 0.335(4)
N2 N 0.1114(17) 0.854(4) 0.1536(12)
C39 C 0.0651(14) 0.913(5) 0.1808(19)
H24 H 0.0392 0.9615 0.1613
H25 H 0.0855 0.9627 0.2032
H26 H 0.0395 0.8558 0.1963
C40 C 0.1569(19) 0.773(2) 0.1621(16)
H27 H 0.1440 0.7227 0.1868
H28 H 0.1949 0.8134 0.1704
H29 H 0.1640 0.7268 0.1350
C41 C 0.121(2) 0.931(4) 0.1171(18)
O18 O 0.092(2) 0.866(4) 0.0712(14)
C42 C 0.085(5) 1.036(8) 0.120(3)
H30 H 0.0949 1.0866 0.0948
H31 H 0.0952 1.0757 0.1486
H32 H 0.0414 1.0164 0.1199
C43 C -0.0460(13) 0.671(5) 0.5236(14)
H33 H -0.0845 0.6481 0.5389
H34 H -0.0568 0.7266 0.4993
C44 C -0.019(3) 0.577(5) 0.505(3)
H35 H -0.0473 0.5400 0.4841
H36 H -0.0087 0.5215 0.5294
H37 H 0.0187 0.5998 0.4897
O19 O -0.007(2) 0.726(4) 0.5543(16)
H38 H 0.013(3) 0.686(7) 0.585(2)
C45 C -0.114(2) 0.353(2) 0.4116(19)
H39 H -0.0837 0.3045 0.3951
H40 H -0.1491 0.3651 0.3911
C46 C -0.0865(15) 0.461(3) 0.4184(13)
H41 H -0.0575 0.4767 0.3939
H42 H -0.0645 0.4609 0.4472
H43 H -0.1183 0.5211 0.4188
O20 O -0.137(2) 0.282(3) 0.450(2)
H44 H -0.111(3) 0.321(8) 0.4726(17)
O21 O 0.2453(15) 0.5251(18) 0.4508(7)
O22 O 0.9152(13) 0.433(3) 0.1804(19)
C47 C 0.8181(11) 0.4142(13) 0.2084(8)
H45 H 0.7755 0.3900 0.2032
H46 H 0.8187 0.4950 0.2187
H47 H 0.8366 0.3645 0.2315
C48 C 0.859(2) 0.402(3) 0.160(2)
H48 H 0.8592 0.3222 0.1475
H49 H 0.8456 0.4579 0.1363
H50 H 0.927(5) 0.483(10) 0.208(3)
O23 O 0.1317(4) 0.6611(8) 0.5065(3)
O24 O 0.0638(4) 0.3200(8) 0.6105(3)
O25 O 0.1278(4) 0.4382(8) 0.5529(3)
O26 O 0.250(2) 0.459(3) 0.5371(16)
O27 O 0.211(3) 0.316(3) 0.6215(9)
O28? O -0.0240(5) 0.6964(5) 0.3045(3)
N3? N -0.0109(18) 0.910(3) 0.3135(12)
C49? C -0.0031(11) 0.807(3) 0.3394(9)
C50? C -0.0132(9) 0.915(2) 0.2673(11)
H51? H -0.0188 0.9963 0.2580
H52? H -0.0476 0.8687 0.2563
H53? H 0.0253 0.8856 0.2547
C51? C 0.0128(16) 0.780(3) 0.3860(7)
H54? H 0.0135 0.6958 0.3902
H55? H -0.0179 0.8144 0.4062
H56? H 0.0534 0.8121 0.3930
C52? C -0.001(2) 1.013(3) 0.3415(15)
H57? H -0.0005 0.9907 0.3734
H58? H -0.0334 1.0694 0.3361
H59? H 0.0392 1.0477 0.3338
loop_
_geom_bond_atom_site_label_1
_geom_bond_atom_site_label_2
_geom_bond_site_symmetry_1
_geom_bond_site_symmetry_2
Zn1 O1 1_555 1_555
Zn2 O1 1_555 1_555
Zn3 O1 1_555 1_555
Zn4 O1 1_555 1_555
O2 Zn1 1_555 1_555
O3 Zn4 1_555 1_555
O4 C16 1_555 1_555
O5 C16 1_555 1_555
O6 C17 1_555 1_555
O7 C17 1_555 1_555
O8 C18 1_555 1_555
O9 C18 1_555 1_555
O10 Zn1 1_555 1_555
O11 Zn3 1_555 1_555
O12 C34 1_555 1_555
O13 C34 1_555 1_555
O14 Zn1 1_555 1_555
O15 Zn3 1_555 1_555
O16 Zn4 1_555 1_555
C1 O2 1_555 1_555
C2 C1 1_555 1_555
C3 C2 1_555 1_555
H1 C3 1_555 1_555
C4 C3 1_555 1_555
H2 C4 1_555 1_555
C5 C4 1_555 1_555
C6 C5 1_555 1_555
H3 C6 1_555 1_555
C7 C2 1_555 1_555
H4 C7 1_555 1_555
C8 C5 1_555 1_555
C9 C8 1_555 1_555
C10 C9 1_555 1_555
C11 C10 1_555 1_555
H5 C11 1_555 1_555
C12 C11 1_555 1_555
C13 C12 1_555 1_555
H6 C13 1_555 1_555
C14 C13 1_555 1_555
C15 C10 1_555 1_555
H7 C15 1_555 1_555
C16 C12 1_555 1_555
C17 C14 1_555 1_555
C18 C19 1_555 1_555
C19 C20 1_555 1_555
C20 H8 1_555 1_555
C21 C20 1_555 1_555
H9 C21 1_555 1_555
C22 C21 1_555 1_555
C23 C22 1_555 1_555
H10 C23 1_555 1_555
C24 C19 1_555 1_555
H11 C24 1_555 1_555
C25 C22 1_555 1_555
C26 C25 1_555 1_555
C27 C26 1_555 1_555
C28 C27 1_555 1_555
H12 C28 1_555 1_555
C29 C28 1_555 1_555
C30 C29 1_555 1_555
H13 C30 1_555 1_555
C31 C30 1_555 1_555
C32 C27 1_555 1_555
H14 C32 1_555 1_555
C33 O10 1_555 1_555
C34 C31 1_555 1_555
C35 H15 1_555 1_555
H16 C35 1_555 1_555
H17 C35 1_555 1_555
C36 H18 1_555 1_555
H19 C36 1_555 1_555
H20 C36 1_555 1_555
O17 C38 1_555 1_555
C37 H21 1_555 1_555
H22 C37 1_555 1_555
H23 C37 1_555 1_555
N1 C35 1_555 1_555
C38 C37 1_555 1_555
N2 C39 1_555 1_555
C39 H24 1_555 1_555
H25 C39 1_555 1_555
H26 C39 1_555 1_555
C40 N2 1_555 1_555
H27 C40 1_555 1_555
H28 C40 1_555 1_555
H29 C40 1_555 1_555
C41 N2 1_555 1_555
O18 C41 1_555 1_555
C42 C41 1_555 1_555
H30 C42 1_555 1_555
H31 C42 1_555 1_555
H32 C42 1_555 1_555
C43 H33 1_555 1_555
H34 C43 1_555 1_555
C44 C43 1_555 1_555
H35 C44 1_555 1_555
H36 C44 1_555 1_555
H37 C44 1_555 1_555
O19 C43 1_555 1_555
H38 O19 1_555 1_555
C45 H39 1_555 1_555
H40 C45 1_555 1_555
C46 C45 1_555 1_555
H41 C46 1_555 1_555
H42 C46 1_555 1_555
H43 C46 1_555 1_555
O20 C45 1_555 1_555
H44 O20 1_555 1_555
O22 C48 1_555 1_555
C47 H45 1_555 1_555
H46 C47 1_555 1_555
H47 C47 1_555 1_555
C48 C47 1_555 1_555
H48 C48 1_555 1_555
H49 C48 1_555 1_555
H50 O22 1_555 1_555
Zn1_2 O12 1_555 1_555
Zn1C O6 1_555 1_555
Zn2_2 O13 1_555 1_555
Zn2A O4 1_555 1_555
Zn2C O8 1_555 1_555
Zn3C O7 1_555 1_555
Zn3C_2 O9 1_555 1_555
Zn4A O5 1_555 1_555
O4A Zn2 1_555 1_555
O5A Zn4 1_555 1_555
O6C Zn1 1_555 1_555
O7C Zn3 1_555 1_555
O8C Zn2 1_555 1_555
O9C Zn3 1_555 1_555
O12_2 Zn1 1_555 1_555
O13_2 Zn2 1_555 1_555
O3 C1 1_555 1_555
O11 C33 1_555 1_555
C6 C7 1_555 1_555
C14 C15 1_555 1_555
C23 C24 1_555 1_555
C29 C33 1_555 1_555
C31 C32 1_555 1_555
C36 N1 1_555 1_555
N1 C38 1_555 1_555

#END
