
#######################################################################
#
#                 Cambridge Crystallographic Data Centre
#                                CCDC 
#
#######################################################################
#
# If this CIF has been generated from an entry in the Cambridge 
# Structural Database, then it will include bibliographic, chemical, 
# crystal, experimental, refinement or atomic coordinate data resulting 
# from the CCDC's data processing and validation procedures.
#
#######################################################################

data_UFEXEJ
_symmetry_cell_setting           rhombohedral
_symmetry_space_group_name_H-M   'R -3'
_symmetry_Int_Tables_number      148
_space_group_name_Hall           '-R 3'
loop_
_symmetry_equiv_pos_site_id
_symmetry_equiv_pos_as_xyz
1 x,y,z
2 -y,x-y,z
3 -x+y,-x,z
4 2/3+x,1/3+y,1/3+z
5 2/3-y,1/3+x-y,1/3+z
6 2/3-x+y,1/3-x,1/3+z
7 1/3+x,2/3+y,2/3+z
8 1/3-y,2/3+x-y,2/3+z
9 1/3-x+y,2/3-x,2/3+z
10 -x,-y,-z
11 y,-x+y,-z
12 x-y,x,-z
13 1/3-x,2/3-y,2/3-z
14 1/3+y,2/3-x+y,2/3-z
15 1/3+x-y,2/3+x,2/3-z
16 2/3-x,1/3-y,1/3-z
17 2/3+y,1/3-x+y,1/3-z
18 2/3+x-y,1/3+x,1/3-z
_cell_length_a                   27.420(5)
_cell_length_b                   27.420(5)
_cell_length_c                   7.0011(18)
_cell_angle_alpha                90
_cell_angle_beta                 90
_cell_angle_gamma                120
_cell_volume                     4558.6
loop_
_atom_site_label
_atom_site_type_symbol
_atom_site_fract_x
_atom_site_fract_y
_atom_site_fract_z
Dy1 Dy 0.747316(10) 0.341477(10) 0.11686(3)
Cu1 Cu 1.0000 0.5000 0.0000
C1 C 0.8389(2) 0.4344(2) -0.2100(7)
C2 C 0.8884(2) 0.4505(3) -0.1032(8)
C3 C 0.9430(3) 0.5091(3) -0.3489(10)
H1 H 0.9782 0.5335 -0.4007
C4 C 0.8948(3) 0.4950(3) -0.4506(9)
H2 H 0.8979 0.5114 -0.5695
C5 C 0.8907(2) 0.4302(3) 0.0930(8)
O1 O 0.78863(15) 0.39875(16) -0.1584(5)
O2 O 0.84631(17) 0.39762(19) 0.1767(6)
O3 O 0.93897(19) 0.4493(2) 0.1655(7)
O4 O 0.6667 0.3333 0.0141(14)
O5 O 0.75042(16) 0.42456(15) 0.2191(5)
O6 O 0.6667 0.3333 0.3333
N1 N 0.8439(2) 0.4586(2) -0.3842(7)
N2 N 0.9387(2) 0.4873(3) -0.1752(8)
Dy1I Dy 1.252684(10) 0.658523(10) -0.11686(3)
Dy1N Dy 0.739172(14) 0.413983(10) -0.45019(3)
Dy1E Dy 1.260828(14) 0.586017(10) 0.45019(3)
Dy1M Dy 0.674810(10) 0.260828(14) -0.45019(3)
Dy1D Dy 1.325190(10) 0.739172(14) 0.45019(3)
Dy1A Dy 0.658523(10) 0.405839(14) 0.11686(3)
Dy1B Dy 0.594161(14) 0.252684(10) 0.11686(3)
Dy1N_2 Dy 0.739172(14) 0.413983(10) 0.54981(3)
Dy1L Dy 0.586017(10) 0.325190(10) 0.54981(3)
Dy1M_2 Dy 0.674810(10) 0.260828(14) 0.54981(3)
Dy1J Dy 1.341477(10) 0.594161(14) -0.11686(3)
Dy1K Dy 1.405839(14) 0.747316(10) -0.11686(3)
Dy1E_2 Dy 1.260828(14) 0.586017(10) -0.54981(3)
Dy1D_2 Dy 1.325190(10) 0.739172(14) -0.54981(3)
Dy1L_2 Dy 0.586017(10) 0.325190(10) -0.45019(3)
Dy1C Dy 1.413983(10) 0.674810(10) 0.45019(3)
Cu1G Cu 0.8333 0.1667 -0.3333
Cu1D Cu 1.1667 0.8333 0.3333
Cu1H Cu 0.8333 0.6667 -0.3333
Cu1E Cu 1.1667 0.3333 0.3333
C1I C 1.1611(2) 0.5656(2) 0.2100(7)
C1M C 0.7677(2) 0.2622(3) -0.1233(7)
C1D C 1.2323(2) 0.7378(3) 0.1233(7)
C1N C 0.7378(3) 0.5056(2) -0.1233(7)
C1E C 1.2622(3) 0.4944(2) 0.1233(7)
C2I C 1.1116(2) 0.5495(3) 0.1032(8)
C2M C 0.7838(3) 0.2288(4) -0.2301(8)
C2D C 1.2162(3) 0.7712(4) 0.2301(8)
C2N C 0.7712(4) 0.5551(2) -0.2301(8)
C2E C 1.2288(4) 0.4449(2) 0.2301(8)
C3I C 1.0570(3) 0.4909(3) 0.3489(10)
C3M C 0.8424(3) 0.2328(4) 0.0156(10)
C3D C 1.1576(3) 0.7672(4) -0.0156(10)
C3N C 0.7672(4) 0.6097(3) 0.0156(10)
C3E C 1.2328(4) 0.3903(3) -0.0156(10)
H1I H 1.0218 0.4665 0.4007
H1M H 0.8668 0.2220 0.0674
H1D H 1.1332 0.7780 -0.0674
H1N H 0.7780 0.6449 0.0674
H1E H 1.2220 0.3551 -0.0674
C4I C 1.1052(3) 0.5050(3) 0.4506(9)
C4M C 0.8283(3) 0.2669(4) 0.1173(9)
C4D C 1.1717(3) 0.7331(4) -0.1173(9)
C4N C 0.7331(4) 0.5615(3) 0.1173(9)
C4E C 1.2669(4) 0.4385(3) -0.1173(9)
H2I H 1.1021 0.4886 0.5695
H2M H 0.8447 0.2802 0.2362
H2D H 1.1553 0.7198 -0.2362
H2N H 0.7198 0.5646 0.2362
H2E H 1.2802 0.4354 -0.2362
C5I C 1.1093(2) 0.5698(3) -0.0930(8)
C5M C 0.7635(3) 0.2062(4) -0.4263(8)
C5D C 1.2365(3) 0.7938(4) 0.4263(8)
C5N C 0.7938(4) 0.5574(2) -0.4263(8)
C5E C 1.2062(4) 0.4426(2) 0.4263(8)
O1I O 1.21137(15) 0.60125(16) 0.1584(5)
O1M O 0.73208(16) 0.27679(22) -0.1749(5)
O1D O 1.26792(16) 0.72321(22) 0.1749(5)
O1N O 0.72321(22) 0.45530(15) -0.1749(5)
O1E O 1.27679(22) 0.54470(15) 0.1749(5)
O1B O 0.61012(22) 0.21137(15) -0.1584(5)
O1K O 1.38988(22) 0.78863(15) 0.1584(5)
O2I O 1.15369(17) 0.60238(19) -0.1767(6)
O2M O 0.73095(19) 0.21798(25) -0.5100(6)
O2D O 1.26905(19) 0.78202(25) 0.5100(6)
O2N O 0.78202(25) 0.51298(17) -0.5100(6)
O2E O 1.21798(25) 0.48702(17) 0.5100(6)
O3I O 1.06103(19) 0.5507(2) -0.1655(7)
O3M O 0.7826(2) 0.17700(28) -0.4988(7)
O3D O 1.2174(2) 0.82300(28) 0.4988(7)
O3N O 0.82300(28) 0.60564(19) -0.4988(7)
O3E O 1.17700(28) 0.39436(19) 0.4988(7)
O3G O 0.8840(2) 0.15634(28) -0.1678(7)
O3P O 1.1160(2) 0.84366(28) 0.1678(7)
O4I O 1.3333 0.6667 -0.0141(14)
O4N O 0.6667 0.3334 -0.3474(14)
O4E O 1.3333 0.6666 0.3474(14)
O5B O 0.67414(22) 0.24958(16) 0.2191(5)
O5M O 0.75789(15) 0.34081(22) 0.4476(5)
O5I O 1.24958(16) 0.57544(15) -0.2191(5)
O5K O 1.32586(22) 0.75042(16) -0.2191(5)
O5D O 1.24211(15) 0.65919(22) -0.4476(5)
O5_2 O 0.75042(16) 0.42456(15) -0.7809(5)
O5M_2 O 0.75789(15) 0.34081(22) -0.5524(5)
O5N O 0.65919(22) 0.41709(16) -0.5524(5)
O5D_2 O 1.24211(15) 0.65919(22) 0.5524(5)
O5E O 1.34081(22) 0.58291(16) 0.5524(5)
O5I_2 O 1.24958(16) 0.57544(15) 0.7809(5)
O5B_2 O 0.67414(22) 0.24958(16) -0.7809(5)
O5L O 0.58291(16) 0.24211(15) -0.5524(5)
O5C O 1.41709(16) 0.75789(15) 0.5524(5)
O5K_2 O 1.32586(22) 0.75042(16) 0.7809(5)
O6C O 1.3334 0.6666 -0.3334
O6_2 O 0.6667 0.3333 -0.6667
O6C_2 O 1.3334 0.6666 0.6666
N1I N 1.1561(2) 0.5414(2) 0.3842(7)
N1M N 0.7919(2) 0.2814(3) 0.0509(7)
N1D N 1.2081(2) 0.7186(3) -0.0509(7)
N1N N 0.7186(3) 0.5106(2) 0.0509(7)
N1E N 1.2814(3) 0.4894(2) -0.0509(7)
N1B N 0.6147(3) 0.1561(2) -0.3842(7)
N1K N 1.3853(3) 0.8439(2) 0.3842(7)
N2I N 1.0613(2) 0.5127(3) 0.1752(8)
N2M N 0.8206(3) 0.2153(4) -0.1581(8)
N2D N 1.1794(3) 0.7847(4) 0.1581(8)
N2N N 0.7847(4) 0.6054(2) -0.1581(8)
N2E N 1.2153(4) 0.3946(2) 0.1581(8)
N2G N 0.8460(3) 0.1181(4) -0.5085(8)
N2P N 1.1540(3) 0.8819(4) 0.5085(8)
O7 O 0.8499(4) 0.5371(4) 0.1349(13)
H3 H 0.870(5) 0.569(3) 0.09(2)
H4 H 0.821(4) 0.537(5) 0.18(2)
O8 O 1.0026(10) 0.4173(7) -0.174(3)
O9? O 0.9929(6) 0.3760(9) -0.169(3)
H5? H 0.6667 0.3333 -0.1073
H6? H 0.7211 0.4162 0.2844
loop_
_geom_bond_atom_site_label_1
_geom_bond_atom_site_label_2
_geom_bond_site_symmetry_1
_geom_bond_site_symmetry_2
Dy1 O1 1_555 1_555
Cu1 O3 1_555 1_555
C1 C2 1_555 1_555
C2 C5 1_555 1_555
C3 H1 1_555 1_555
C4 C3 1_555 1_555
H2 C4 1_555 1_555
C5 O2 1_555 1_555
O1 C1 1_555 1_555
O2 Dy1 1_555 1_555
O3 C5 1_555 1_555
O4 Dy1 1_555 1_555
O5 Dy1 1_555 1_555
O6 Dy1 1_555 1_555
N1 C1 1_555 1_555
N2 Cu1 1_555 1_555
O7 H3 1_555 1_555
H4 O7 1_555 1_555
Dy1I O1I 1_555 1_555
Dy1N O1 1_555 1_555
Dy1E O1I 1_555 1_555
Dy1M O1M 1_555 1_555
Dy1D O1D 1_555 1_555
Dy1A O4 1_555 1_555
Dy1B O4 1_555 1_555
Dy1N_2 O5 1_555 1_555
Dy1L O6 1_555 1_555
Dy1M_2 O6 1_555 1_555
Dy1J O1E 1_555 1_555
Dy1K O1K 1_555 1_555
Dy1E_2 O5I 1_555 1_555
Dy1D_2 O5K 1_555 1_555
Dy1L_2 O4N 1_555 1_555
Dy1C O4E 1_555 1_555
Cu1G O3M 1_555 1_555
Cu1D O3D 1_555 1_555
Cu1H O3N 1_555 1_555
Cu1E O3E 1_555 1_555
C1I C2I 1_555 1_555
C1M C2M 1_555 1_555
C1D C2D 1_555 1_555
C1N C2N 1_555 1_555
C1E C2E 1_555 1_555
C2I C5I 1_555 1_555
C2M C5M 1_555 1_555
C2D C5D 1_555 1_555
C2N C5N 1_555 1_555
C2E C5E 1_555 1_555
C3I H1I 1_555 1_555
C3M H1M 1_555 1_555
C3D H1D 1_555 1_555
C3N H1N 1_555 1_555
C3E H1E 1_555 1_555
C4I C3I 1_555 1_555
C4M C3M 1_555 1_555
C4D C3D 1_555 1_555
C4N C3N 1_555 1_555
C4E C3E 1_555 1_555
H2I C4I 1_555 1_555
H2M C4M 1_555 1_555
H2D C4D 1_555 1_555
H2N C4N 1_555 1_555
H2E C4E 1_555 1_555
C5I O2I 1_555 1_555
C5M O2M 1_555 1_555
C5D O2D 1_555 1_555
C5N O2N 1_555 1_555
C5E O2E 1_555 1_555
O1I C1I 1_555 1_555
O1M Dy1 1_555 1_555
O1D Dy1I 1_555 1_555
O1N Dy1N 1_555 1_555
O1E Dy1E 1_555 1_555
O1B Dy1M 1_555 1_555
O1K Dy1D 1_555 1_555
O2I Dy1I 1_555 1_555
O2M Dy1M 1_555 1_555
O2D Dy1D 1_555 1_555
O2N Dy1N 1_555 1_555
O2E Dy1E 1_555 1_555
O3I Cu1 1_555 1_555
O3M C5M 1_555 1_555
O3D C5D 1_555 1_555
O3N C5N 1_555 1_555
O3E C5E 1_555 1_555
O3G Cu1G 1_555 1_555
O3P Cu1D 1_555 1_555
O4I Dy1I 1_555 1_555
O4N Dy1N 1_555 1_555
O4E Dy1E 1_555 1_555
O5B Dy1 1_555 1_555
O5M Dy1 1_555 1_555
O5I Dy1I 1_555 1_555
O5K Dy1I 1_555 1_555
O5D Dy1I 1_555 1_555
O5_2 Dy1N 1_555 1_555
O5M_2 Dy1N 1_555 1_555
O5N Dy1N 1_555 1_555
O5D_2 Dy1E 1_555 1_555
O5E Dy1E 1_555 1_555
O5I_2 Dy1E 1_555 1_555
O5B_2 Dy1M 1_555 1_555
O5L Dy1M 1_555 1_555
O5C Dy1D 1_555 1_555
O5K_2 Dy1D 1_555 1_555
O6C Dy1I 1_555 1_555
O6_2 Dy1N 1_555 1_555
O6C_2 Dy1E 1_555 1_555
N1I Dy1E 1_555 1_555
N1M Dy1 1_555 1_555
N1D Dy1I 1_555 1_555
N1N Dy1A 1_555 1_555
N1E Dy1J 1_555 1_555
N1B Dy1M 1_555 1_555
N1K Dy1D 1_555 1_555
N2I Cu1 1_555 1_555
N2M Cu1G 1_555 1_555
N2D Cu1D 1_555 1_555
N2N Cu1H 1_555 1_555
N2E Cu1E 1_555 1_555
N2G Cu1G 1_555 1_555
N2P Cu1D 1_555 1_555
C2 N2 1_555 1_555
C3 N2 1_555 1_555
C4 N1 1_555 1_555
O5 Dy1A 1_555 1_555
O6 Dy1A 1_555 1_555
O6 Dy1B 1_555 1_555
O6 Dy1N_2 1_555 1_555
N1 Dy1N 1_555 1_555
Dy1M O4N 1_555 1_555
Dy1M O5M_2 1_555 1_555
Dy1M O6_2 1_555 1_555
Dy1D O4E 1_555 1_555
Dy1D O5D_2 1_555 1_555
Dy1D O6C_2 1_555 1_555
Dy1A O1N 1_555 1_555
Dy1B O1B 1_555 1_555
Dy1B O5B 1_555 1_555
Dy1N_2 O5M 1_555 1_555
Dy1M_2 O5B 1_555 1_555
Dy1M_2 O5M 1_555 1_555
Dy1J O4I 1_555 1_555
Dy1J O5I 1_555 1_555
Dy1J O6C 1_555 1_555
Dy1K O4I 1_555 1_555
Dy1K O5K 1_555 1_555
Dy1K O6C 1_555 1_555
Dy1E_2 O5D 1_555 1_555
Dy1E_2 O6C 1_555 1_555
Dy1D_2 O5D 1_555 1_555
Dy1D_2 O6C 1_555 1_555
Dy1L_2 O5N 1_555 1_555
Dy1L_2 O5L 1_555 1_555
Dy1L_2 O6_2 1_555 1_555
Dy1C O5E 1_555 1_555
Dy1C O5C 1_555 1_555
Dy1C O6C_2 1_555 1_555
C1I N1I 1_555 1_555
C1M O1M 1_555 1_555
C1M N1M 1_555 1_555
C1D O1D 1_555 1_555
C1D N1D 1_555 1_555
C1N O1N 1_555 1_555
C1N N1N 1_555 1_555
C1E O1E 1_555 1_555
C1E N1E 1_555 1_555
C2I N2I 1_555 1_555
C2M N2M 1_555 1_555
C2D N2D 1_555 1_555
C2N N2N 1_555 1_555
C2E N2E 1_555 1_555
C3I N2I 1_555 1_555
C3M N2M 1_555 1_555
C3D N2D 1_555 1_555
C3N N2N 1_555 1_555
C3E N2E 1_555 1_555
C4I N1I 1_555 1_555
C4M N1M 1_555 1_555
C4D N1D 1_555 1_555
C4N N1N 1_555 1_555
C4E N1E 1_555 1_555
C5I O3I 1_555 1_555

#END
