
#######################################################################
#
#                 Cambridge Crystallographic Data Centre
#                                CCDC 
#
#######################################################################
#
# If this CIF has been generated from an entry in the Cambridge 
# Structural Database, then it will include bibliographic, chemical, 
# crystal, experimental, refinement or atomic coordinate data resulting 
# from the CCDC's data processing and validation procedures.
#
#######################################################################

data_UFIRIM
_symmetry_cell_setting           monoclinic
_symmetry_space_group_name_H-M   'C 2/c'
_symmetry_Int_Tables_number      15
_space_group_name_Hall           '-C 2yn'
loop_
_symmetry_equiv_pos_site_id
_symmetry_equiv_pos_as_xyz
1 x,y,z
2 -x,y,1/2-z
3 1/2+x,1/2+y,z
4 1/2-x,1/2+y,1/2-z
5 -x,-y,-z
6 x,-y,1/2+z
7 1/2-x,1/2-y,-z
8 1/2+x,1/2-y,1/2+z
_cell_length_a                   26.4685(12)
_cell_length_b                   22.6646(11)
_cell_length_c                   40.1626(18)
_cell_angle_alpha                90
_cell_angle_beta                 100.1710(10)
_cell_angle_gamma                90
_cell_volume                     23714.8
loop_
_atom_site_label
_atom_site_type_symbol
_atom_site_fract_x
_atom_site_fract_y
_atom_site_fract_z
C1 C 0.4421(3) 0.4019(4) 0.0570(3)
C2 C 0.4308(4) 0.4024(4) 0.0179(2)
C3 C 0.3951(4) 0.3179(5) 0.1272(3)
C4 C 0.4154(4) 0.3615(4) 0.0731(3)
C5 C 0.3942(4) 0.4365(4) 0.0008(3)
H1 H 0.3750 0.4603 0.0128
C6 C 0.4244(4) 0.3601(4) 0.1100(3)
C7 C 0.5227(3) 0.4811(4) 0.1305(3)
C8 C 0.3499(4) 0.3323(5) 0.1376(3)
H2 H 0.3357 0.3694 0.1323
C9 C 0.4609(4) 0.3671(5) 0.0008(3)
H3 H 0.4869 0.3444 0.0132
C10 C 0.5572(4) 0.6719(4) 0.1843(3)
H4 H 0.5917 0.6665 0.1830
C11 C 0.5386(4) 0.5707(4) 0.1616(3)
C12 C 0.4133(4) 0.4028(5) -0.0507(3)
H5 H 0.4070 0.4039 -0.0742
C13 C 0.7647(4) 0.4550(5) 0.1955(3)
C14 C 0.5227(4) 0.6288(5) 0.1747(3)
C15 C 0.4828(4) 0.3269(6) -0.0526(3)
C16 C 0.5065(4) 0.5329(4) 0.1419(3)
H6 H 0.4721 0.5429 0.1359
C17 C 0.5738(4) 0.4650(5) 0.1391(3)
H7 H 0.5852 0.4300 0.1309
C18 C 0.4132(4) 0.2599(5) 0.1327(3)
H8 H 0.4428 0.2482 0.1251
C19 C 0.4527(4) 0.3652(5) -0.0344(3)
C20 C 0.3759(4) 0.3196(5) 0.0537(3)
H9 H 0.3739 0.3258 0.0298
H10 H 0.3430 0.3271 0.0597
H11 H 0.3859 0.2796 0.0592
C21 C 0.3837(3) 0.4378(5) -0.0337(3)
C22 C 0.5907(4) 0.5546(5) 0.1711(3)
H12 H 0.6136 0.5793 0.1848
C23 C 0.4716(4) 0.6399(5) 0.1750(4)
H13 H 0.4472 0.6117 0.1664
C24 C 0.5399(4) 0.7265(5) 0.1968(3)
H14 H 0.5642 0.7552 0.2046
C25 C 0.8212(4) 0.4392(6) 0.2105(3)
C26 C 0.3865(4) 0.2193(5) 0.1500(3)
C27 C 0.3435(4) 0.4774(5) -0.0525(3)
C28 C 0.7496(4) 0.5115(6) 0.1947(5)
H15 H 0.7734 0.5400 0.2038
C29 C 0.4042(6) 0.1558(6) 0.1548(4)
C30 C 0.7319(4) 0.4132(5) 0.1803(3)
H16 H 0.7434 0.3749 0.1779
C31 C 0.3243(4) 0.2926(6) 0.1561(3)
C32 C 0.6075(4) 0.5005(5) 0.1596(3)
C33 C 0.4554(4) 0.6936(5) 0.1883(4)
H17 H 0.4212 0.6982 0.1905
C34 C 0.2610(5) 0.5460(7) -0.0856(3)
C35 C 0.2202(7) 0.5821(10) -0.1035(4)
C36 C 0.3737(6) 0.1113(7) 0.1575(4)
H18 H 0.3390 0.1192 0.1563
C37 C 0.3434(5) 0.2383(5) 0.1628(3)
H19 H 0.3279 0.2129 0.1762
C38 C 0.1886(5) 0.3479(6) 0.1918(4)
C39 C 0.2789(4) 0.3134(6) 0.1694(3)
C40 C 0.6637(4) 0.4841(5) 0.1720(3)
C41 C 0.1410(5) 0.3628(7) 0.2054(4)
C42 C 0.5406(5) 0.2532(7) -0.0871(3)
C43 C 0.2427(6) 0.3543(8) 0.1513(4)
H20 H 0.2489 0.3713 0.1313
C44 C 0.4570(5) 0.1463(7) 0.1575(5)
H21 H 0.4793 0.1774 0.1559
C45 C 0.5735(7) 0.2096(8) -0.1027(3)
C46 C 0.2708(5) 0.2955(7) 0.1998(4)
H22 H 0.2949 0.2715 0.2130
C47 C 0.6794(5) 0.4284(5) 0.1681(4)
H23 H 0.6565 0.4002 0.1575
C48 C 0.4755(6) 0.0879(8) 0.1627(5)
H24 H 0.5105 0.0807 0.1652
C49 C 0.2248(5) 0.3129(8) 0.2128(5)
H25 H 0.2196 0.3012 0.2342
C50 C 0.4964(6) 0.2731(9) -0.1008(3)
H26 H 0.4831 0.2608 -0.1227
C51 C 0.4677(6) 0.3107(8) -0.0859(3)
H27 H 0.4374 0.3258 -0.0982
C52 C 0.1998(4) 0.3681(6) 0.1633(4)
H28 H 0.1766 0.3937 0.1506
C53 C 0.3895(6) 0.0535(7) 0.1619(5)
H29 H 0.3657 0.0238 0.1634
C54 C 0.2982(5) 0.5697(8) -0.0600(4)
H30 H 0.2965 0.6091 -0.0536
C55 C 0.7004(5) 0.5296(7) 0.1810(4)
H31 H 0.6918 0.5693 0.1779
C56 C 0.5647(8) 0.2757(9) -0.0556(5)
H32 H 0.5978 0.2653 -0.0455
C57 C 0.4690(7) -0.0214(8) 0.1658(5)
C58 C 0.3405(5) 0.5309(7) -0.0431(4)
H33 H 0.3648 0.5457 -0.0255
C59 C 0.3084(6) 0.4560(8) -0.0796(5)
H34 H 0.3124 0.4178 -0.0872
C60 C 0.2678(7) 0.4893(8) -0.0956(4)
H35 H 0.2448 0.4732 -0.1135
C61 C 0.4409(7) 0.0398(6) 0.1643(4)
C62 C 0.5332(7) 0.3168(9) -0.0402(5)
H36 H 0.5484 0.3372 -0.0209
C63 C 0.5066(4) 0.4819(5) 0.0567(3)
H37 H 0.4966 0.4774 0.0327
H38 H 0.5427 0.4742 0.0630
H39 H 0.4995 0.5215 0.0630
C64 C 0.4767(3) 0.4387(4) 0.0746(2)
C65 C 0.4726(3) 0.7942(4) 0.2077(2)
C66 C 0.4856(4) 0.4380(4) 0.1091(3)
C67 C 0.4588(4) 0.3992(5) 0.1269(3)
C68 C 0.4891(3) 0.7382(4) 0.1977(2)
C69 C 0.4689(5) 0.3945(6) 0.1666(3)
H40 H 0.4466 0.3653 0.1735
H41 H 0.4623 0.4320 0.1761
H42 H 0.5040 0.3835 0.1745
O1 O 0.1800(4) 0.5569(6) -0.1187(4)
O2 O 0.2258(5) 0.6387(7) -0.1037(3)
O3 O 0.1117(3) 0.4009(4) 0.1914(3)
O4 O 0.1336(3) 0.3396(4) 0.2329(3)
O5 O 0.4318(4) -0.0617(5) 0.1723(3)
O6 O 0.5111(4) -0.0569(8) 0.1636(3)
O7 O 0.5703(7) 0.9134(11) 0.1056(4)
O8 O 0.4269(2) 0.8016(3) 0.21257(18)
O9 O 0.5040(3) 0.8399(3) 0.21037(18)
O10 O 0.5510(4) 0.1848(5) -0.1291(3)
O11 O 0.6181(5) 0.2043(7) -0.0922(3)
O12 O 0.8092(4) 0.2612(5) 0.1669(5)
O13 O 0.8467(3) 0.4719(4) 0.2295(3)
O14 O 0.8384(3) 0.3899(3) 0.2015(2)
Pb1 Pb 0.921314(14) 0.395874(18) 0.239222(11)
Pb2 Pb 0.85873(2) 0.34940(3) 0.143269(15)
Pb3 Pb 0.52705(3) 0.87917(4) 0.154553(17)
O1D O 0.8200(4) 0.4431(6) 0.1187(4)
O2D O 0.7742(5) 0.3613(7) 0.1037(3)
O3B O 0.6117(3) 0.9009(4) 0.1914(3)
O4A O 0.8664(3) 0.3396(4) 0.2671(3)
O5B O 0.9318(4) 0.4383(5) 0.1723(3)
O6_2 O 0.5111(4) 0.9431(8) 0.1636(3)
O8B O 0.9269(2) 0.3016(3) 0.21257(18)
O9C O 0.9960(3) 0.3399(3) 0.28963(18)
O10D O 0.4490(4) 0.8152(5) 0.1291(3)
O10F O 0.9490(4) 0.3152(5) 0.1291(3)
O11F O 0.8819(5) 0.2957(7) 0.0922(3)
Pb1A Pb 0.078686(14) 0.395874(18) 0.260778(11)
Pb1B Pb 0.421314(14) -0.104126(18) 0.239222(11)
Pb1B_2 Pb 0.421314(14) 0.895874(18) 0.239222(11)
Pb1C Pb 0.578686(14) 0.895874(18) 0.260778(11)
Pb2B Pb 0.35873(2) -0.15060(3) 0.143269(15)
Pb2D Pb 0.14127(2) 0.65060(3) -0.143269(15)
Pb2F Pb 0.64127(2) 0.15060(3) -0.143269(15)
Pb3_2 Pb 0.52705(3) -0.12083(4) 0.154553(17)
Pb3B Pb 0.02705(3) 0.37917(4) 0.154553(17)
Pb3D Pb 0.47295(3) 0.12083(4) -0.154553(17)
loop_
_geom_bond_atom_site_label_1
_geom_bond_atom_site_label_2
_geom_bond_site_symmetry_1
_geom_bond_site_symmetry_2
C1 C2 1_555 1_555
C2 C5 1_555 1_555
C3 C6 1_555 1_555
C4 C1 1_555 1_555
C5 H1 1_555 1_555
C6 C4 1_555 1_555
C7 C16 1_555 1_555
C8 C3 1_555 1_555
H2 C8 1_555 1_555
C9 C2 1_555 1_555
H3 C9 1_555 1_555
C10 H4 1_555 1_555
C11 C14 1_555 1_555
C12 H5 1_555 1_555
C13 C25 1_555 1_555
C14 C10 1_555 1_555
C15 C19 1_555 1_555
C16 C11 1_555 1_555
H6 C16 1_555 1_555
C17 C7 1_555 1_555
H7 C17 1_555 1_555
C18 C3 1_555 1_555
H8 C18 1_555 1_555
C19 C9 1_555 1_555
C20 C4 1_555 1_555
H9 C20 1_555 1_555
H10 C20 1_555 1_555
H11 C20 1_555 1_555
C21 C5 1_555 1_555
C22 C11 1_555 1_555
H12 C22 1_555 1_555
C23 C14 1_555 1_555
H13 C23 1_555 1_555
C24 C10 1_555 1_555
H14 C24 1_555 1_555
C25 O13 1_555 1_555
C26 C18 1_555 1_555
C27 C21 1_555 1_555
C28 C13 1_555 1_555
H15 C28 1_555 1_555
C29 C26 1_555 1_555
C30 C13 1_555 1_555
H16 C30 1_555 1_555
C31 C8 1_555 1_555
C32 C17 1_555 1_555
C33 C23 1_555 1_555
H17 C33 1_555 1_555
C34 C35 1_555 1_555
C35 O1 1_555 1_555
C36 C29 1_555 1_555
H18 C36 1_555 1_555
C37 C26 1_555 1_555
H19 C37 1_555 1_555
C38 C41 1_555 1_555
C39 C31 1_555 1_555
C40 C32 1_555 1_555
C41 O3 1_555 1_555
C42 C45 1_555 1_555
C43 C39 1_555 1_555
H20 C43 1_555 1_555
C44 C29 1_555 1_555
H21 C44 1_555 1_555
C45 O10 1_555 1_555
C46 C39 1_555 1_555
H22 C46 1_555 1_555
C47 C30 1_555 1_555
H23 C47 1_555 1_555
C48 C44 1_555 1_555
H24 C48 1_555 1_555
C49 C38 1_555 1_555
H25 C49 1_555 1_555
C50 C42 1_555 1_555
H26 C50 1_555 1_555
C51 C15 1_555 1_555
H27 C51 1_555 1_555
C52 C38 1_555 1_555
H28 C52 1_555 1_555
C53 C36 1_555 1_555
H29 C53 1_555 1_555
C54 C34 1_555 1_555
H30 C54 1_555 1_555
C55 C28 1_555 1_555
H31 C55 1_555 1_555
C56 C42 1_555 1_555
H32 C56 1_555 1_555
C57 C61 1_555 1_555
C58 C27 1_555 1_555
H33 C58 1_555 1_555
C59 C27 1_555 1_555
H34 C59 1_555 1_555
C60 C34 1_555 1_555
H35 C60 1_555 1_555
C61 C48 1_555 1_555
C62 C15 1_555 1_555
H36 C62 1_555 1_555
C63 H37 1_555 1_555
H38 C63 1_555 1_555
H39 C63 1_555 1_555
C64 C1 1_555 1_555
C65 C68 1_555 1_555
C66 C7 1_555 1_555
C67 C6 1_555 1_555
C68 C24 1_555 1_555
C69 C67 1_555 1_555
H40 C69 1_555 1_555
H41 C69 1_555 1_555
H42 C69 1_555 1_555
O1 Pb2D 1_555 1_555
O2 C35 1_555 1_555
O3 Pb3B 1_555 1_555
O4 C41 1_555 1_555
O5 C57 1_555 1_555
O6 C57 1_555 1_555
O7 Pb3 1_555 1_555
O8 C65 1_555 1_555
O9 C65 1_555 1_555
O10 Pb2F 1_555 1_555
O11 C45 1_555 1_555
O12 Pb2 1_555 1_555
O13 Pb1 1_555 1_555
O14 C25 1_555 1_555
Pb1 O14 1_555 1_555
Pb2 O14 1_555 1_555
Pb3 O9 1_555 1_555
O1D Pb2 1_555 1_555
O2D Pb2 1_555 1_555
O3B Pb3 1_555 1_555
O4A Pb1 1_555 1_555
O5B Pb1 1_555 1_555
O6_2 Pb3 1_555 1_555
O8B Pb1 1_555 1_555
O9C Pb1 1_555 1_555
O10D Pb3 1_555 1_555
O10F Pb2 1_555 1_555
O11F Pb2 1_555 1_555
Pb1A O4 1_555 1_555
Pb1B O5 1_555 1_555
Pb1B_2 O8 1_555 1_555
Pb1C O9 1_555 1_555
Pb2B O5 1_555 1_555
Pb2D O2 1_555 1_555
Pb2F O11 1_555 1_555
Pb3_2 O6 1_555 1_555
Pb3D O10 1_555 1_555
C12 C19 1_555 1_555
C12 C21 1_555 1_555
C22 C32 1_555 1_555
C31 C37 1_555 1_555
C33 C68 1_555 1_555
C40 C47 1_555 1_555
C40 C55 1_555 1_555
C43 C52 1_555 1_555
C46 C49 1_555 1_555
C50 C51 1_555 1_555
C53 C61 1_555 1_555
C54 C58 1_555 1_555
C56 C62 1_555 1_555
C59 C60 1_555 1_555
C63 C64 1_555 1_555
C64 C66 1_555 1_555
C66 C67 1_555 1_555
Pb2 O5B 1_555 1_555

#END
