
#######################################################################
#
#                 Cambridge Crystallographic Data Centre
#                                CCDC 
#
#######################################################################
#
# If this CIF has been generated from an entry in the Cambridge 
# Structural Database, then it will include bibliographic, chemical, 
# crystal, experimental, refinement or atomic coordinate data resulting 
# from the CCDC's data processing and validation procedures.
#
#######################################################################

data_UFUMUD01
_symmetry_cell_setting           monoclinic
_symmetry_space_group_name_H-M   'C c'
_symmetry_Int_Tables_number      9
_space_group_name_Hall           'C -2yc'
loop_
_symmetry_equiv_pos_site_id
_symmetry_equiv_pos_as_xyz
1 x,y,z
2 x,-y,1/2+z
3 1/2+x,1/2+y,z
4 1/2+x,1/2-y,1/2+z
_cell_length_a                   4.944(1)
_cell_length_b                   24.815(5)
_cell_length_c                   11.110(2)
_cell_angle_alpha                90
_cell_angle_beta                 98.19(2)
_cell_angle_gamma                90
_cell_volume                     1349.13
loop_
_atom_site_label
_atom_site_type_symbol
_atom_site_fract_x
_atom_site_fract_y
_atom_site_fract_z
Cu1 Cu 0.78732(7) 0.61379(2) 0.30466(6)
N1 N 0.9489(14) 0.5544(3) 0.4189(5)
N2 N 0.6349(15) 0.6752(3) 0.1993(6)
O1 O 1.5533(13) 0.4388(2) 0.7086(5)
O2 O 1.1514(11) 0.3966(2) 0.6989(5)
O3 O 0.4701(14) 0.8294(3) -0.0890(5)
O4 O 0.1602(14) 0.8429(2) 0.0339(7)
C1 C 1.2966(15) 0.4336(3) 0.6711(6)
C2 C 1.1787(15) 0.4761(3) 0.5827(6)
C3 C 0.9362(16) 0.4673(3) 0.5035(7)
H1 H 0.8448 0.4345 0.5048
C4 C 0.8338(16) 0.5071(3) 0.4240(7)
H2 H 0.6746 0.5001 0.371
C5 C 1.1816(17) 0.5639(3) 0.4933(8)
H3 H 1.2657 0.5972 0.4894
C6 C 1.3012(18) 0.5265(3) 0.5750(8)
H4 H 1.4631 0.5347 0.6251
C7 C 0.3491(18) 0.8172(3) 0.0009(8)
C8 C 0.4569(18) 0.7686(3) 0.0720(8)
C9 C 0.647(2) 0.7360(4) 0.0314(8)
H5 H 0.7214 0.7451 -0.0384
C10 C 0.731(2) 0.6888(4) 0.0957(8)
H6 H 0.8562 0.6662 0.066
C11 C 0.4446(16) 0.7068(3) 0.2365(6)
H7 H 0.3728 0.6968 0.3062
C12 C 0.3477(16) 0.7536(3) 0.1775(7)
H8 H 0.2149 0.7745 0.2067
O1A O 0.5533(13) 0.5612(2) 0.2086(5)
O2A O 1.1514(11) 0.6034(2) 0.1989(5)
O3C O 0.9701(14) 0.6706(3) 0.4110(5)
Cu1A Cu 1.78732(7) 0.38621(2) 0.80466(6)
Cu1A_2 Cu 0.78732(7) 0.38621(2) 0.80466(6)
Cu1C Cu 0.28732(7) 0.88621(2) -0.19534(6)
loop_
_geom_bond_atom_site_label_1
_geom_bond_atom_site_label_2
_geom_bond_site_symmetry_1
_geom_bond_site_symmetry_2
Cu1 N1 1_555 1_555
N1 C4 1_555 1_555
N2 Cu1 1_555 1_555
O1 C1 1_555 1_555
O2 C1 1_555 1_555
O3 C7 1_555 1_555
O4 C7 1_555 1_555
C1 C2 1_555 1_555
C2 C3 1_555 1_555
C3 H1 1_555 1_555
C4 C3 1_555 1_555
H2 C4 1_555 1_555
C5 N1 1_555 1_555
H3 C5 1_555 1_555
C6 C2 1_555 1_555
H4 C6 1_555 1_555
C7 C8 1_555 1_555
C8 C9 1_555 1_555
C9 H5 1_555 1_555
C10 N2 1_555 1_555
H6 C10 1_555 1_555
C11 N2 1_555 1_555
H7 C11 1_555 1_555
C12 C8 1_555 1_555
H8 C12 1_555 1_555
O1A Cu1 1_555 1_555
O2A Cu1 1_555 1_555
O3C Cu1 1_555 1_555
Cu1A O1 1_555 1_555
Cu1A_2 O2 1_555 1_555
Cu1C O3 1_555 1_555
C5 C6 1_555 1_555
C9 C10 1_555 1_555
C11 C12 1_555 1_555

#END
