
#######################################################################
#
#                 Cambridge Crystallographic Data Centre
#                                CCDC 
#
#######################################################################
#
# If this CIF has been generated from an entry in the Cambridge 
# Structural Database, then it will include bibliographic, chemical, 
# crystal, experimental, refinement or atomic coordinate data resulting 
# from the CCDC's data processing and validation procedures.
#
#######################################################################

data_UHAXUW
_symmetry_cell_setting           monoclinic
_symmetry_space_group_name_H-M   'P 21/c'
_symmetry_Int_Tables_number      14
_space_group_name_Hall           '-P 2ybc'
loop_
_symmetry_equiv_pos_site_id
_symmetry_equiv_pos_as_xyz
1 x,y,z
2 x,1/2-y,1/2+z
3 -x,-y,-z
4 -x,1/2+y,1/2-z
_cell_length_a                   7.680(2)
_cell_length_b                   10.029(3)
_cell_length_c                   25.786(7)
_cell_angle_alpha                90
_cell_angle_beta                 93.779(5)
_cell_angle_gamma                90
_cell_volume                     1981.79
loop_
_atom_site_label
_atom_site_type_symbol
_atom_site_fract_x
_atom_site_fract_y
_atom_site_fract_z
Cd1 Cd -0.73472(5) -0.25815(3) 0.238480(14)
O1 O -0.2317(5) -0.3832(3) 0.48831(12)
N1 N -0.5778(5) -0.3321(4) 0.31487(15)
N2 N -0.3350(6) -0.5868(4) 0.47482(15)
N3 N -0.2383(6) -0.5841(4) 0.52293(15)
N4 N 0.1180(6) -0.3177(4) 0.66091(15)
C1 C -0.5940(7) -0.4567(5) 0.33138(19)
H1 H -0.6636 -0.5151 0.3111
C2 C -0.5133(7) -0.5035(5) 0.37677(19)
H2 H -0.5281 -0.5917 0.3867
C3 C -0.4096(7) -0.4183(5) 0.40779(18)
C4 C -0.3875(7) -0.2896(5) 0.3903(2)
H3 H -0.3160 -0.2303 0.4095
C5 C -0.4727(7) -0.2501(5) 0.3442(2)
H4 H -0.4571 -0.1633 0.3328
C6 C -0.3290(7) -0.4671(5) 0.45620(18)
C7 C -0.1798(7) -0.4643(5) 0.52918(19)
C8 C -0.0749(7) -0.4110(5) 0.57391(19)
C9 C -0.0244(7) -0.4967(5) 0.61466(19)
H5 H -0.0547 -0.5865 0.6133
C10 C 0.0710(7) -0.4453(5) 0.65673(19)
H6 H 0.1049 -0.5026 0.6839
C11 C 0.0721(8) -0.2371(5) 0.6213(2)
H7 H 0.1063 -0.1482 0.6234
C12 C -0.0247(8) -0.2798(5) 0.5770(2)
H8 H -0.0547 -0.2209 0.5501
S1 S -1.0192(2) -0.22135(15) 0.29804(8)
C13 C -1.0962(7) -0.0722(5) 0.28545(19)
N5 N -1.1528(6) 0.0309(4) 0.27627(18)
S2 S -0.4477(2) -0.31494(15) 0.18445(6)
C14 C -0.3822(7) -0.4477(5) 0.21810(19)
N6 N -0.3412(6) -0.5420(4) 0.24161(17)
N4A N -0.8820(6) -0.1823(4) 0.16091(15)
Cd1A Cd 0.26528(5) -0.24185(3) 0.738480(14)
Cd1C Cd -1.26528(5) 0.24185(3) 0.261520(14)
N5C N -0.8472(6) -0.4691(4) 0.22373(18)
N6C N -0.6588(6) -0.0420(4) 0.25839(17)
Cd1C_2 Cd -0.26528(5) -0.75815(3) 0.261520(14)
C15 C -0.2573(17) 0.0214(15) 0.5082(5)
N7 N -0.198(2) -0.0314(15) 0.4640(6)
C16 C -0.2325(14) 0.0791(10) 0.5627(4)
H9 H -0.1103 0.0924 0.5716
H10 H -0.2791 0.0185 0.5871
H11 H -0.2923 0.1630 0.5640
loop_
_geom_bond_atom_site_label_1
_geom_bond_atom_site_label_2
_geom_bond_site_symmetry_1
_geom_bond_site_symmetry_2
Cd1 N1 1_555 1_555
O1 C6 1_555 1_555
N1 C1 1_555 1_555
N2 N3 1_555 1_555
N3 C7 1_555 1_555
N4 C10 1_555 1_555
C1 H1 1_555 1_555
C2 C1 1_555 1_555
H2 C2 1_555 1_555
C3 C2 1_555 1_555
C4 C3 1_555 1_555
H3 C4 1_555 1_555
C5 N1 1_555 1_555
H4 C5 1_555 1_555
C6 N2 1_555 1_555
C7 O1 1_555 1_555
C8 C7 1_555 1_555
C9 C8 1_555 1_555
H5 C9 1_555 1_555
C10 C9 1_555 1_555
H6 C10 1_555 1_555
C11 N4 1_555 1_555
H7 C11 1_555 1_555
C12 C8 1_555 1_555
H8 C12 1_555 1_555
S1 Cd1 1_555 1_555
C13 S1 1_555 1_555
N5 C13 1_555 1_555
S2 Cd1 1_555 1_555
C14 S2 1_555 1_555
N6 C14 1_555 1_555
C15 N7 1_555 1_555
C16 C15 1_555 1_555
H9 C16 1_555 1_555
H10 C16 1_555 1_555
H11 C16 1_555 1_555
N4A Cd1 1_555 1_555
Cd1A N4 1_555 1_555
Cd1C N5 1_555 1_555
N5C Cd1 1_555 1_555
N6C Cd1 1_555 1_555
Cd1C_2 N6 1_555 1_555
C3 C6 1_555 1_555
C4 C5 1_555 1_555
C11 C12 1_555 1_555

#END
