
#######################################################################
#
#                 Cambridge Crystallographic Data Centre
#                                CCDC 
#
#######################################################################
#
# If this CIF has been generated from an entry in the Cambridge 
# Structural Database, then it will include bibliographic, chemical, 
# crystal, experimental, refinement or atomic coordinate data resulting 
# from the CCDC's data processing and validation procedures.
#
#######################################################################

data_UHITEL
_symmetry_cell_setting           monoclinic
_symmetry_space_group_name_H-M   'P 21/n'
_symmetry_Int_Tables_number      14
_space_group_name_Hall           '-P 2yn'
loop_
_symmetry_equiv_pos_site_id
_symmetry_equiv_pos_as_xyz
1 x,y,z
2 1/2-x,1/2+y,1/2-z
3 -x,-y,-z
4 1/2+x,1/2-y,1/2+z
_cell_length_a                   5.0655(2)
_cell_length_b                   14.4318(5)
_cell_length_c                   11.3303(4)
_cell_angle_alpha                90
_cell_angle_beta                 99.255(2)
_cell_angle_gamma                90
_cell_volume                     817.511
loop_
_atom_site_label
_atom_site_type_symbol
_atom_site_fract_x
_atom_site_fract_y
_atom_site_fract_z
Mg1 Mg 0.08333(17) 0.13800(7) 0.15080(8)
O1 O 0.3625(4) 0.03136(15) 0.16913(16)
O2 O 0.9068(4) 0.08480(14) 0.28311(17)
O3 O 0.5778(5) -0.10072(15) 0.21154(18)
O4 O 0.9908(4) 0.17642(14) 0.44260(19)
C1 C 0.4816(5) -0.0269(2) 0.2433(2)
C2 C 0.4991(5) -0.00976(19) 0.3760(2)
C3 C 0.3255(5) -0.06148(19) 0.4349(2)
H1 H 0.2077 -0.1029 0.3909
C4 C 0.6759(5) 0.05264(19) 0.4425(2)
C5 C 0.8740(5) 0.1090(2) 0.3855(3)
O5 O -0.2083(4) 0.06441(15) 0.04638(17)
H2 H -0.2170 0.0575 -0.0250
H3 H -0.3291 0.0439 0.0879
O6 O -0.1787(4) 0.25393(14) 0.1419(2)
H4 H -0.2650 0.2734 0.0728
H5 H -0.1341 0.3033 0.1826
O7 O 0.3523(4) 0.22455(16) 0.2536(2)
H6 H 0.3315 0.2333 0.3210
H7 H 0.5089 0.2422 0.2462
O8 O 0.2107(4) 0.17563(14) -0.00860(19)
H8 H 0.3005 0.2262 -0.0281
H9 H 0.2647 0.1334 -0.0656
Mg1B Mg 0.91667(17) -0.13800(7) 0.84920(8)
Mg1_2 Mg 1.08333(17) 0.13800(7) 0.15080(8)
Mg1B_2 Mg -0.08333(17) -0.13800(7) 0.84920(8)
O1B O 0.6375(4) -0.03136(15) 0.83087(16)
O1B_2 O -0.3625(4) -0.03136(15) 0.83087(16)
O2B O 0.0932(4) -0.08480(14) 0.71689(17)
O2_2 O -0.0932(4) 0.08480(14) 0.28311(17)
O3B O 0.4222(5) 0.10072(15) 0.78846(18)
O4B O 0.0092(4) -0.17642(14) 0.55740(19)
C1B C 0.5184(5) 0.0269(2) 0.7567(2)
C2B C 0.5009(5) 0.00976(19) 0.6240(2)
C3B C 0.6745(5) 0.06148(19) 0.5651(2)
H1B H 0.7923 0.1029 0.6091
C4B C 0.3241(5) -0.05264(19) 0.5575(2)
C5B C 0.1260(5) -0.1090(2) 0.6145(3)
O5B O 0.2083(4) -0.06441(15) 0.95362(17)
H2B H 0.2170 -0.0575 1.0250
H3B H 0.3291 -0.0439 0.9121
O6B O 0.1787(4) -0.25393(14) 0.8581(2)
H4B H 0.2650 -0.2734 0.9272
H5B H 0.1341 -0.3033 0.8174
O7B O -0.3523(4) -0.22455(16) 0.7464(2)
H6B H -0.3315 -0.2333 0.6790
H7B H -0.5089 -0.2422 0.7538
O8B O -0.2107(4) -0.17563(14) 1.00860(19)
H8B H -0.3005 -0.2262 1.0281
H9B H -0.2647 -0.1334 1.0656
loop_
_geom_bond_atom_site_label_1
_geom_bond_atom_site_label_2
_geom_bond_site_symmetry_1
_geom_bond_site_symmetry_2
Mg1 O1 1_555 1_555
O1 C1 1_555 1_555
O2 C5 1_555 1_555
O3 C1 1_555 1_555
O4 C5 1_555 1_555
C1 C2 1_555 1_555
C2 C3 1_555 1_555
C3 H1 1_555 1_555
C4 C2 1_555 1_555
C5 C4 1_555 1_555
O5 Mg1 1_555 1_555
H2 O5 1_555 1_555
H3 O5 1_555 1_555
O6 Mg1 1_555 1_555
H4 O6 1_555 1_555
H5 O6 1_555 1_555
O7 Mg1 1_555 1_555
H6 O7 1_555 1_555
H7 O7 1_555 1_555
O8 Mg1 1_555 1_555
H8 O8 1_555 1_555
H9 O8 1_555 1_555
Mg1B O1B 1_555 1_555
Mg1_2 O2 1_555 1_555
Mg1B_2 O1B_2 1_555 1_555
O1B C1B 1_555 1_555
O2B Mg1B_2 1_555 1_555
O2_2 Mg1 1_555 1_555
O3B C1B 1_555 1_555
O4B C5B 1_555 1_555
C1B C2B 1_555 1_555
C2B C3B 1_555 1_555
C3B C4 1_555 1_555
H1B C3B 1_555 1_555
C4B C3 1_555 1_555
C5B O2B 1_555 1_555
O5B Mg1B_2 1_555 1_555
H2B O5B 1_555 1_555
H3B O5B 1_555 1_555
O6B Mg1B_2 1_555 1_555
H4B O6B 1_555 1_555
H5B O6B 1_555 1_555
O7B Mg1B_2 1_555 1_555
H6B O7B 1_555 1_555
H7B O7B 1_555 1_555
O8B Mg1B_2 1_555 1_555
H8B O8B 1_555 1_555
H9B O8B 1_555 1_555
C2B C4B 1_555 1_555
C4B C5B 1_555 1_555

#END
