
#######################################################################
#
#                 Cambridge Crystallographic Data Centre
#                                CCDC 
#
#######################################################################
#
# If this CIF has been generated from an entry in the Cambridge 
# Structural Database, then it will include bibliographic, chemical, 
# crystal, experimental, refinement or atomic coordinate data resulting 
# from the CCDC's data processing and validation procedures.
#
#######################################################################

data_UKIQIP
_symmetry_cell_setting           rhombohedral
_symmetry_space_group_name_H-M   'R -3'
_symmetry_Int_Tables_number      148
_space_group_name_Hall           '-R 3'
loop_
_symmetry_equiv_pos_site_id
_symmetry_equiv_pos_as_xyz
1 x,y,z
2 -y,x-y,z
3 -x+y,-x,z
4 2/3+x,1/3+y,1/3+z
5 2/3-y,1/3+x-y,1/3+z
6 2/3-x+y,1/3-x,1/3+z
7 1/3+x,2/3+y,2/3+z
8 1/3-y,2/3+x-y,2/3+z
9 1/3-x+y,2/3-x,2/3+z
10 -x,-y,-z
11 y,-x+y,-z
12 x-y,x,-z
13 1/3-x,2/3-y,2/3-z
14 1/3+y,2/3-x+y,2/3-z
15 1/3+x-y,2/3+x,2/3-z
16 2/3-x,1/3-y,1/3-z
17 2/3+y,1/3-x+y,1/3-z
18 2/3+x-y,1/3+x,1/3-z
_cell_length_a                   32.1587(12)
_cell_length_b                   32.1587(12)
_cell_length_c                   14.8229(6)
_cell_angle_alpha                90
_cell_angle_beta                 90
_cell_angle_gamma                120
_cell_volume                     13275.8
loop_
_atom_site_label
_atom_site_type_symbol
_atom_site_fract_x
_atom_site_fract_y
_atom_site_fract_z
Mn1 Mn 0.53819(6) -0.25208(6) -0.13342(11)
Mn2 Mn 0.6667 -0.1666 -0.1666
O1 O 0.5964(2) -0.1726(2) -0.1413(4)
O2 O 0.5290(2) -0.0259(2) -0.4020(4)
O3 O 0.7806(2) 0.1308(2) 0.0619(5)
O4 O 0.5028(7) -0.2384(7) -0.0111(11)
O5 O 0.7311(3) 0.1578(4) 0.0463(8)
O6 O 0.4726(4) -0.3213(5) -0.1428(7)
O7 O 0.4953(3) -0.1066(4) -0.4138(7)
O8 O 0.5228(3) -0.2013(2) -0.1979(5)
N1 N 0.4473(7) -0.3962(8) -0.2047(15)
C1 C 0.7459(5) 0.1296(5) 0.0276(8)
C2 C 0.7129(4) 0.0888(4) -0.0345(8)
C3 C 0.7272(4) 0.0570(4) -0.0591(7)
H1 H 0.7557 0.0604 -0.0367
C4 C 0.6974(3) 0.0173(4) -0.1215(8)
H2 H 0.7075 -0.0030 -0.1445
C5 C 0.6522(4) 0.0122(4) -0.1438(7)
C6 C 0.6709(5) 0.0826(4) -0.0607(9)
H3 H 0.6621 0.1044 -0.0402
C7 C 0.6387(4) 0.0454(4) -0.1173(10)
H4 H 0.6100 0.0431 -0.1361
C8 C 0.5233(4) -0.0653(4) -0.3787(7)
C9 C 0.5543(4) -0.0679(4) -0.3031(7)
C10 C 0.5458(4) -0.1161(4) -0.2776(7)
H5 H 0.5219 -0.1434 -0.3061
C11 C 0.5733(4) -0.1200(3) -0.2120(6)
C12 C 0.6105(3) -0.0788(3) -0.1716(6)
H6 H 0.6306 -0.0813 -0.1296
C13 C 0.6174(4) -0.0323(4) -0.1956(7)
C14 C 0.5881(3) -0.0287(3) -0.2623(6)
H7 H 0.5925 0.0013 -0.2779
C15 C 0.4725(9) -0.3538(18) -0.168(2)
H8 H 0.5034 -0.3487 -0.1593
C16 C 0.4063(11) -0.3951(10) -0.235(3)
H9 H 0.3816 -0.4086 -0.1899
H10 H 0.3946 -0.4136 -0.2897
H11 H 0.4145 -0.3625 -0.2469
C17 C 0.4661(6) -0.4375(10) -0.2145(12)
H12 H 0.4873 -0.4294 -0.2653
H13 H 0.4387 -0.4689 -0.2231
H14 H 0.4828 -0.4372 -0.1605
C18 C 0.5654(4) -0.1674(5) -0.1816(8)
Mn1J Mn 0.74792(6) 0.20973(8) 0.13342(11)
Mn1Q Mn 0.45694(8) -0.12848(6) -0.53325(11)
Mn1F Mn 0.87152(6) 0.41459(6) 0.53325(11)
Mn1B Mn 1.20973(8) 0.46181(6) -0.13342(11)
Mn2H Mn 0.5000 -0.0000 -0.4999
Mn2D Mn 0.8333 0.1666 0.1667
Mn2F Mn 1.0000 0.5001 0.5001
Mn2B Mn 1.1667 0.3333 -0.1666
O1L O 0.7369(2) -0.1607(2) -0.1920(4)
O1J O 0.8274(2) 0.2310(3) 0.1413(4)
O1D O 0.8393(2) 0.1023(3) 0.1920(4)
O2D O 0.6926(2) -0.1118(3) -0.0687(4)
O2P O 0.6408(2) -0.2216(3) -0.2647(4)
O2J O 0.9741(2) 0.4451(3) 0.4020(4)
O2H O 0.7784(3) 0.1377(2) 0.2647(4)
O2N O 0.8882(3) 0.1957(2) 0.0687(4)
O3H O 0.6835(3) -0.1139(2) -0.2714(5)
O3K O 0.6498(3) -0.2194(2) -0.0619(5)
O3J O 1.1308(2) 0.3502(3) -0.0619(5)
O3O O 0.8861(2) 0.2025(2) 0.2714(5)
O4J O 0.7616(7) 0.2588(10) 0.0111(11)
O5K O 0.5733(5) -0.2689(3) -0.0463(8)
O5J O 1.1578(4) 0.4267(5) -0.0463(8)
O6J O 0.6787(5) 0.2061(6) 0.1428(7)
O7P O 0.5601(4) -0.2686(5) -0.2529(7)
O7H O 0.7314(5) 0.1714(3) 0.2529(7)
O7J O 0.8934(4) 0.3981(5) 0.4138(7)
O8J O 0.7987(2) 0.2759(4) 0.1979(5)
N1J N 0.6038(8) 0.1565(11) 0.2047(15)
C1J C 1.1296(5) 0.3837(7) -0.0276(8)
C1K C 0.6163(7) -0.2541(5) -0.0276(8)
C2J C 1.0888(4) 0.3759(6) 0.0345(8)
C3J C 1.0570(4) 0.3298(6) 0.0591(7)
H1J H 1.0604 0.3047 0.0367
C4J C 1.0173(4) 0.3199(5) 0.1215(8)
H2J H 0.9970 0.2895 0.1445
C5J C 1.0122(4) 0.3600(6) 0.1438(7)
C6J C 1.0826(4) 0.4117(6) 0.0607(9)
H3J H 1.1044 0.4423 0.0402
C7J C 1.0454(4) 0.4067(6) 0.1173(10)
H4J H 1.0431 0.4331 0.1361
C8J C 0.9347(4) 0.4114(6) 0.3787(7)
C8P C 0.6014(4) -0.2553(6) -0.2880(7)
C9J C 0.9321(4) 0.3778(6) 0.3031(7)
C10J C 0.8839(4) 0.3381(6) 0.2776(7)
H5J H 0.8566 0.3347 0.3061
C11J C 0.8800(3) 0.3067(5) 0.2120(6)
C12J C 0.9212(3) 0.3107(4) 0.1716(6)
H6J H 0.9187 0.2881 0.1296
C13J C 0.9677(4) 0.3503(6) 0.1956(7)
C14J C 0.9713(3) 0.3832(4) 0.2623(6)
C15J C 0.6462(18) 0.1737(20) 0.168(2)
H8J H 0.6513 0.1479 0.1593
C16J C 0.6049(10) 0.1986(15) 0.235(3)
C17J C 0.5625(10) 0.0964(12) 0.2145(12)
C18J C 0.8326(5) 0.2672(6) 0.1816(8)
loop_
_geom_bond_atom_site_label_1
_geom_bond_atom_site_label_2
_geom_bond_site_symmetry_1
_geom_bond_site_symmetry_2
Mn1 O1 1_555 1_555
Mn2 O1 1_555 1_555
O1 C18 1_555 1_555
O2 C8 1_555 1_555
O3 C1 1_555 1_555
O4 Mn1 1_555 1_555
O5 C1 1_555 1_555
O6 Mn1 1_555 1_555
O7 C8 1_555 1_555
O8 Mn1 1_555 1_555
N1 C15 1_555 1_555
C1 C2 1_555 1_555
C2 C3 1_555 1_555
C3 H1 1_555 1_555
C4 C3 1_555 1_555
H2 C4 1_555 1_555
C5 C4 1_555 1_555
C6 C2 1_555 1_555
H3 C6 1_555 1_555
C7 C5 1_555 1_555
H4 C7 1_555 1_555
C8 C9 1_555 1_555
C9 C10 1_555 1_555
C10 H5 1_555 1_555
C11 C10 1_555 1_555
C12 C11 1_555 1_555
H6 C12 1_555 1_555
C13 C5 1_555 1_555
C14 C9 1_555 1_555
H7 C14 1_555 1_555
C15 O6 1_555 1_555
H8 C15 1_555 1_555
C16 N1 1_555 1_555
H9 C16 1_555 1_555
H10 C16 1_555 1_555
H11 C16 1_555 1_555
C17 N1 1_555 1_555
H12 C17 1_555 1_555
H13 C17 1_555 1_555
H14 C17 1_555 1_555
C18 O8 1_555 1_555
Mn1J O5 1_555 1_555
Mn1Q O7 1_555 1_555
Mn1F O7J 1_555 1_555
Mn1B O5J 1_555 1_555
Mn2H O2 1_555 1_555
Mn2D O3 1_555 1_555
Mn2F O2J 1_555 1_555
Mn2B O3J 1_555 1_555
O1L Mn2 1_555 1_555
O1J Mn1J 1_555 1_555
O1D Mn2D 1_555 1_555
O2D Mn2 1_555 1_555
O2P Mn2 1_555 1_555
O2J C8J 1_555 1_555
O2H Mn2D 1_555 1_555
O2N Mn2D 1_555 1_555
O3H Mn2 1_555 1_555
O3K Mn2 1_555 1_555
O3J C1J 1_555 1_555
O3O Mn2D 1_555 1_555
O4J Mn1J 1_555 1_555
O5K Mn1 1_555 1_555
O5J C1J 1_555 1_555
O6J Mn1J 1_555 1_555
O7P Mn1 1_555 1_555
O7H Mn1J 1_555 1_555
O7J C8J 1_555 1_555
O8J Mn1J 1_555 1_555
N1J C15J 1_555 1_555
C1J C2J 1_555 1_555
C1K O5K 1_555 1_555
C2J C3J 1_555 1_555
C3J H1J 1_555 1_555
C4J C3J 1_555 1_555
H2J C4J 1_555 1_555
C5J C4J 1_555 1_555
C6J C2J 1_555 1_555
H3J C6J 1_555 1_555
C7J C5J 1_555 1_555
H4J C7J 1_555 1_555
C8J C9J 1_555 1_555
C8P O7P 1_555 1_555
C9J C10J 1_555 1_555
C10J H5J 1_555 1_555
C11J C10J 1_555 1_555
C12J C11J 1_555 1_555
H6J C12J 1_555 1_555
C13J C5J 1_555 1_555
C14J C9J 1_555 1_555
C15J O6J 1_555 1_555
H8J C15J 1_555 1_555
C16J N1J 1_555 1_555
C17J N1J 1_555 1_555
C18J O1J 1_555 1_555
C6 C7 1_555 1_555
C11 C18 1_555 1_555
C12 C13 1_555 1_555
C13 C14 1_555 1_555
Mn2D O1J 1_555 1_555
O8J C18J 1_555 1_555
C6J C7J 1_555 1_555
C11J C18J 1_555 1_555
C12J C13J 1_555 1_555
C13J C14J 1_555 1_555

#END
