
#######################################################################
#
#                 Cambridge Crystallographic Data Centre
#                                CCDC 
#
#######################################################################
#
# If this CIF has been generated from an entry in the Cambridge 
# Structural Database, then it will include bibliographic, chemical, 
# crystal, experimental, refinement or atomic coordinate data resulting 
# from the CCDC's data processing and validation procedures.
#
#######################################################################

data_UKUBIM
_symmetry_cell_setting           tetragonal
_symmetry_space_group_name_H-M   'P 42/n'
_symmetry_Int_Tables_number      86
_space_group_name_Hall           '-P 4bc'
loop_
_symmetry_equiv_pos_site_id
_symmetry_equiv_pos_as_xyz
1 x,y,z
2 1/2-x,1/2-y,z
3 -y,1/2+x,1/2+z
4 1/2+y,-x,1/2+z
5 -x,-y,-z
6 1/2+x,1/2+y,-z
7 y,1/2-x,1/2-z
8 1/2-y,x,1/2-z
_cell_length_a                   12.2731(8)
_cell_length_b                   12.2731(8)
_cell_length_c                   25.135(3)
_cell_angle_alpha                90
_cell_angle_beta                 90
_cell_angle_gamma                90
_cell_volume                     3786.06
loop_
_atom_site_label
_atom_site_type_symbol
_atom_site_fract_x
_atom_site_fract_y
_atom_site_fract_z
C1 C 0.1401(4) 0.4421(4) 0.15246(19)
H1 H 0.0810 0.4270 0.1306
C2 C 0.1289(4) 0.5249(4) 0.1897(2)
H2 H 0.0648 0.5650 0.1919
C3 C 0.2148(4) 0.5461(4) 0.22319(18)
C4 C 0.3074(4) 0.4840(4) 0.2186(2)
H3 H 0.3665 0.4954 0.2410
C5 C 0.3110(4) 0.4038(4) 0.1797(2)
H4 H 0.3740 0.3621 0.1771
C6 C 0.2883(4) 0.6544(4) 0.29247(16)
H5 H 0.3523 0.6753 0.2722
H6 H 0.3068 0.5921 0.3144
C7 C 0.2500 0.7500 0.3275(2)
C8 C 0.3443(4) 0.7909(4) 0.36132(17)
H7 H 0.3983 0.8265 0.3391
H8 H 0.3185 0.8428 0.3876
C9 C 0.5644(5) 0.8184(4) 0.4884(2)
H9 H 0.5806 0.8863 0.5028
C10 C 0.4897(4) 0.8153(4) 0.4466(2)
H10 H 0.4597 0.8787 0.4327
C11 C 0.4627(4) 0.7161(4) 0.42728(19)
C12 C 0.5146(4) 0.6254(4) 0.4476(2)
H11 H 0.5002 0.5564 0.4340
C13 C 0.5882(4) 0.6388(4) 0.4885(2)
H12 H 0.6217 0.5770 0.5023
Cd1 Cd 0.2500 0.2500 0.076780(15)
N1 N 0.2302(3) 0.3828(3) 0.14606(15)
N2 N 0.6138(4) 0.7332(3) 0.50914(14)
O1 O 0.2007(3) 0.6277(3) 0.25742(12)
O2 O 0.3908(3) 0.6975(2) 0.38710(13)
S1 S 0.45822(9) 0.27614(10) 0.07846(5)
H21 H 0.4913 0.2292 0.0525
C1A C 0.3599(4) 1.0579(4) 0.15246(19)
H1A H 0.4190 1.0730 0.1306
C2A C 0.3711(4) 0.9751(4) 0.1897(2)
H2A H 0.4352 0.9350 0.1919
C3A C 0.2852(4) 0.9539(4) 0.22319(18)
C4A C 0.1926(4) 1.0160(4) 0.2186(2)
H3A H 0.1335 1.0046 0.2410
C5A C 0.1890(4) 1.0962(4) 0.1797(2)
H4A H 0.1260 1.1379 0.1771
C6A C 0.2117(4) 0.8456(4) 0.29247(16)
H5A H 0.1477 0.8247 0.2722
H6A H 0.1932 0.9079 0.3144
C8A C 0.1557(4) 0.7091(4) 0.36132(17)
H7A H 0.1017 0.6735 0.3391
H8A H 0.1815 0.6572 0.3876
C9A C -0.0644(5) 0.6816(4) 0.4884(2)
H9A H -0.0806 0.6137 0.5028
C10A C 0.0103(4) 0.6847(4) 0.4466(2)
H10A H 0.0403 0.6213 0.4327
C11A C 0.0373(4) 0.7839(4) 0.42728(19)
C12A C -0.0146(4) 0.8746(4) 0.4476(2)
H11A H -0.0002 0.9436 0.4340
C13A C -0.0882(4) 0.8612(4) 0.4885(2)
H12A H -0.1217 0.9230 0.5023
Cd1_2 Cd 0.2500 1.2500 0.076780(15)
Cd1B Cd -0.2500 0.7500 0.576780(15)
Cd1B_2 Cd 0.7500 0.7500 0.576780(15)
N1A N 0.2698(3) 1.1172(3) 0.14606(15)
N1A_2 N 0.2698(3) 0.1172(3) 0.14606(15)
N2A N -0.1138(4) 0.7668(3) 0.50914(14)
N2B N 0.2668(3) 0.1138(4) 0.00914(14)
N2C N 0.2332(3) 0.3862(4) 0.00914(14)
O1A O 0.2993(3) 0.8723(3) 0.25742(12)
O2A O 0.1092(3) 0.8025(2) 0.38710(13)
S1A S 0.04178(9) 0.22386(10) 0.07846(5)
H21A H 0.0087 0.2708 0.0525
O3 O 0.7967(6) 0.6591(6) 0.1946(3)
H13 H 0.8402 0.6316 0.1719
H14 H 0.7884 0.7265 0.1881
O4 O 0.8504(6) 0.5739(6) 0.2627(3)
H15 H 0.8026 0.5255 0.2692
H16 H 0.8978 0.5484 0.2415
O5 O 0.1477(6) 0.7807(6) 0.0815(3)
H17 H 0.0970 0.8265 0.0869
H18 H 0.1667 0.7828 0.0490
O6 O 0.6597(6) 0.6607(6) 0.1632(3)
H19 H 0.5916 0.6722 0.1656
H20 H 0.6823 0.6832 0.1367
loop_
_geom_bond_atom_site_label_1
_geom_bond_atom_site_label_2
_geom_bond_site_symmetry_1
_geom_bond_site_symmetry_2
C1 H1 1_555 1_555
C2 C1 1_555 1_555
H2 C2 1_555 1_555
C3 C2 1_555 1_555
C4 C3 1_555 1_555
H3 C4 1_555 1_555
C5 C4 1_555 1_555
H4 C5 1_555 1_555
C6 H5 1_555 1_555
H6 C6 1_555 1_555
C7 C6 1_555 1_555
C8 C7 1_555 1_555
H7 C8 1_555 1_555
H8 C8 1_555 1_555
C9 H9 1_555 1_555
C10 C9 1_555 1_555
H10 C10 1_555 1_555
C11 C10 1_555 1_555
C12 C11 1_555 1_555
H11 C12 1_555 1_555
C13 C12 1_555 1_555
H12 C13 1_555 1_555
Cd1 N1 1_555 1_555
N1 C1 1_555 1_555
N2 C9 1_555 1_555
O1 C3 1_555 1_555
O2 C8 1_555 1_555
O3 H13 1_555 1_555
H14 O3 1_555 1_555
O4 H15 1_555 1_555
H16 O4 1_555 1_555
O5 H17 1_555 1_555
H18 O5 1_555 1_555
O6 H19 1_555 1_555
H20 O6 1_555 1_555
S1 Cd1 1_555 1_555
H21 S1 1_555 1_555
C1A H1A 1_555 1_555
C2A C1A 1_555 1_555
H2A C2A 1_555 1_555
C3A C2A 1_555 1_555
C4A C3A 1_555 1_555
H3A C4A 1_555 1_555
C5A C4A 1_555 1_555
H4A C5A 1_555 1_555
C6A C7 1_555 1_555
H5A C6A 1_555 1_555
H6A C6A 1_555 1_555
C8A C7 1_555 1_555
H7A C8A 1_555 1_555
H8A C8A 1_555 1_555
C9A H9A 1_555 1_555
C10A C9A 1_555 1_555
H10A C10A 1_555 1_555
C11A C10A 1_555 1_555
C12A C11A 1_555 1_555
H11A C12A 1_555 1_555
C13A C12A 1_555 1_555
H12A C13A 1_555 1_555
Cd1_2 N1A 1_555 1_555
Cd1B N2A 1_555 1_555
Cd1B_2 N2 1_555 1_555
N1A C1A 1_555 1_555
N1A_2 Cd1 1_555 1_555
N2A C9A 1_555 1_555
N2B Cd1 1_555 1_555
N2C Cd1 1_555 1_555
O1A C3A 1_555 1_555
O2A C8A 1_555 1_555
S1A Cd1 1_555 1_555
H21A S1A 1_555 1_555
C5 N1 1_555 1_555
C6 O1 1_555 1_555
C11 O2 1_555 1_555
C13 N2 1_555 1_555
C5A N1A 1_555 1_555
C6A O1A 1_555 1_555
C11A O2A 1_555 1_555
C13A N2A 1_555 1_555

#END
