
#######################################################################
#
#                 Cambridge Crystallographic Data Centre
#                                CCDC 
#
#######################################################################
#
# If this CIF has been generated from an entry in the Cambridge 
# Structural Database, then it will include bibliographic, chemical, 
# crystal, experimental, refinement or atomic coordinate data resulting 
# from the CCDC's data processing and validation procedures.
#
#######################################################################

data_UMELUU
_symmetry_cell_setting           orthorhombic
_symmetry_space_group_name_H-M   'P n a 21'
_symmetry_Int_Tables_number      33
_space_group_name_Hall           'P 2c -2n'
loop_
_symmetry_equiv_pos_site_id
_symmetry_equiv_pos_as_xyz
1 x,y,z
2 -x,-y,1/2+z
3 1/2+x,1/2-y,z
4 1/2-x,1/2+y,1/2+z
_cell_length_a                   11.7470(14)
_cell_length_b                   9.1555(11)
_cell_length_c                   11.5381(13)
_cell_angle_alpha                90
_cell_angle_beta                 90
_cell_angle_gamma                90
_cell_volume                     1240.92
loop_
_atom_site_label
_atom_site_type_symbol
_atom_site_fract_x
_atom_site_fract_y
_atom_site_fract_z
Cd1 Cd 1.05997(4) -0.12649(5) 0.1532(5)
Cd2 Cd 1.03121(4) 0.37028(5) 0.1226(5)
N1 N 0.9035(4) 0.1652(5) 0.1331(7)
N2 N 0.9016(5) 0.0191(5) 0.1272(7)
N3 N 0.7947(4) -0.0278(6) 0.1227(8)
N4 N 0.7262(5) 0.0860(6) 0.1229(8)
N5 N 1.0126(6) -0.4228(6) -0.0036(7)
N6 N 0.9988(5) -0.2821(6) -0.0036(8)
N7 N 0.9748(7) -0.2348(7) -0.1085(8)
N8 N 0.9717(6) -0.3504(6) -0.1792(7)
O1 O 0.8356(4) 0.4502(4) 0.1382(7)
O2 O 0.6503(3) 0.3811(5) 0.1296(7)
O3 O 1.0199(5) -0.7141(5) -0.0720(7)
O4 O 0.9749(5) -0.6468(5) -0.2549(7)
O5 O 1.0855(5) -0.0549(5) 0.3383
O6 O 1.2274(4) -0.1871(5) 0.0815(7)
C1 C 0.7939(5) 0.2037(6) 0.1298(8)
C2 C 0.7560(5) 0.3581(6) 0.1341(8)
C3 C 0.9970(6) -0.4652(7) -0.1120(8)
C4 C 0.9996(6) -0.6212(7) -0.1506(8)
Cd1B Cd 0.55997(4) 0.62649(5) 0.1532(5)
Cd1A Cd 0.94003(4) -0.87351(5) -0.3468(5)
Cd2B Cd 0.53121(4) 0.12972(5) 0.1226(5)
Cd2_2 Cd 1.03121(4) -0.62972(5) 0.1226(5)
Cd2A Cd 0.96879(4) -0.37028(5) -0.3774(5)
N4B N 1.2262(5) 0.4140(6) 0.1229(8)
N5_2 N 1.0126(6) 0.5772(6) -0.0036(7)
N8A N 1.0283(6) 0.3504(6) 0.3208(7)
O2B O 1.1503(3) 0.1189(5) 0.1296(7)
O3_2 O 1.0199(5) 0.2859(5) -0.0720(7)
O4A O 1.0251(5) -0.3532(5) 0.2451(7)
loop_
_geom_bond_atom_site_label_1
_geom_bond_atom_site_label_2
_geom_bond_site_symmetry_1
_geom_bond_site_symmetry_2
Cd1 N2 1_555 1_555
Cd2 N1 1_555 1_555
N1 N2 1_555 1_555
N2 N3 1_555 1_555
N3 N4 1_555 1_555
N4 C1 1_555 1_555
N5 N6 1_555 1_555
N6 Cd1 1_555 1_555
N7 N6 1_555 1_555
N8 N7 1_555 1_555
O1 Cd2 1_555 1_555
O2 C2 1_555 1_555
O3 C4 1_555 1_555
O4 C4 1_555 1_555
O5 Cd1 1_555 1_555
O6 Cd1 1_555 1_555
C1 N1 1_555 1_555
C2 O1 1_555 1_555
C3 N5 1_555 1_555
C4 C3 1_555 1_555
Cd1B O2 1_555 1_555
Cd1A O4 1_555 1_555
Cd2B N4 1_555 1_555
Cd2_2 N5 1_555 1_555
Cd2A N8 1_555 1_555
N4B Cd2 1_555 1_555
N5_2 Cd2 1_555 1_555
N8A Cd2 1_555 1_555
O2B Cd1 1_555 1_555
O3_2 Cd2 1_555 1_555
O4A Cd1 1_555 1_555
N8 C3 1_555 1_555
O3 Cd2_2 1_555 1_555
C1 C2 1_555 1_555

#END
