
#######################################################################
#
#                 Cambridge Crystallographic Data Centre
#                                CCDC 
#
#######################################################################
#
# If this CIF has been generated from an entry in the Cambridge 
# Structural Database, then it will include bibliographic, chemical, 
# crystal, experimental, refinement or atomic coordinate data resulting 
# from the CCDC's data processing and validation procedures.
#
#######################################################################

data_UNACIW
_symmetry_cell_setting           monoclinic
_symmetry_space_group_name_H-M   'P 21/c'
_symmetry_Int_Tables_number      14
_space_group_name_Hall           '-P 2ybc'
loop_
_symmetry_equiv_pos_site_id
_symmetry_equiv_pos_as_xyz
1 x,y,z
2 -x,1/2+y,1/2-z
3 -x,-y,-z
4 x,1/2-y,1/2+z
_cell_length_a                   8.4283(11)
_cell_length_b                   10.2553(13)
_cell_length_c                   17.8159(18)
_cell_angle_alpha                90
_cell_angle_beta                 104.408(5)
_cell_angle_gamma                90
_cell_volume                     1491.48
loop_
_atom_site_label
_atom_site_type_symbol
_atom_site_fract_x
_atom_site_fract_y
_atom_site_fract_z
Cu1 Cu 0.60603(16) -0.44224(12) -0.06792(7)
O1 O 0.4747(9) -0.2150(7) -0.5557(4)
O2 O 0.6209(10) -0.1087(7) -0.4585(4)
O3 O 0.6936(10) -0.2994(8) -0.1874(4)
O4 O 0.5307(10) -0.4637(7) -0.1764(4)
O5 O 0.1273(11) -0.5415(9) -0.5621(5)
N1 N 0.2342(11) -0.6013(9) -0.4376(5)
H1 H 0.2326 -0.6617 -0.4044
N2 N -0.2176(11) -0.9268(8) -0.5489(5)
C1 C 0.5311(13) -0.2063(10) -0.4836(6)
C2 C 0.4917(13) -0.3059(10) -0.4303(6)
C3 C 0.5620(13) -0.2971(10) -0.3508(6)
H2 H 0.6358 -0.2309 -0.3308
C4 C 0.5193(13) -0.3893(10) -0.3024(6)
C5 C 0.4118(13) -0.4882(10) -0.3331(6)
H3 H 0.3849 -0.5502 -0.3002
C6 C 0.3430(13) -0.4967(10) -0.4122(6)
C7 C 0.3855(12) -0.4060(10) -0.4615(6)
H4 H 0.3433 -0.4123 -0.5148
C8 C 0.5897(13) -0.3806(10) -0.2166(6)
C9 C 0.1324(13) -0.6166(10) -0.5086(6)
C10 C 0.0178(13) -0.7321(10) -0.5191(6)
C11 C -0.0579(14) -0.7687(12) -0.5949(6)
H5 H -0.0309 -0.7276 -0.6365
C12 C -0.1736(13) -0.8668(10) -0.6074(6)
H6 H -0.2226 -0.8921 -0.6580
C13 C -0.0259(13) -0.7957(10) -0.4597(6)
H7 H 0.0228 -0.7734 -0.4085
C14 C -0.1417(13) -0.8925(10) -0.4758(6)
H8 H -0.1688 -0.9359 -0.4349
Cu1C Cu 0.60603(16) -0.05776(12) -0.56792(7)
Cu1C_2 Cu -0.39397(16) -1.05776(12) -0.56792(7)
O1C O 0.4747(9) -0.2850(7) -0.0557(4)
O2C O 0.6209(10) -0.3913(7) 0.0415(4)
N2C N 0.7824(11) -0.5732(8) -0.0489(5)
O6 O -0.160(4) 0.377(3) -0.7949(18)
C15 C -0.214(6) 0.245(3) -0.792(3)
C16? C -0.144(5) 0.112(5) -0.792(3)
O7? O 0.009(5) 0.049(4) -0.786(2)
loop_
_geom_bond_atom_site_label_1
_geom_bond_atom_site_label_2
_geom_bond_site_symmetry_1
_geom_bond_site_symmetry_2
Cu1 O4 1_555 1_555
O1 C1 1_555 1_555
O2 C1 1_555 1_555
O3 C8 1_555 1_555
O4 C8 1_555 1_555
O5 C9 1_555 1_555
N1 H1 1_555 1_555
N2 C12 1_555 1_555
C1 C2 1_555 1_555
C2 C3 1_555 1_555
C3 H2 1_555 1_555
C4 C3 1_555 1_555
C5 C4 1_555 1_555
H3 C5 1_555 1_555
C6 N1 1_555 1_555
C7 C2 1_555 1_555
H4 C7 1_555 1_555
C8 C4 1_555 1_555
C9 N1 1_555 1_555
C10 C9 1_555 1_555
C11 C10 1_555 1_555
H5 C11 1_555 1_555
C12 C11 1_555 1_555
H6 C12 1_555 1_555
C13 C10 1_555 1_555
H7 C13 1_555 1_555
C14 N2 1_555 1_555
H8 C14 1_555 1_555
O6 C15 1_555 1_555
Cu1C O1 1_555 1_555
Cu1C_2 N2 1_555 1_555
O1C Cu1 1_555 1_555
O2C Cu1 1_555 1_555
N2C Cu1 1_555 1_555
O2 Cu1C 1_555 1_555
C5 C6 1_555 1_555
C6 C7 1_555 1_555
C13 C14 1_555 1_555

#END
