
#######################################################################
#
#                 Cambridge Crystallographic Data Centre
#                                CCDC 
#
#######################################################################
#
# If this CIF has been generated from an entry in the Cambridge 
# Structural Database, then it will include bibliographic, chemical, 
# crystal, experimental, refinement or atomic coordinate data resulting 
# from the CCDC's data processing and validation procedures.
#
#######################################################################

data_UPOZAB
_symmetry_cell_setting           cubic
_symmetry_space_group_name_H-M   'F m -3 m'
_symmetry_Int_Tables_number      225
_space_group_name_Hall           '-F 4 2 3'
loop_
_symmetry_equiv_pos_site_id
_symmetry_equiv_pos_as_xyz
1 x,y,z
2 -x,-y,z
3 -x,y,-z
4 x,-y,-z
5 z,x,y
6 z,-x,-y
7 -z,-x,y
8 -z,x,-y
9 y,z,x
10 -y,z,-x
11 y,-z,-x
12 -y,-z,x
13 y,x,-z
14 -y,-x,-z
15 y,-x,z
16 -y,x,z
17 x,z,-y
18 -x,z,y
19 -x,-z,-y
20 x,-z,y
21 z,y,-x
22 z,-y,x
23 -z,y,x
24 -z,-y,-x
25 x,1/2+y,1/2+z
26 -x,1/2-y,1/2+z
27 -x,1/2+y,1/2-z
28 x,1/2-y,1/2-z
29 z,1/2+x,1/2+y
30 z,1/2-x,1/2-y
31 -z,1/2-x,1/2+y
32 -z,1/2+x,1/2-y
33 y,1/2+z,1/2+x
34 -y,1/2+z,1/2-x
35 y,1/2-z,1/2-x
36 -y,1/2-z,1/2+x
37 y,1/2+x,1/2-z
38 -y,1/2-x,1/2-z
39 y,1/2-x,1/2+z
40 -y,1/2+x,1/2+z
41 x,1/2+z,1/2-y
42 -x,1/2+z,1/2+y
43 -x,1/2-z,1/2-y
44 x,1/2-z,1/2+y
45 z,1/2+y,1/2-x
46 z,1/2-y,1/2+x
47 -z,1/2+y,1/2+x
48 -z,1/2-y,1/2-x
49 1/2+x,y,1/2+z
50 1/2-x,-y,1/2+z
51 1/2-x,y,1/2-z
52 1/2+x,-y,1/2-z
53 1/2+z,x,1/2+y
54 1/2+z,-x,1/2-y
55 1/2-z,-x,1/2+y
56 1/2-z,x,1/2-y
57 1/2+y,z,1/2+x
58 1/2-y,z,1/2-x
59 1/2+y,-z,1/2-x
60 1/2-y,-z,1/2+x
61 1/2+y,x,1/2-z
62 1/2-y,-x,1/2-z
63 1/2+y,-x,1/2+z
64 1/2-y,x,1/2+z
65 1/2+x,z,1/2-y
66 1/2-x,z,1/2+y
67 1/2-x,-z,1/2-y
68 1/2+x,-z,1/2+y
69 1/2+z,y,1/2-x
70 1/2+z,-y,1/2+x
71 1/2-z,y,1/2+x
72 1/2-z,-y,1/2-x
73 1/2+x,1/2+y,z
74 1/2-x,1/2-y,z
75 1/2-x,1/2+y,-z
76 1/2+x,1/2-y,-z
77 1/2+z,1/2+x,y
78 1/2+z,1/2-x,-y
79 1/2-z,1/2-x,y
80 1/2-z,1/2+x,-y
81 1/2+y,1/2+z,x
82 1/2-y,1/2+z,-x
83 1/2+y,1/2-z,-x
84 1/2-y,1/2-z,x
85 1/2+y,1/2+x,-z
86 1/2-y,1/2-x,-z
87 1/2+y,1/2-x,z
88 1/2-y,1/2+x,z
89 1/2+x,1/2+z,-y
90 1/2-x,1/2+z,y
91 1/2-x,1/2-z,-y
92 1/2+x,1/2-z,y
93 1/2+z,1/2+y,-x
94 1/2+z,1/2-y,x
95 1/2-z,1/2+y,x
96 1/2-z,1/2-y,-x
97 -x,-y,-z
98 x,y,-z
99 x,-y,z
100 -x,y,z
101 -z,-x,-y
102 -z,x,y
103 z,x,-y
104 z,-x,y
105 -y,-z,-x
106 y,-z,x
107 -y,z,x
108 y,z,-x
109 -y,-x,z
110 y,x,z
111 -y,x,-z
112 y,-x,-z
113 -x,-z,y
114 x,-z,-y
115 x,z,y
116 -x,z,-y
117 -z,-y,x
118 -z,y,-x
119 z,-y,-x
120 z,y,x
121 -x,1/2-y,1/2-z
122 x,1/2+y,1/2-z
123 x,1/2-y,1/2+z
124 -x,1/2+y,1/2+z
125 -z,1/2-x,1/2-y
126 -z,1/2+x,1/2+y
127 z,1/2+x,1/2-y
128 z,1/2-x,1/2+y
129 -y,1/2-z,1/2-x
130 y,1/2-z,1/2+x
131 -y,1/2+z,1/2+x
132 y,1/2+z,1/2-x
133 -y,1/2-x,1/2+z
134 y,1/2+x,1/2+z
135 -y,1/2+x,1/2-z
136 y,1/2-x,1/2-z
137 -x,1/2-z,1/2+y
138 x,1/2-z,1/2-y
139 x,1/2+z,1/2+y
140 -x,1/2+z,1/2-y
141 -z,1/2-y,1/2+x
142 -z,1/2+y,1/2-x
143 z,1/2-y,1/2-x
144 z,1/2+y,1/2+x
145 1/2-x,-y,1/2-z
146 1/2+x,y,1/2-z
147 1/2+x,-y,1/2+z
148 1/2-x,y,1/2+z
149 1/2-z,-x,1/2-y
150 1/2-z,x,1/2+y
151 1/2+z,x,1/2-y
152 1/2+z,-x,1/2+y
153 1/2-y,-z,1/2-x
154 1/2+y,-z,1/2+x
155 1/2-y,z,1/2+x
156 1/2+y,z,1/2-x
157 1/2-y,-x,1/2+z
158 1/2+y,x,1/2+z
159 1/2-y,x,1/2-z
160 1/2+y,-x,1/2-z
161 1/2-x,-z,1/2+y
162 1/2+x,-z,1/2-y
163 1/2+x,z,1/2+y
164 1/2-x,z,1/2-y
165 1/2-z,-y,1/2+x
166 1/2-z,y,1/2-x
167 1/2+z,-y,1/2-x
168 1/2+z,y,1/2+x
169 1/2-x,1/2-y,-z
170 1/2+x,1/2+y,-z
171 1/2+x,1/2-y,z
172 1/2-x,1/2+y,z
173 1/2-z,1/2-x,-y
174 1/2-z,1/2+x,y
175 1/2+z,1/2+x,-y
176 1/2+z,1/2-x,y
177 1/2-y,1/2-z,-x
178 1/2+y,1/2-z,x
179 1/2-y,1/2+z,x
180 1/2+y,1/2+z,-x
181 1/2-y,1/2-x,z
182 1/2+y,1/2+x,z
183 1/2-y,1/2+x,-z
184 1/2+y,1/2-x,-z
185 1/2-x,1/2-z,y
186 1/2+x,1/2-z,-y
187 1/2+x,1/2+z,y
188 1/2-x,1/2+z,-y
189 1/2-z,1/2-y,x
190 1/2-z,1/2+y,-x
191 1/2+z,1/2-y,-x
192 1/2+z,1/2+y,x
_cell_length_a                   31.0569(6)
_cell_length_b                   31.0569(6)
_cell_length_c                   31.0569(6)
_cell_angle_alpha                90
_cell_angle_beta                 90
_cell_angle_gamma                90
_cell_volume                     29955.3
loop_
_atom_site_label
_atom_site_type_symbol
_atom_site_fract_x
_atom_site_fract_y
_atom_site_fract_z
Zn1 Zn 0.31771(19) 0.31771(19) 0.182292
Cl1 Cl 0.3562(4) 0.3562(4) 0.143819
Zn2 Zn 0.25000 0.25000 0.25000
N1 N 0.34070(4) 0.27492(3) 0.225076
C1 C 0.38265(3) 0.26599(4) 0.234012
N2 N 0.31573(3) 0.25000 0.25000
C2 C 0.42117(3) 0.28257(3) 0.217431
C3 C 0.46096(3) 0.26662(3) 0.233378
O1 O 0.50000 0.28346(4) 0.216539
H1 H 0.420705 0.303742 0.196258
Zn1AA Zn 0.31771(19) 0.18229(19) 0.317708
Zn1PA Zn 0.68229(19) 0.317708 0.18229(19)
Zn1Q Zn 0.68229(19) 0.182292 0.31771(19)
Zn1D Zn 0.182292 0.31771(19) 0.31771(19)
Zn1IB Zn 0.18229(19) 0.68229(19) 0.317708
Zn1N Zn 0.31771(19) 0.68229(19) 0.182292
Zn1QC Zn 0.317708 0.18229(19) 0.68229(19)
Zn1T Zn 0.182292 0.31771(19) 0.68229(19)
Cl1AA Cl 0.3562(4) 0.1438(4) 0.356181
Cl1PA Cl 0.6438(4) 0.356181 0.1438(4)
Cl1Q Cl 0.6438(4) 0.143819 0.3562(4)
Zn2O Zn 0.75000 0.25000 0.25000
Zn2N Zn 0.25000 0.75000 0.25000
Zn2L Zn 0.25000 0.25000 0.75000
N1AA N 0.34070(4) 0.22508(3) 0.274924
N1PA N 0.65930(4) 0.274924 0.22508(3)
N1Q N 0.65930(4) 0.225076 0.27492(3)
N1D N 0.225076 0.34070(4) 0.27492(3)
N1CB N 0.274924 0.34070(4) 0.22508(3)
N1IB N 0.22508(3) 0.65930(4) 0.274924
N1N N 0.27492(3) 0.65930(4) 0.225076
N1H N 0.27492(3) 0.225076 0.34070(4)
N1EC N 0.22508(3) 0.274924 0.34070(4)
N1QC N 0.274924 0.22508(3) 0.65930(4)
N1T N 0.225076 0.27492(3) 0.65930(4)
N1HA N 0.27492(3) 0.274924 0.15930(4)
N1ZB N 0.274924 0.15930(4) 0.27492(3)
N1O N 0.72508(3) 0.34070(4) 0.225076
N1PB N 0.725076 0.27492(3) 0.15930(4)
N1KA N 0.72508(3) 0.15930(4) 0.274924
N1OC N 0.725076 0.22508(3) 0.34070(4)
C1AA C 0.38265(3) 0.23401(4) 0.265988
C1PA C 0.61735(3) 0.265988 0.23401(4)
C1Q C 0.61735(3) 0.234012 0.26599(4)
C1D C 0.234012 0.38265(3) 0.26599(4)
C1CB C 0.265988 0.38265(3) 0.23401(4)
C1IB C 0.23401(4) 0.61735(3) 0.265988
C1N C 0.26599(4) 0.61735(3) 0.234012
C1H C 0.26599(4) 0.234012 0.38265(3)
C1EC C 0.23401(4) 0.265988 0.38265(3)
C1QC C 0.265988 0.23401(4) 0.61735(3)
C1T C 0.234012 0.26599(4) 0.61735(3)
N2Q N 0.68427(3) 0.25000 0.25000
N2D N 0.25000 0.31573(3) 0.25000
N2N N 0.25000 0.68427(3) 0.25000
N2H N 0.25000 0.25000 0.31573(3)
N2T N 0.25000 0.25000 0.68427(3)
N2CA N 0.25000 0.18427(3) 0.25000
N2HA N 0.25000 0.25000 0.18427(3)
N2XA N 0.18427(3) 0.25000 0.25000
C2AA C 0.42117(3) 0.21743(3) 0.282569
C2PA C 0.57883(3) 0.282569 0.21743(3)
C2Q C 0.57883(3) 0.217431 0.28257(3)
C2D C 0.217431 0.42117(3) 0.28257(3)
C2CB C 0.282569 0.42117(3) 0.21743(3)
C2IB C 0.21743(3) 0.57883(3) 0.282569
C2N C 0.28257(3) 0.57883(3) 0.217431
C2H C 0.28257(3) 0.217431 0.42117(3)
C2EC C 0.21743(3) 0.282569 0.42117(3)
C2QC C 0.282569 0.21743(3) 0.57883(3)
C2T C 0.217431 0.28257(3) 0.57883(3)
C3AA C 0.46096(3) 0.23338(3) 0.266622
C3PA C 0.53904(3) 0.266622 0.23338(3)
C3Q C 0.53904(3) 0.233378 0.26662(3)
C3D C 0.233378 0.46096(3) 0.26662(3)
C3CB C 0.266622 0.46096(3) 0.23338(3)
C3IB C 0.23338(3) 0.53904(3) 0.266622
C3N C 0.26662(3) 0.53904(3) 0.233378
C3H C 0.26662(3) 0.233378 0.46096(3)
C3EC C 0.23338(3) 0.266622 0.46096(3)
C3QC C 0.266622 0.23338(3) 0.53904(3)
C3T C 0.233378 0.26662(3) 0.53904(3)
O1Q O 0.50000 0.216539 0.28346(4)
O1D O 0.216539 0.50000 0.28346(4)
O1N O 0.28346(4) 0.50000 0.216539
O1H O 0.28346(4) 0.216539 0.50000
O1T O 0.216539 0.28346(4) 0.50000
H1Q H 0.579295 0.196258 0.303742
H1PA H 0.579295 0.303742 0.196258
H1AA H 0.420705 0.196258 0.303742
H1D H 0.196258 0.420705 0.303742
H1N H 0.303742 0.579295 0.196258
H1IB H 0.196258 0.579295 0.303742
H1CB H 0.303742 0.420705 0.196258
H1H H 0.303742 0.196258 0.420705
H1T H 0.196258 0.303742 0.579295
H1QC H 0.303742 0.196258 0.579295
H1EC H 0.196258 0.303742 0.420705
loop_
_geom_bond_atom_site_label_1
_geom_bond_atom_site_label_2
_geom_bond_site_symmetry_1
_geom_bond_site_symmetry_2
Zn1 Cl1 1_555 1_555
Zn2 N2 1_555 1_555
N1 Zn1 1_555 1_555
C1 N1 1_555 1_555
N2 N1 1_555 1_555
C2 C1 1_555 1_555
C3 C2 1_555 1_555
O1 C3 1_555 1_555
H1 C2 1_555 1_555
Zn1AA Cl1AA 1_555 1_555
Zn1PA Cl1PA 1_555 1_555
Zn1Q Cl1Q 1_555 1_555
Zn1D N1D 1_555 1_555
Zn1IB N1IB 1_555 1_555
Zn1N N1N 1_555 1_555
Zn1QC N1QC 1_555 1_555
Zn1T N1T 1_555 1_555
Zn2O N2Q 1_555 1_555
Zn2N N2N 1_555 1_555
Zn2L N2T 1_555 1_555
N1AA N2 1_555 1_555
N1PA Zn1PA 1_555 1_555
N1Q Zn1Q 1_555 1_555
N1D C1D 1_555 1_555
N1CB Zn1 1_555 1_555
N1IB C1IB 1_555 1_555
N1N C1N 1_555 1_555
N1H Zn1AA 1_555 1_555
N1EC Zn1D 1_555 1_555
N1QC C1QC 1_555 1_555
N1T C1T 1_555 1_555
N1HA Zn1 1_555 1_555
N1ZB Zn1AA 1_555 1_555
N1O Zn1PA 1_555 1_555
N1PB Zn1PA 1_555 1_555
N1KA Zn1Q 1_555 1_555
N1OC Zn1Q 1_555 1_555
C1AA C1 1_555 1_555
C1PA N1PA 1_555 1_555
C1Q N1Q 1_555 1_555
C1D C1CB 1_555 1_555
C1CB N1CB 1_555 1_555
C1IB C1N 1_555 1_555
C1N C2N 1_555 1_555
C1H N1H 1_555 1_555
C1EC N1EC 1_555 1_555
C1QC C1T 1_555 1_555
C1T C2T 1_555 1_555
N2Q N1PA 1_555 1_555
N2D Zn2 1_555 1_555
N2N N1IB 1_555 1_555
N2H Zn2 1_555 1_555
N2T N1QC 1_555 1_555
N2CA Zn2 1_555 1_555
N2HA Zn2 1_555 1_555
N2XA Zn2 1_555 1_555
C2AA C1AA 1_555 1_555
C2PA C1PA 1_555 1_555
C2Q C1Q 1_555 1_555
C2D C1D 1_555 1_555
C2CB C1CB 1_555 1_555
C2IB C1IB 1_555 1_555
C2N C3N 1_555 1_555
C2H C1H 1_555 1_555
C2EC C1EC 1_555 1_555
C2QC C1QC 1_555 1_555
C2T C3T 1_555 1_555
C3AA C3 1_555 1_555
C3PA O1 1_555 1_555
C3Q C2Q 1_555 1_555
C3D C2D 1_555 1_555
C3CB C2CB 1_555 1_555
C3IB C2IB 1_555 1_555
C3N C3IB 1_555 1_555
C3H C2H 1_555 1_555
C3EC C2EC 1_555 1_555
C3QC C2QC 1_555 1_555
C3T C3QC 1_555 1_555
O1Q C3AA 1_555 1_555
O1D C3D 1_555 1_555
O1N C3CB 1_555 1_555
O1H C3H 1_555 1_555
O1T C3EC 1_555 1_555
H1Q C2Q 1_555 1_555
H1PA C2PA 1_555 1_555
H1AA C2AA 1_555 1_555
H1D C2D 1_555 1_555
H1N C2N 1_555 1_555
H1IB C2IB 1_555 1_555
H1CB C2CB 1_555 1_555
H1H C2H 1_555 1_555
H1T C2T 1_555 1_555
H1QC C2QC 1_555 1_555
H1EC C2EC 1_555 1_555
Zn1AA N1AA 1_555 1_555
N1AA C1AA 1_555 1_555
N1Q N2Q 1_555 1_555
N1D N2D 1_555 1_555
N1CB N2D 1_555 1_555
N1N N2N 1_555 1_555
N1H N2H 1_555 1_555
N1EC N2H 1_555 1_555
N1T N2T 1_555 1_555
N1HA N2HA 1_555 1_555
N1ZB N2CA 1_555 1_555
C1PA C1Q 1_555 1_555
C1H C1EC 1_555 1_555
C2AA C3AA 1_555 1_555
C2PA C3PA 1_555 1_555
C3PA C3Q 1_555 1_555
C3Q O1Q 1_555 1_555
C3D C3CB 1_555 1_555
C3IB O1D 1_555 1_555
C3N O1N 1_555 1_555
C3H C3EC 1_555 1_555
C3QC O1H 1_555 1_555
C3T O1T 1_555 1_555

#END
