
#######################################################################
#
#                 Cambridge Crystallographic Data Centre
#                                CCDC 
#
#######################################################################
#
# If this CIF has been generated from an entry in the Cambridge 
# Structural Database, then it will include bibliographic, chemical, 
# crystal, experimental, refinement or atomic coordinate data resulting 
# from the CCDC's data processing and validation procedures.
#
#######################################################################

data_UTODIR
_symmetry_cell_setting           tetragonal
_symmetry_space_group_name_H-M   'P 43 21 2'
_symmetry_Int_Tables_number      96
_space_group_name_Hall           'P 4nw 2abw'
loop_
_symmetry_equiv_pos_site_id
_symmetry_equiv_pos_as_xyz
1 x,y,z
2 -x,-y,1/2+z
3 1/2-y,1/2+x,3/4+z
4 1/2+y,1/2-x,1/4+z
5 1/2-x,1/2+y,3/4-z
6 1/2+x,1/2-y,1/4-z
7 y,x,-z
8 -y,-x,1/2-z
_cell_length_a                   14.5779(3)
_cell_length_b                   14.5779(3)
_cell_length_c                   36.7061(12)
_cell_angle_alpha                90
_cell_angle_beta                 90
_cell_angle_gamma                90
_cell_volume                     7800.6
loop_
_atom_site_label
_atom_site_type_symbol
_atom_site_fract_x
_atom_site_fract_y
_atom_site_fract_z
C1 C -0.2974(2) 0.3412(3) 0.81779(8)
H1 H -0.3124 0.3368 0.8432
H2 H -0.3413 0.3071 0.8038
H3 H -0.2986 0.4044 0.8104
C2 C -0.20268(18) 0.30239(18) 0.81148(7)
C3 C -0.16928(18) 0.3028(2) 0.77595(7)
H4 H -0.2051 0.3310 0.7582
C4 C -0.08562(18) 0.2641(2) 0.76479(7)
C5 C -0.0624(2) 0.2642(3) 0.72482(8)
H5 H -0.0035 0.2360 0.7213
H6 H -0.0606 0.3262 0.7161
H7 H -0.1082 0.2304 0.7117
C6 C 0.06633(19) 0.1977(2) 0.78235(8)
H8 H 0.0752 0.1865 0.7563
C7 C 0.0865(2) 0.1086(2) 0.80317(10)
H9 H 0.0475 0.0598 0.7941
H10 H 0.0732 0.1171 0.8288
C8 C 0.1876(3) 0.0818(3) 0.79834(12)
H11 H 0.2002 0.0261 0.8119
H12 H 0.1999 0.0698 0.7728
C9 C 0.2491(2) 0.1573(3) 0.81154(10)
H13 H 0.3126 0.1392 0.8083
H14 H 0.2388 0.1670 0.8374
C10 C 0.13030(18) 0.2751(2) 0.79424(7)
H15 H 0.1170 0.2909 0.8196
C11 C -0.2915(2) 0.0781(2) 0.96863(9)
H16 H -0.3070 0.1108 0.9468
H17 H -0.3318 0.0966 0.9880
H18 H -0.2979 0.0134 0.9645
C12 C -0.19421(18) 0.09929(18) 0.97902(7)
C13 C -0.15640(18) 0.0582(2) 1.01005(8)
H19 H -0.1932 0.0174 1.0229
C14 C -0.06777(18) 0.07355(19) 1.02323(7)
C15 C -0.0382(2) 0.0260(2) 1.05764(9)
H20 H 0.0239 0.0428 1.0633
H21 H -0.0420 -0.0392 1.0543
H22 H -0.0776 0.0441 1.0773
C16 C 0.0877(2) 0.14440(19) 1.01359(8)
H23 H 0.1019 0.1234 1.0383
C17 C 0.1094(2) 0.2458(2) 1.01095(9)
H24 H 0.0772 0.2782 1.0302
H25 H 0.0874 0.2691 0.9878
C18 C 0.2115(2) 0.2647(3) 1.01422(10)
H26 H 0.2228 0.3298 1.0111
H27 H 0.2325 0.2473 1.0383
C19 C 0.0523(2) 0.5652(2) 0.68916(9)
H28 H 0.0816 0.5552 0.6661
H29 H 0.0702 0.6239 0.6986
H30 H -0.0131 0.5637 0.6861
C20 C 0.08064(17) 0.49156(18) 0.71519(7)
C21 C 0.04572(18) 0.49342(19) 0.75074(8)
H31 H 0.0067 0.5416 0.7567
C22 C 0.06427(18) 0.42935(19) 0.77799(7)
C23 C 0.0242(2) 0.4448(2) 0.81537(8)
H32 H 0.0431 0.3961 0.8313
H33 H -0.0415 0.4457 0.8138
H34 H 0.0456 0.5024 0.8248
C24 C 0.2317(2) 0.2466(2) 0.79115(8)
H35 H 0.2477 0.2388 0.7657
H36 H 0.2703 0.2946 0.8012
N1 N -0.02885(15) 0.22635(16) 0.78846(6)
H37 H -0.0502 0.2175 0.8100
N2 N -0.01021(15) 0.12889(15) 1.00656(6)
H38 H -0.0332 0.1605 0.9890
N3 N -0.14978(16) 0.06725(18) 0.87059(6)
N4 N 0.06965(19) 0.23840(15) 0.89925(6)
N5 N -0.33290(17) 0.30415(16) 0.93346(7)
N6 N 0.11624(14) 0.35659(16) 0.77149(6)
H39 H 0.1457 0.3573 0.7512
O1 O -0.15979(12) 0.26893(12) 0.83825(5)
O2 O -0.14947(12) 0.15558(12) 0.95908(5)
O3 O -0.22038(14) 0.10782(14) 0.88203(6)
O4 O -0.07421(14) 0.10740(14) 0.87469(5)
O5 O 0.02647(14) 0.20393(13) 0.92534(5)
O6 O 0.02276(14) 0.28615(14) 0.87650(5)
O7 O -0.31953(16) 0.26484(13) 0.90285(5)
O8 O -0.26317(15) 0.33118(14) 0.94971(5)
O9 O 0.13635(13) 0.43018(12) 0.70423(5)
O10 O -0.15485(15) -0.00852(17) 0.85604(7)
O11 O 0.1512(2) 0.22650(14) 0.89515(7)
O12 O -0.4102(2) 0.31300(16) 0.94576(7)
La1 La -0.138130(9) 0.261060(9) 0.905760(4)
O13 O -0.16074(14) 0.42856(16) 0.88718(6)
H40 H -0.2208 0.4528 0.8876
H41 H -0.1232 0.4769 0.8881
C1C C -0.1588(3) 0.7974(2) 1.06779(8)
H1C H -0.1632 0.8124 1.0932
H2C H -0.1929 0.8413 1.0538
H3C H -0.0956 0.7986 1.0604
C2C C -0.19761(18) 0.70268(18) 1.06148(7)
C3C C -0.1972(2) 0.66928(18) 1.02595(7)
H4C H -0.1690 0.7051 1.0082
C4C C -0.2359(2) 0.58562(18) 1.01479(7)
C5C C -0.2358(3) 0.5624(2) 0.97482(8)
H5C H -0.2640 0.5035 0.9713
H6C H -0.1738 0.5606 0.9661
H7C H -0.2696 0.6082 0.9617
C6C C -0.3023(2) 0.43367(19) 1.03235(8)
H8C H -0.3135 0.4248 1.0063
C7C C -0.3914(2) 0.4135(2) 1.05317(10)
H9C H -0.4402 0.4525 1.0441
H10C H -0.3829 0.4268 1.0788
C8C C -0.4182(3) 0.3124(3) 1.04834(12)
H11C H -0.4739 0.2998 1.0619
H12C H -0.4302 0.3001 1.0228
C9C C -0.3427(3) 0.2509(2) 1.06154(10)
H13C H -0.3608 0.1874 1.0583
H14C H -0.3330 0.2612 1.0874
C10C C -0.2249(2) 0.36970(18) 1.04424(7)
H15C H -0.2091 0.3830 1.0696
C11F C 0.0781(2) -0.2915(2) 1.03137(9)
H16F H 0.1108 -0.3070 1.0532
H17F H 0.0966 -0.3318 1.0120
H18F H 0.0134 -0.2979 1.0355
C12F C 0.09929(18) -0.19421(18) 1.02098(7)
C13F C 0.0582(2) -0.15640(18) 0.98995(8)
H19F H 0.0174 -0.1932 0.9771
C14F C 0.07355(19) -0.06777(18) 0.97677(7)
C15F C 0.0260(2) -0.0382(2) 0.94236(9)
H20F H 0.0428 0.0239 0.9367
H21F H -0.0392 -0.0420 0.9457
H22F H 0.0441 -0.0776 0.9227
C16F C 0.14440(19) 0.0877(2) 0.98641(8)
H23F H 0.1234 0.1019 0.9617
C17F C 0.2458(2) 0.1094(2) 0.98905(9)
H24F H 0.2782 0.0772 0.9698
H25F H 0.2691 0.0874 1.0122
C18F C 0.2647(3) 0.2115(2) 0.98578(10)
H26F H 0.3298 0.2228 0.9889
H27F H 0.2473 0.2325 0.9617
C19C C 0.0652(2) 0.4477(2) 0.93916(9)
H28C H 0.0552 0.4184 0.9161
H29C H 0.1239 0.4298 0.9486
H30C H 0.0637 0.5131 0.9361
C20C C -0.00844(18) 0.41936(17) 0.96519(7)
C21C C -0.00658(19) 0.45428(18) 1.00074(8)
H31C H 0.0416 0.4933 1.0067
C22C C -0.07065(19) 0.43573(18) 1.02799(7)
C23C C -0.0552(2) 0.4758(2) 1.06537(8)
H32C H -0.1039 0.4569 1.0813
H33C H -0.0543 0.5415 1.0638
H34C H 0.0024 0.4544 1.0748
C24C C -0.2534(2) 0.2683(2) 1.04115(8)
H35C H -0.2612 0.2523 1.0157
H36C H -0.2054 0.2297 1.0512
N1C N -0.27365(16) 0.52885(15) 1.03846(6)
H37C H -0.2825 0.5502 1.0600
N2F N 0.12889(15) -0.01021(15) 0.99344(6)
H38F H 0.1605 -0.0332 1.0110
N3C N -0.43275(18) 0.64978(16) 1.12059(6)
N4C N -0.26160(15) 0.43035(19) 1.14925(6)
N5C N -0.19585(16) 0.83290(17) 1.18346(7)
N6C N -0.14341(16) 0.38376(14) 1.02149(6)
H39C H -0.1427 0.3543 1.0012
O1C O -0.23107(12) 0.65979(12) 1.08825(5)
O2F O 0.15558(12) -0.14947(12) 1.04092(5)
O2C O -0.34442(12) 0.64947(12) 1.20908(5)
O3C O -0.39218(14) 0.72038(14) 1.13203(6)
O4C O -0.39260(14) 0.57421(14) 1.12469(5)
O5C O -0.29607(13) 0.47353(14) 1.17534(5)
O6C O -0.21385(14) 0.47724(14) 1.12650(5)
O7C O -0.23516(13) 0.81953(16) 1.15285(5)
O8C O -0.16882(14) 0.76317(15) 1.19971(5)
O9C O -0.06982(12) 0.36365(13) 0.95423(5)
O9A O -0.13635(13) 0.56982(12) 1.20423(5)
O10C O -0.50852(17) 0.65485(15) 1.10604(7)
O11C O -0.27350(14) 0.3488(2) 1.14515(7)
O12C O -0.18700(16) 0.9102(2) 1.19576(7)
La1C La -0.238940(9) 0.638130(9) 1.155760(4)
La1B La 0.238940(9) 0.361870(9) 0.655760(4)
La1F La 0.261060(9) -0.138130(9) 1.094240(4)
O13C O -0.07144(16) 0.66074(14) 1.13718(6)
H40C H -0.0472 0.7208 1.1376
H41C H -0.0231 0.6232 1.1381
loop_
_geom_bond_atom_site_label_1
_geom_bond_atom_site_label_2
_geom_bond_site_symmetry_1
_geom_bond_site_symmetry_2
C1 H1 1_555 1_555
H2 C1 1_555 1_555
H3 C1 1_555 1_555
C2 C1 1_555 1_555
C3 C2 1_555 1_555
H4 C3 1_555 1_555
C4 C3 1_555 1_555
C5 C4 1_555 1_555
H5 C5 1_555 1_555
H6 C5 1_555 1_555
H7 C5 1_555 1_555
C6 H8 1_555 1_555
C7 C6 1_555 1_555
H9 C7 1_555 1_555
H10 C7 1_555 1_555
C8 C7 1_555 1_555
H11 C8 1_555 1_555
H12 C8 1_555 1_555
C9 C8 1_555 1_555
H13 C9 1_555 1_555
H14 C9 1_555 1_555
C10 C6 1_555 1_555
H15 C10 1_555 1_555
C11 H16 1_555 1_555
H17 C11 1_555 1_555
H18 C11 1_555 1_555
C12 C11 1_555 1_555
C13 C12 1_555 1_555
H19 C13 1_555 1_555
C14 C13 1_555 1_555
C15 C14 1_555 1_555
H20 C15 1_555 1_555
H21 C15 1_555 1_555
H22 C15 1_555 1_555
C16 H23 1_555 1_555
C17 C16 1_555 1_555
H24 C17 1_555 1_555
H25 C17 1_555 1_555
C18 C17 1_555 1_555
H26 C18 1_555 1_555
H27 C18 1_555 1_555
C19 H28 1_555 1_555
H29 C19 1_555 1_555
H30 C19 1_555 1_555
C20 C19 1_555 1_555
C21 C20 1_555 1_555
H31 C21 1_555 1_555
C22 C21 1_555 1_555
C23 C22 1_555 1_555
H32 C23 1_555 1_555
H33 C23 1_555 1_555
H34 C23 1_555 1_555
C24 C9 1_555 1_555
H35 C24 1_555 1_555
H36 C24 1_555 1_555
N1 C4 1_555 1_555
H37 N1 1_555 1_555
N2 C14 1_555 1_555
H38 N2 1_555 1_555
N3 O3 1_555 1_555
N4 O5 1_555 1_555
N5 O7 1_555 1_555
N6 C10 1_555 1_555
H39 N6 1_555 1_555
O1 C2 1_555 1_555
O2 C12 1_555 1_555
O3 La1 1_555 1_555
O4 N3 1_555 1_555
O5 La1 1_555 1_555
O6 N4 1_555 1_555
O7 La1 1_555 1_555
O8 N5 1_555 1_555
O9 C20 1_555 1_555
O10 N3 1_555 1_555
O11 N4 1_555 1_555
O12 N5 1_555 1_555
La1 O1 1_555 1_555
O13 La1 1_555 1_555
H40 O13 1_555 1_555
H41 O13 1_555 1_555
C1C H1C 1_555 1_555
H2C C1C 1_555 1_555
H3C C1C 1_555 1_555
C2C C1C 1_555 1_555
C3C C2C 1_555 1_555
H4C C3C 1_555 1_555
C4C C3C 1_555 1_555
C5C C4C 1_555 1_555
H5C C5C 1_555 1_555
H6C C5C 1_555 1_555
H7C C5C 1_555 1_555
C6C H8C 1_555 1_555
C7C C6C 1_555 1_555
H9C C7C 1_555 1_555
H10C C7C 1_555 1_555
C8C C7C 1_555 1_555
H11C C8C 1_555 1_555
H12C C8C 1_555 1_555
C9C C8C 1_555 1_555
H13C C9C 1_555 1_555
H14C C9C 1_555 1_555
C10C C6C 1_555 1_555
H15C C10C 1_555 1_555
C11F H16F 1_555 1_555
H17F C11F 1_555 1_555
H18F C11F 1_555 1_555
C12F C11F 1_555 1_555
C13F C12F 1_555 1_555
H19F C13F 1_555 1_555
C14F C13F 1_555 1_555
C15F C14F 1_555 1_555
H20F C15F 1_555 1_555
H21F C15F 1_555 1_555
H22F C15F 1_555 1_555
C16F C16 1_555 1_555
H23F C16F 1_555 1_555
C17F C16F 1_555 1_555
H24F C17F 1_555 1_555
H25F C17F 1_555 1_555
C18F C18 1_555 1_555
H26F C18F 1_555 1_555
H27F C18F 1_555 1_555
C19C H28C 1_555 1_555
H29C C19C 1_555 1_555
H30C C19C 1_555 1_555
C20C C19C 1_555 1_555
C21C C20C 1_555 1_555
H31C C21C 1_555 1_555
C22C C21C 1_555 1_555
C23C C22C 1_555 1_555
H32C C23C 1_555 1_555
H33C C23C 1_555 1_555
H34C C23C 1_555 1_555
C24C C9C 1_555 1_555
H35C C24C 1_555 1_555
H36C C24C 1_555 1_555
N1C C4C 1_555 1_555
H37C N1C 1_555 1_555
N2F C14F 1_555 1_555
H38F N2F 1_555 1_555
N3C O3C 1_555 1_555
N4C O5C 1_555 1_555
N5C O7C 1_555 1_555
N6C C10C 1_555 1_555
H39C N6C 1_555 1_555
O1C C2C 1_555 1_555
O2F C12F 1_555 1_555
O2C La1C 1_555 1_555
O3C La1C 1_555 1_555
O4C N3C 1_555 1_555
O5C La1C 1_555 1_555
O6C N4C 1_555 1_555
O7C La1C 1_555 1_555
O8C N5C 1_555 1_555
O9C La1 1_555 1_555
O9A La1C 1_555 1_555
O10C N3C 1_555 1_555
O11C N4C 1_555 1_555
O12C N5C 1_555 1_555
La1C O1C 1_555 1_555
La1B O9 1_555 1_555
La1F O2F 1_555 1_555
O13C La1C 1_555 1_555
H40C O13C 1_555 1_555
H41C O13C 1_555 1_555
C6 N1 1_555 1_555
C10 C24 1_555 1_555
C16 N2 1_555 1_555
C22 N6 1_555 1_555
O2 La1 1_555 1_555
O4 La1 1_555 1_555
O6 La1 1_555 1_555
O8 La1 1_555 1_555
C6C N1C 1_555 1_555
C10C C24C 1_555 1_555
C16F N2F 1_555 1_555
C17F C18F 1_555 1_555
C20C O9C 1_555 1_555
C22C N6C 1_555 1_555
O4C La1C 1_555 1_555
O6C La1C 1_555 1_555
O8C La1C 1_555 1_555

#END
