
#######################################################################
#
#                 Cambridge Crystallographic Data Centre
#                                CCDC 
#
#######################################################################
#
# If this CIF has been generated from an entry in the Cambridge 
# Structural Database, then it will include bibliographic, chemical, 
# crystal, experimental, refinement or atomic coordinate data resulting 
# from the CCDC's data processing and validation procedures.
#
#######################################################################

data_UTUMAY
_symmetry_cell_setting           orthorhombic
_symmetry_space_group_name_H-M   'P c c n'
_symmetry_Int_Tables_number      56
_space_group_name_Hall           '-P 2ab 2ac'
loop_
_symmetry_equiv_pos_site_id
_symmetry_equiv_pos_as_xyz
1 x,y,z
2 1/2-x,1/2-y,z
3 -x,1/2+y,1/2-z
4 1/2+x,-y,1/2-z
5 -x,-y,-z
6 1/2+x,1/2+y,-z
7 x,1/2-y,1/2+z
8 1/2-x,y,1/2+z
_cell_length_a                   19.803(4)
_cell_length_b                   12.034(3)
_cell_length_c                   16.389(4)
_cell_angle_alpha                90
_cell_angle_beta                 90
_cell_angle_gamma                90
_cell_volume                     3905.65
loop_
_atom_site_label
_atom_site_type_symbol
_atom_site_fract_x
_atom_site_fract_y
_atom_site_fract_z
C1 C 0.63612(19) 0.6404(3) 0.0952(2)
H1 H 0.6739 0.6263 0.1272
C2 C 0.6001(2) 0.7393(3) 0.1048(2)
H2 H 0.6136 0.7907 0.1440
C3 C 0.54441(19) 0.7613(3) 0.0563(2)
C4 C 0.5240(2) 0.6834(3) -0.0008(2)
H3 H 0.4859 0.6967 -0.0325
C5 C 0.5603(2) 0.5852(3) -0.0109(2)
H4 H 0.5472 0.5344 -0.0506
C6 C 0.5088(2) 0.8642(3) 0.0652(2)
H5 H 0.5055 0.8759 0.1236
H6 H 0.4632 0.8485 0.0467
C7 C 0.5251(2) 0.9768(4) 0.0305(3)
H7 H 0.5124 1.0222 0.0777
C8 C 0.5967(2) 0.9975(3) 0.0312(3)
C9 C 0.6246(2) 1.0652(4) 0.0904(3)
H8 H 0.5975 1.0950 0.1313
C10 C 0.6932(2) 1.0886(3) 0.0885(3)
H9 H 0.7122 1.1357 0.1272
C11 C 0.6368(2) 0.9475(3) -0.0297(3)
H10 H 0.6180 0.9000 -0.0682
C12 C 0.7057(2) 0.9718(3) -0.0302(2)
H11 H 0.7331 0.9411 -0.0703
C13 C 0.6317(2) 0.3449(4) 0.2006(2)
C14 C 0.6396(2) 0.2755(3) 0.2690(3)
H12 H 0.6419 0.1989 0.2619
C15 C 0.6441(2) 0.3202(4) 0.3483(2)
H13 H 0.6491 0.3965 0.3552
C16 C 0.6411(2) 0.2524(4) 0.4152(3)
N1 N 0.61516(16) 0.5628(2) 0.03745(19)
N2 N 0.73350(17) 1.0406(3) 0.0278(2)
O1 O 0.66044(14) 0.3245(2) 0.13884(18)
O2 O 0.59120(15) 0.4283(2) 0.20531(18)
O3 O 0.61579(15) 0.2870(2) 0.47943(17)
O4 O 0.65583(14) 0.1554(2) 0.41398(18)
Zn1 Zn 0.66836(2) 0.41722(3) 0.03059(3)
C1D C 0.36388(19) 1.3596(3) -0.0952(2)
H1D H 0.3261 1.3737 -0.1272
C2D C 0.3999(2) 1.2607(3) -0.1048(2)
H2D H 0.3864 1.2093 -0.1440
C3D C 0.45559(19) 1.2387(3) -0.0563(2)
C4D C 0.4760(2) 1.3166(3) 0.0008(2)
H3D H 0.5141 1.3033 0.0325
C5D C 0.4397(2) 1.4148(3) 0.0109(2)
H4D H 0.4528 1.4656 0.0506
C6D C 0.4912(2) 1.1358(3) -0.0652(2)
H5D H 0.4945 1.1241 -0.1236
H6D H 0.5368 1.1515 -0.0467
C7D C 0.4749(2) 1.0232(4) -0.0305(3)
H7D H 0.4876 0.9778 -0.0777
C8D C 0.4033(2) 1.0025(3) -0.0312(3)
C9D C 0.3754(2) 0.9348(4) -0.0904(3)
H8D H 0.4025 0.9050 -0.1313
C10D C 0.3068(2) 0.9114(3) -0.0885(3)
H9D H 0.2878 0.8643 -0.1272
C11D C 0.3632(2) 1.0525(3) 0.0297(3)
H10D H 0.3820 1.1000 0.0682
C12D C 0.2943(2) 1.0282(3) 0.0302(2)
H11D H 0.2669 1.0589 0.0703
C13F C 0.6317(2) 0.1551(4) -0.2994(2)
C14F C 0.6396(2) 0.2245(3) -0.2310(3)
H12F H 0.6419 0.3011 -0.2381
C15F C 0.6441(2) 0.1798(4) -0.1517(2)
H13F H 0.6491 0.1035 -0.1448
C16F C 0.6411(2) 0.2476(4) -0.0848(3)
N1D N 0.38484(16) 1.4372(2) -0.03745(19)
N2D N 0.26650(17) 0.9594(3) -0.0278(2)
N2A N 0.76650(17) 0.4594(3) 0.0278(2)
N2E N 0.23350(17) 1.5406(3) -0.0278(2)
O1F O 0.66044(14) 0.1755(2) -0.36116(18)
O1D O 0.33956(14) 1.6755(2) -0.13884(18)
O2F O 0.59120(15) 0.0717(2) -0.29469(18)
O3F O 0.61579(15) 0.2130(2) -0.02057(17)
O4F O 0.65583(14) 0.3446(2) -0.08602(18)
O4B O 0.34417(14) 1.6554(2) 0.08602(18)
Zn1D Zn 0.33164(2) 1.58278(3) -0.03059(3)
Zn1A Zn 0.83164(2) 1.08278(3) 0.03059(3)
Zn1F Zn 0.66836(2) 0.08278(3) 0.53059(3)
Zn1E Zn 0.16836(2) 0.91722(3) -0.03059(3)
Zn1F_2 Zn 0.66836(2) 0.08278(3) -0.46941(3)
O5 O 0.5426(4) 0.8012(8) 0.8068(5)
H14 H 0.5494 0.7905 0.7562
H15 H 0.5562 0.7453 0.8339
O6 O 0.7659(3) 0.9435(6) 0.7623(4)
H16 H 0.7816 0.9685 0.8069
H17 H 0.7912 0.8916 0.7449
O7 O 0.6997(4) 0.8047(7) 0.7815(5)
H18 H 0.7226 0.7450 0.7818
H19 H 0.6796 0.8122 0.8270
O8 O 0.49066(14) 0.5220(2) 0.23650(16)
H20 H 0.5271 0.4880 0.2253
H21 H 0.4830 0.5177 0.2874
loop_
_geom_bond_atom_site_label_1
_geom_bond_atom_site_label_2
_geom_bond_site_symmetry_1
_geom_bond_site_symmetry_2
C1 H1 1_555 1_555
C2 C1 1_555 1_555
H2 C2 1_555 1_555
C3 C2 1_555 1_555
C4 C3 1_555 1_555
H3 C4 1_555 1_555
C5 C4 1_555 1_555
H4 C5 1_555 1_555
C6 C3 1_555 1_555
H5 C6 1_555 1_555
H6 C6 1_555 1_555
C7 C6 1_555 1_555
H7 C7 1_555 1_555
C8 C7 1_555 1_555
C9 C8 1_555 1_555
H8 C9 1_555 1_555
C10 C9 1_555 1_555
H9 C10 1_555 1_555
C11 C8 1_555 1_555
H10 C11 1_555 1_555
C12 C11 1_555 1_555
H11 C12 1_555 1_555
C13 C14 1_555 1_555
C14 H12 1_555 1_555
C15 C14 1_555 1_555
H13 C15 1_555 1_555
C16 C15 1_555 1_555
N1 C1 1_555 1_555
N2 C10 1_555 1_555
O1 C13 1_555 1_555
O2 C13 1_555 1_555
O3 C16 1_555 1_555
O4 C16 1_555 1_555
Zn1 N1 1_555 1_555
O5 H14 1_555 1_555
H15 O5 1_555 1_555
O6 H16 1_555 1_555
H17 O6 1_555 1_555
O7 H18 1_555 1_555
H19 O7 1_555 1_555
O8 H20 1_555 1_555
H21 O8 1_555 1_555
C1D H1D 1_555 1_555
C2D C1D 1_555 1_555
H2D C2D 1_555 1_555
C3D C2D 1_555 1_555
C4D C3D 1_555 1_555
H3D C4D 1_555 1_555
C5D C4D 1_555 1_555
H4D C5D 1_555 1_555
C6D C3D 1_555 1_555
H5D C6D 1_555 1_555
H6D C6D 1_555 1_555
C7D C7 1_555 1_555
H7D C7D 1_555 1_555
C8D C7D 1_555 1_555
C9D C8D 1_555 1_555
H8D C9D 1_555 1_555
C10D C9D 1_555 1_555
H9D C10D 1_555 1_555
C11D C8D 1_555 1_555
H10D C11D 1_555 1_555
C12D C11D 1_555 1_555
H11D C12D 1_555 1_555
C13F C14F 1_555 1_555
C14F H12F 1_555 1_555
C15F C14F 1_555 1_555
H13F C15F 1_555 1_555
C16F C15F 1_555 1_555
N1D C1D 1_555 1_555
N2D C10D 1_555 1_555
N2A Zn1 1_555 1_555
N2E Zn1D 1_555 1_555
O1F C13F 1_555 1_555
O1D Zn1D 1_555 1_555
O2F C13F 1_555 1_555
O3F C16F 1_555 1_555
O4F Zn1 1_555 1_555
O4B Zn1D 1_555 1_555
Zn1D N1D 1_555 1_555
Zn1A N2 1_555 1_555
Zn1F O4 1_555 1_555
Zn1E N2D 1_555 1_555
Zn1F_2 O1F 1_555 1_555
C5 N1 1_555 1_555
C12 N2 1_555 1_555
O1 Zn1 1_555 1_555
C5D N1D 1_555 1_555
C6D C7D 1_555 1_555
C12D N2D 1_555 1_555
C16F O4F 1_555 1_555

#END
