
#######################################################################
#
#                 Cambridge Crystallographic Data Centre
#                                CCDC 
#
#######################################################################
#
# If this CIF has been generated from an entry in the Cambridge 
# Structural Database, then it will include bibliographic, chemical, 
# crystal, experimental, refinement or atomic coordinate data resulting 
# from the CCDC's data processing and validation procedures.
#
#######################################################################

data_UVISEY
_symmetry_cell_setting           monoclinic
_symmetry_space_group_name_H-M   'C 2/c'
_symmetry_Int_Tables_number      15
_space_group_name_Hall           '-C 2yn'
loop_
_symmetry_equiv_pos_site_id
_symmetry_equiv_pos_as_xyz
1 x,y,z
2 -x,y,1/2-z
3 1/2+x,1/2+y,z
4 1/2-x,1/2+y,1/2-z
5 -x,-y,-z
6 x,-y,1/2+z
7 1/2-x,1/2-y,-z
8 1/2+x,1/2-y,1/2+z
_cell_length_a                   41.641(6)
_cell_length_b                   10.618(3)
_cell_length_c                   14.232(4)
_cell_angle_alpha                90
_cell_angle_beta                 107.71(3)
_cell_angle_gamma                90
_cell_volume                     5994.38
loop_
_atom_site_label
_atom_site_type_symbol
_atom_site_fract_x
_atom_site_fract_y
_atom_site_fract_z
Cd1 Cd -0.163098(4) -0.146147(13) -0.208848(11)
Cd2 Cd -0.157650(4) -0.296180(13) 0.098390(11)
O1 O -0.21046(4) -0.04058(16) -0.16669(12)
O2 O -0.15784(4) 0.01250(15) -0.09122(12)
O3 O -0.18411(5) -0.11643(15) 0.05061(12)
O4 O -0.16233(5) -0.03014(16) 0.19737(12)
O5 O -0.14592(5) -0.37059(15) -0.19380(12)
O6 O -0.16387(5) -0.28681(14) -0.07822(12)
O7 O -0.16781(7) -0.6379(2) -0.25764(15)
O8 O -0.11312(8) -0.6452(3) -0.22244(19)
N1 N -0.19282(5) 0.19390(16) 0.12489(14)
N2 N -0.14012(5) -0.48382(16) 0.04410(13)
N3 N -0.10307(5) -0.1150(2) -0.17211(16)
N4 N 0.10314(5) 0.2066(2) -0.10488(16)
N5 N 0.00451(6) 0.0893(3) -0.1292(2)
N6 N -0.00093(6) -0.0235(3) -0.1223(2)
C1 C -0.18860(6) 0.0222(2) -0.10291(15)
C2 C -0.19848(5) 0.1187(2) -0.03872(16)
C3 C -0.21111(6) 0.2361(2) -0.07736(17)
H1 H -0.2170 0.2510 -0.1449
C4 C -0.21461(6) 0.3293(2) -0.01383(18)
H2 H -0.2236 0.4072 -0.0382
C5 C -0.20459(6) 0.3059(2) 0.08656(18)
H3 H -0.2061 0.3705 0.1291
C6 C -0.19063(5) 0.10093(19) 0.06236(15)
C7 C -0.17816(5) -0.02521(19) 0.10789(15)
C8 C -0.13908(9) -0.6292(2) -0.19906(18)
C9 C -0.13536(6) -0.6087(2) -0.09114(15)
C10 C -0.12496(7) -0.7102(2) -0.02736(18)
H4 H -0.1199 -0.7869 -0.0511
C11 C -0.12216(7) -0.6967(2) 0.07085(18)
H5 H -0.1150 -0.7636 0.1143
C12 C -0.13015(6) -0.5828(2) 0.10394(16)
H6 H -0.1286 -0.5743 0.1702
C13 C -0.14236(5) -0.49519(19) -0.05225(14)
C14 C -0.15157(5) -0.37675(19) -0.11289(15)
C15 C -0.07928(7) -0.2032(3) -0.1564(2)
H7 H -0.0855 -0.2874 -0.1572
C16 C -0.09375(7) 0.0061(3) -0.1691(2)
H8 H -0.1103 0.0680 -0.1793
C17 C -0.04560(8) -0.1739(3) -0.1391(3)
H9 H -0.0296 -0.2376 -0.1289
C18 C -0.06058(7) 0.0429(3) -0.1514(2)
H10 H -0.0548 0.1277 -0.1492
C19 C -0.03610(7) -0.0499(3) -0.1371(2)
C20 C 0.07655(7) 0.2825(3) -0.1311(3)
H11 H 0.0800 0.3658 -0.1460
C21 C 0.09780(6) 0.0861(3) -0.08511(19)
H12 H 0.1162 0.0320 -0.0662
C22 C 0.04392(8) 0.2451(3) -0.1377(3)
H13 H 0.0261 0.3019 -0.1550
C23 C 0.06630(7) 0.0382(3) -0.0915(2)
H14 H 0.0634 -0.0462 -0.0785
C24 C 0.03893(7) 0.1211(3) -0.1179(2)
O9 O -0.21459(5) -0.36885(17) 0.04711(14)
H15 H -0.2175 -0.4447 0.0617
H16 H -0.2184 -0.3219 0.0909
Cd1E Cd -0.163098(4) 0.146147(13) -0.708848(11)
Cd1E_2 Cd -0.163098(4) 0.146147(13) 0.291152(11)
Cd1E_3 Cd -0.163098(4) -0.853853(13) 0.291152(11)
Cd1D Cd 0.163098(4) 0.146147(13) 0.208848(11)
Cd2E Cd -0.157650(4) 0.296180(13) -0.401610(11)
Cd2E_2 Cd -0.157650(4) -0.703820(13) -0.401610(11)
Cd2D Cd 0.157650(4) 0.296180(13) -0.098390(11)
Cd2E_3 Cd -0.157650(4) -0.703820(13) 0.598390(11)
O1E O -0.21046(4) 0.04058(16) -0.66669(12)
O2E O -0.15784(4) -0.01250(15) -0.59122(12)
O3E O -0.18411(5) 0.11643(15) -0.44939(12)
O4E O -0.16233(5) 0.03014(16) -0.30263(12)
O4_2 O -0.16233(5) -0.03014(16) -0.80263(12)
O5E O -0.14592(5) -0.62941(15) 0.30620(12)
O5E_2 O -0.14592(5) 0.37059(15) -0.69380(12)
O6E O -0.16387(5) -0.71319(14) 0.42178(12)
O6E_2 O -0.16387(5) 0.28681(14) -0.57822(12)
O7E O -0.16781(7) -0.3621(2) 0.24236(15)
O7_2 O -0.16781(7) 0.3621(2) -0.25764(15)
O8E O -0.11312(8) -0.3548(3) 0.27756(19)
O8_2 O -0.11312(8) 0.3548(3) -0.22244(19)
N1E N -0.19282(5) -0.19390(16) -0.37511(14)
N1_2 N -0.19282(5) 0.19390(16) -0.87511(14)
N2E N -0.14012(5) -0.51618(16) 0.54410(13)
N2E_2 N -0.14012(5) 0.48382(16) -0.45590(13)
N3D N 0.10307(5) 0.1150(2) 0.17211(16)
N3E N -0.10307(5) 0.1150(2) -0.67211(16)
N4D N -0.10314(5) -0.2066(2) 0.10488(16)
N4A N -0.10314(5) 0.2066(2) -0.39512(16)
N5D N -0.00451(6) -0.0893(3) 0.1292(2)
N6D N 0.00093(6) 0.0235(3) 0.1223(2)
C1E C -0.18860(6) -0.0222(2) -0.60291(15)
C2E C -0.19848(5) -0.1187(2) -0.53872(16)
C3E C -0.21111(6) -0.2361(2) -0.57736(17)
H1E H -0.2170 -0.2510 -0.6449
C4E C -0.21461(6) -0.3293(2) -0.51383(18)
H2E H -0.2236 -0.4072 -0.5382
C5E C -0.20459(6) -0.3059(2) -0.41344(18)
H3E H -0.2061 -0.3705 -0.3709
C6E C -0.19063(5) -0.10093(19) -0.43764(15)
C7E C -0.17816(5) 0.02521(19) -0.39211(15)
C8E C -0.13908(9) -0.3708(2) 0.30094(18)
C9E C -0.13536(6) -0.3913(2) 0.40886(15)
C10E C -0.12496(7) -0.2898(2) 0.47264(18)
H4E H -0.1199 -0.2131 0.4489
C11E C -0.12216(7) -0.3033(2) 0.57085(18)
H5E H -0.1150 -0.2364 0.6143
C12E C -0.13015(6) -0.4172(2) 0.60394(16)
H6E H -0.1286 -0.4257 0.6702
C13E C -0.14236(5) -0.50481(19) 0.44775(14)
C14E C -0.15157(5) -0.62325(19) 0.38711(15)
C15D C 0.07928(7) 0.2032(3) 0.1564(2)
H7D H 0.0855 0.2874 0.1572
C16D C 0.09375(7) -0.0061(3) 0.1691(2)
H8D H 0.1103 -0.0680 0.1793
C17D C 0.04560(8) 0.1739(3) 0.1391(3)
H9D H 0.0296 0.2376 0.1289
C18D C 0.06058(7) -0.0429(3) 0.1514(2)
H10D H 0.0548 -0.1277 0.1492
C19D C 0.03610(7) 0.0499(3) 0.1371(2)
C20D C -0.07655(7) -0.2825(3) 0.1311(3)
H11D H -0.0800 -0.3658 0.1460
C21D C -0.09780(6) -0.0861(3) 0.08511(19)
H12D H -0.1162 -0.0320 0.0662
C22D C -0.04392(8) -0.2451(3) 0.1377(3)
H13D H -0.0261 -0.3019 0.1550
C23D C -0.06630(7) -0.0382(3) 0.0915(2)
H14D H -0.0634 0.0462 0.0785
C24D C -0.03893(7) -0.1211(3) 0.1179(2)
O9E O -0.21459(5) 0.36885(17) -0.45289(14)
H15E H -0.2175 0.4447 -0.4383
H16E H -0.2184 0.3219 -0.4091
O10 O 0.24313(5) 0.2674(2) 0.14151(17)
H17 H 0.2288 0.2198 0.1555
H18 H 0.2328 0.3326 0.1132
O11 O 0.22353(6) 0.4853(2) 0.22616(18)
H19 H 0.2036 0.4655 0.2256
H20 H 0.2350 0.4186 0.2332
O12 O 0.0000 0.4847(11) 0.2500
O13 O -0.04475(9) 0.5379(7) 0.3663(2)
H23 H -0.0676 0.5102 0.3534
H24 H -0.0381 0.5697 0.4331
O14 O -0.0327(3) 0.6155 0.5620
H25 H -0.0424 0.6817 0.5902
H26 H -0.0177 0.5569 0.6048
H21? H -0.0195 0.5137 0.2703
H22? H 0.0149 0.4443 0.3101
loop_
_geom_bond_atom_site_label_1
_geom_bond_atom_site_label_2
_geom_bond_site_symmetry_1
_geom_bond_site_symmetry_2
Cd1 O1 1_555 1_555
Cd2 O3 1_555 1_555
O1 C1 1_555 1_555
O2 Cd1 1_555 1_555
O3 C7 1_555 1_555
O4 C7 1_555 1_555
O5 Cd1 1_555 1_555
O6 Cd1 1_555 1_555
O7 C8 1_555 1_555
O8 C8 1_555 1_555
N1 C5 1_555 1_555
N2 Cd2 1_555 1_555
N3 Cd1 1_555 1_555
N4 C20 1_555 1_555
N5 N6 1_555 1_555
N6 C19 1_555 1_555
C1 O2 1_555 1_555
C2 C1 1_555 1_555
C3 C2 1_555 1_555
H1 C3 1_555 1_555
C4 C3 1_555 1_555
H2 C4 1_555 1_555
C5 C4 1_555 1_555
H3 C5 1_555 1_555
C6 N1 1_555 1_555
C7 C6 1_555 1_555
C8 C9 1_555 1_555
C9 C10 1_555 1_555
C10 H4 1_555 1_555
C11 C10 1_555 1_555
H5 C11 1_555 1_555
C12 N2 1_555 1_555
H6 C12 1_555 1_555
C13 N2 1_555 1_555
C14 O5 1_555 1_555
C15 N3 1_555 1_555
H7 C15 1_555 1_555
C16 N3 1_555 1_555
H8 C16 1_555 1_555
C17 C15 1_555 1_555
H9 C17 1_555 1_555
C18 C16 1_555 1_555
H10 C18 1_555 1_555
C19 C17 1_555 1_555
C20 H11 1_555 1_555
C21 N4 1_555 1_555
H12 C21 1_555 1_555
C22 C20 1_555 1_555
H13 C22 1_555 1_555
C23 C21 1_555 1_555
H14 C23 1_555 1_555
C24 N5 1_555 1_555
O9 Cd2 1_555 1_555
H15 O9 1_555 1_555
H16 O9 1_555 1_555
O10 H17 1_555 1_555
H18 O10 1_555 1_555
O11 H19 1_555 1_555
H20 O11 1_555 1_555
O13 H23 1_555 1_555
H24 O13 1_555 1_555
O14 H25 1_555 1_555
H26 O14 1_555 1_555
Cd1E O1E 1_555 1_555
Cd1E_2 O4 1_555 1_555
Cd1E_3 O5E 1_555 1_555
Cd1D N3D 1_555 1_555
Cd2E O3E 1_555 1_555
Cd2E_2 O7 1_555 1_555
Cd2D N4 1_555 1_555
Cd2E_3 O6E 1_555 1_555
O1E C1E 1_555 1_555
O2E Cd1E 1_555 1_555
O3E C7E 1_555 1_555
O4E Cd1 1_555 1_555
O4_2 Cd1E 1_555 1_555
O5E C14E 1_555 1_555
O5E_2 Cd1E 1_555 1_555
O6E Cd1E_3 1_555 1_555
O6E_2 Cd1E 1_555 1_555
O7E Cd2 1_555 1_555
O7_2 Cd2E 1_555 1_555
O8E Cd2 1_555 1_555
O8_2 Cd2E 1_555 1_555
N1E Cd1 1_555 1_555
N1_2 Cd1E 1_555 1_555
N2E Cd2E_3 1_555 1_555
N2E_2 Cd2E 1_555 1_555
N3D C15D 1_555 1_555
N3E Cd1E 1_555 1_555
N4D Cd2 1_555 1_555
N4A Cd2E 1_555 1_555
N5D N6D 1_555 1_555
N6D C19D 1_555 1_555
C1E O2E 1_555 1_555
C2E C1E 1_555 1_555
C3E C2E 1_555 1_555
H1E C3E 1_555 1_555
C4E C3E 1_555 1_555
H2E C4E 1_555 1_555
C5E N1E 1_555 1_555
H3E C5E 1_555 1_555
C6E N1E 1_555 1_555
C7E O4E 1_555 1_555
C8E O7E 1_555 1_555
C9E C8E 1_555 1_555
C10E C9E 1_555 1_555
H4E C10E 1_555 1_555
C11E C10E 1_555 1_555
H5E C11E 1_555 1_555
C12E N2E 1_555 1_555
H6E C12E 1_555 1_555
C13E N2E 1_555 1_555
C14E O6E 1_555 1_555
C15D H7D 1_555 1_555
C16D N3D 1_555 1_555
H8D C16D 1_555 1_555
C17D C15D 1_555 1_555
H9D C17D 1_555 1_555
C18D C16D 1_555 1_555
H10D C18D 1_555 1_555
C19D C17D 1_555 1_555
C20D N4D 1_555 1_555
H11D C20D 1_555 1_555
C21D N4D 1_555 1_555
H12D C21D 1_555 1_555
C22D C20D 1_555 1_555
H13D C22D 1_555 1_555
C23D C21D 1_555 1_555
H14D C23D 1_555 1_555
C24D N5D 1_555 1_555
O9E Cd2E 1_555 1_555
H15E O9E 1_555 1_555
H16E O9E 1_555 1_555
Cd2 O6 1_555 1_555
O6 C14 1_555 1_555
O8 Cd2E_2 1_555 1_555
N1 Cd1E_2 1_555 1_555
C2 C6 1_555 1_555
C9 C13 1_555 1_555
C11 C12 1_555 1_555
C13 C14 1_555 1_555
C18 C19 1_555 1_555
C22 C24 1_555 1_555
C23 C24 1_555 1_555
Cd2E O6E_2 1_555 1_555
O8E C8E 1_555 1_555
C2E C6E 1_555 1_555
C4E C5E 1_555 1_555
C6E C7E 1_555 1_555
C9E C13E 1_555 1_555
C11E C12E 1_555 1_555
C13E C14E 1_555 1_555
C18D C19D 1_555 1_555
C22D C24D 1_555 1_555
C23D C24D 1_555 1_555

#END
