
#######################################################################
#
#                 Cambridge Crystallographic Data Centre
#                                CCDC 
#
#######################################################################
#
# If this CIF has been generated from an entry in the Cambridge 
# Structural Database, then it will include bibliographic, chemical, 
# crystal, experimental, refinement or atomic coordinate data resulting 
# from the CCDC's data processing and validation procedures.
#
#######################################################################

data_UVUQAE
_symmetry_cell_setting           monoclinic
_symmetry_space_group_name_H-M   'C 2/c'
_symmetry_Int_Tables_number      15
_space_group_name_Hall           '-C 2yn'
loop_
_symmetry_equiv_pos_site_id
_symmetry_equiv_pos_as_xyz
1 x,y,z
2 -x,y,1/2-z
3 1/2+x,1/2+y,z
4 1/2-x,1/2+y,1/2-z
5 -x,-y,-z
6 x,-y,1/2+z
7 1/2-x,1/2-y,-z
8 1/2+x,1/2-y,1/2+z
_cell_length_a                   25.367(5)
_cell_length_b                   16.334(3)
_cell_length_c                   21.515(4)
_cell_angle_alpha                90
_cell_angle_beta                 97.30(3)
_cell_angle_gamma                90
_cell_volume                     8842.37
loop_
_atom_site_label
_atom_site_type_symbol
_atom_site_fract_x
_atom_site_fract_y
_atom_site_fract_z
Zn1 Zn -0.511253(15) 0.49840(2) -0.318535(18)
Zn2 Zn -0.192098(14) -0.24026(2) 0.006097(18)
O1 O -0.28295(11) 0.12635(15) -0.25414(13)
O2 O -0.44934(10) 0.41503(15) -0.30776(12)
O3 O -0.44173(11) 0.40815(15) -0.20302(12)
O4 O -0.19839(10) -0.15652(14) -0.06449(12)
O5 O -0.28580(11) -0.17756(14) -0.07136(12)
O6 O -0.26579(11) 0.83611(17) -0.28593(15)
O7 O -0.45865(10) 0.58783(14) -0.31813(13)
O8 O -0.43535(10) 0.58136(15) -0.21408(13)
O9 O -0.20642(9) 1.14724(13) -0.43624(11)
O10 O -0.29489(9) 1.16496(13) -0.44501(11)
O11 O -0.53831(11) 0.50271(15) -0.40999(12)
N1 N 0.03173(12) -0.45085(19) 0.03912(19)
N2 N -0.04978(13) -0.4779(2) -0.0237(2)
N3 N -0.11225(11) -0.25890(15) 0.03108(14)
N4 N -0.60394(15) 0.4775(2) -0.48944(16)
C1 C -0.39329(14) 0.3133(2) -0.25594(17)
C2 C -0.37710(18) 0.2715(2) -0.20034(19)
H1 H -0.3904 0.2874 -0.1639
C3 C -0.34206(18) 0.2078(2) -0.19817(18)
H2 H -0.3321 0.1801 -0.1608
C4 C -0.32154(16) 0.1850(2) -0.25192(18)
C5 C -0.33648(16) 0.2261(2) -0.30717(18)
H3 H -0.3227 0.2103 -0.3434
C6 C -0.37182(15) 0.2904(2) -0.30914(17)
H4 H -0.3812 0.3186 -0.3465
C7 C -0.43094(15) 0.3848(2) -0.25594(18)
C8 C -0.25638(14) -0.07014(19) -0.13135(16)
C9 C -0.30809(15) -0.0452(2) -0.1503(2)
H5 H -0.3362 -0.0731 -0.1362
C10 C -0.31821(16) 0.0215(2) -0.1904(2)
H6 H -0.3530 0.0383 -0.2027
C11 C -0.27648(16) 0.0626(2) -0.21169(18)
C12 C -0.22486(15) 0.0384(2) -0.19380(17)
H7 H -0.1968 0.0665 -0.2078
C13 C -0.21520(14) -0.0297(2) -0.15398(17)
H8 H -0.1805 -0.0476 -0.1428
C14 C -0.24653(15) -0.14017(19) -0.08635(16)
C15 C -0.30904(15) 0.7851(2) -0.2846(2)
C16 C -0.34084(17) 0.7576(2) -0.3386(2)
H9 H -0.3353 0.7766 -0.3781
C17 C -0.38054(15) 0.7019(2) -0.33182(19)
H10 H -0.4027 0.6844 -0.3671
C18 C -0.38808(13) 0.67159(19) -0.27393(17)
C19 C -0.35510(15) 0.6991(2) -0.22129(18)
H11 H -0.3597 0.6786 -0.1820
C20 C -0.31600(17) 0.7558(2) -0.22625(19)
H12 H -0.2945 0.7741 -0.1907
C21 C -0.43054(14) 0.6086(2) -0.26770(19)
C22 C -0.25762(13) 1.04793(19) -0.39000(16)
C23 C -0.21289(14) 1.0076(2) -0.36305(19)
H13 H -0.1796 1.0292 -0.3670
C24 C -0.21660(15) 0.9357(2) -0.33030(19)
H14 H -0.1861 0.9083 -0.3129
C25 C -0.26664(15) 0.9050(2) -0.32380(18)
C26 C -0.31198(15) 0.9450(2) -0.3498(2)
H15 H -0.3454 0.9241 -0.3452
C27 C -0.30720(15) 1.0165(2) -0.3828(2)
H16 H -0.3376 1.0440 -0.4003
C28 C -0.25281(14) 1.12586(19) -0.42623(16)
C29 C -0.01787(14) -0.4311(2) 0.0148(2)
C30 C -0.08092(14) -0.2058(2) 0.0653(2)
H17 H -0.0955 -0.1566 0.0765
C31 C -0.02823(17) -0.2205(3) 0.0846(3)
H18 H -0.0075 -0.1818 0.1081
C32 C -0.00635(16) -0.2937(3) 0.0686(2)
H19 H 0.0295 -0.3047 0.0806
C33 C -0.03861(14) -0.3510(2) 0.03403(19)
C34 C -0.09124(13) -0.33073(19) 0.01573(17)
H20 H -0.1129 -0.3681 -0.0081
C35 C -0.58152(18) 0.4713(3) -0.43189(19)
H21 H -0.5993 0.4407 -0.4046
C36 C -0.6569(3) 0.4456(4) -0.5090(3)
H22 H -0.6669 0.4570 -0.5527
H23 H -0.6817 0.4711 -0.4849
H24 H -0.6571 0.3875 -0.5023
C37 C -0.5800(2) 0.5252(4) -0.5345(2)
H25 H -0.6025 0.5243 -0.5739
H26 H -0.5460 0.5026 -0.5398
H27 H -0.5757 0.5807 -0.5200
Zn1A Zn -0.488747(15) 0.49840(2) -0.181465(18)
Zn2A Zn -0.807902(14) -0.24026(2) -0.506097(18)
Zn2B Zn -0.692098(14) 1.25974(2) 0.006097(18)
Zn2C Zn -0.307902(14) 1.25974(2) -0.506097(18)
Zn2D Zn -0.807902(14) 1.24026(2) -0.006097(18)
Zn2D_2 Zn 0.192098(14) -0.75974(2) -0.006097(18)
Zn2E Zn -0.192098(14) 1.24026(2) -0.493903(18)
Zn2F Zn -0.307902(14) -0.25974(2) -0.006097(18)
Zn2G Zn -0.692098(14) -0.25974(2) -0.493903(18)
O1A O -0.71705(11) 0.12635(15) -0.24586(13)
O2A O -0.55066(10) 0.41503(15) -0.19224(12)
O3A O -0.55827(11) 0.40815(15) -0.29698(12)
O4A O -0.80161(10) -0.15652(14) -0.43551(12)
O5A O -0.71420(11) -0.17756(14) -0.42864(12)
O5F O -0.21420(11) -0.32244(14) 0.07136(12)
O5G O -0.78580(11) -0.32244(14) -0.57136(12)
O6A O -0.73421(11) 0.83611(17) -0.21407(15)
O7A O -0.54135(10) 0.58783(14) -0.18187(13)
O8A O -0.56465(10) 0.58136(15) -0.28592(13)
O9A O -0.79358(9) 1.14724(13) -0.06376(11)
O9D O -0.79358(9) -0.14724(13) -0.56376(11)
O9E O -0.20642(9) -0.14724(13) 0.06376(11)
O10A O -0.70511(9) 1.16496(13) -0.05499(11)
O10B O -0.79489(9) -0.33504(13) -0.44501(11)
O10C O -0.20511(9) -0.33504(13) -0.05499(11)
O11A O -0.46169(11) 0.50271(15) -0.09001(12)
N1D N -0.03173(12) -0.54915(19) -0.03912(19)
N2D N 0.04978(13) -0.5221(2) 0.0237(2)
N3D N 0.11225(11) -0.74110(15) -0.03108(14)
N3A N -0.88775(11) -0.25890(15) -0.53108(14)
N4A N -0.39606(15) 0.4775(2) -0.01056(16)
C1A C -0.60671(14) 0.3133(2) -0.24406(17)
C2A C -0.62290(18) 0.2715(2) -0.29966(19)
H1A H -0.6096 0.2874 -0.3361
C3A C -0.65794(18) 0.2078(2) -0.30183(18)
H2A H -0.6679 0.1801 -0.3392
C4A C -0.67846(16) 0.1850(2) -0.24808(18)
C5A C -0.66352(16) 0.2261(2) -0.19283(18)
H3A H -0.6773 0.2103 -0.1566
C6A C -0.62818(15) 0.2904(2) -0.19086(17)
H4A H -0.6188 0.3186 -0.1535
C7A C -0.56906(15) 0.3848(2) -0.24406(18)
C8A C -0.74362(14) -0.07014(19) -0.36865(16)
C9A C -0.69191(15) -0.0452(2) -0.3497(2)
H5A H -0.6638 -0.0731 -0.3638
C10A C -0.68179(16) 0.0215(2) -0.3096(2)
H6A H -0.6470 0.0383 -0.2973
C11A C -0.72352(16) 0.0626(2) -0.28831(18)
C12A C -0.77514(15) 0.0384(2) -0.30620(17)
H7A H -0.8032 0.0665 -0.2922
C13A C -0.78480(14) -0.0297(2) -0.34602(17)
H8A H -0.8195 -0.0476 -0.3572
C14A C -0.75347(15) -0.14017(19) -0.41365(16)
C15A C -0.69096(15) 0.7851(2) -0.2154(2)
C16A C -0.65916(17) 0.7576(2) -0.1614(2)
H9A H -0.6647 0.7766 -0.1219
C17A C -0.61946(15) 0.7019(2) -0.16818(19)
H10A H -0.5973 0.6844 -0.1329
C18A C -0.61192(13) 0.67159(19) -0.22607(17)
C19A C -0.64490(15) 0.6991(2) -0.27871(18)
H11A H -0.6403 0.6786 -0.3180
C20A C -0.68400(17) 0.7558(2) -0.27375(19)
H12A H -0.7055 0.7741 -0.3093
C21A C -0.56946(14) 0.6086(2) -0.23230(19)
C22A C -0.74238(13) 1.04793(19) -0.11000(16)
C23A C -0.78711(14) 1.0076(2) -0.13695(19)
H13A H -0.8204 1.0292 -0.1330
C24A C -0.78340(15) 0.9357(2) -0.16970(19)
H14A H -0.8139 0.9083 -0.1871
C25A C -0.73336(15) 0.9050(2) -0.17620(18)
C26A C -0.68802(15) 0.9450(2) -0.1502(2)
H15A H -0.6546 0.9241 -0.1548
C27A C -0.69280(15) 1.0165(2) -0.1172(2)
H16A H -0.6624 1.0440 -0.0997
C28A C -0.74719(14) 1.12586(19) -0.07377(16)
C29D C 0.01787(14) -0.5689(2) -0.0148(2)
C30D C 0.08092(14) -0.7942(2) -0.0653(2)
H17D H 0.0955 -0.8434 -0.0765
C31D C 0.02823(17) -0.7795(3) -0.0846(3)
H18D H 0.0075 -0.8182 -0.1081
C32D C 0.00635(16) -0.7063(3) -0.0686(2)
H19D H -0.0295 -0.6953 -0.0806
C33D C 0.03861(14) -0.6490(2) -0.03403(19)
C34D C 0.09124(13) -0.66927(19) -0.01573(17)
H20D H 0.1129 -0.6319 0.0081
C35A C -0.41848(18) 0.4713(3) -0.06811(19)
H21A H -0.4007 0.4407 -0.0954
C36A C -0.3431(3) 0.4456(4) 0.0090(3)
H22A H -0.3331 0.4570 0.0527
H23A H -0.3183 0.4711 -0.0151
H24A H -0.3429 0.3875 0.0023
C37A C -0.4200(2) 0.5252(4) 0.0345(2)
H25A H -0.3975 0.5243 0.0739
H26A H -0.4540 0.5026 0.0398
H27A H -0.4243 0.5807 0.0200
loop_
_geom_bond_atom_site_label_1
_geom_bond_atom_site_label_2
_geom_bond_site_symmetry_1
_geom_bond_site_symmetry_2
Zn1 O2 1_555 1_555
Zn2 O4 1_555 1_555
O1 C4 1_555 1_555
O2 C7 1_555 1_555
O3 C7 1_555 1_555
O4 C14 1_555 1_555
O5 C14 1_555 1_555
O6 C15 1_555 1_555
O7 Zn1 1_555 1_555
O8 C21 1_555 1_555
O9 C28 1_555 1_555
O10 C28 1_555 1_555
O11 Zn1 1_555 1_555
N1 C29 1_555 1_555
N2 C29 1_555 1_555
N3 Zn2 1_555 1_555
N4 C35 1_555 1_555
C1 C2 1_555 1_555
C2 H1 1_555 1_555
C3 C2 1_555 1_555
H2 C3 1_555 1_555
C4 C3 1_555 1_555
C5 C4 1_555 1_555
H3 C5 1_555 1_555
C6 C1 1_555 1_555
H4 C6 1_555 1_555
C7 C1 1_555 1_555
C8 C9 1_555 1_555
C9 H5 1_555 1_555
C10 C9 1_555 1_555
H6 C10 1_555 1_555
C11 O1 1_555 1_555
C12 C11 1_555 1_555
H7 C12 1_555 1_555
C13 C8 1_555 1_555
H8 C13 1_555 1_555
C14 C8 1_555 1_555
C15 C16 1_555 1_555
C16 H9 1_555 1_555
C17 C16 1_555 1_555
H10 C17 1_555 1_555
C18 C17 1_555 1_555
C19 C18 1_555 1_555
H11 C19 1_555 1_555
C20 C15 1_555 1_555
H12 C20 1_555 1_555
C21 O7 1_555 1_555
C22 C23 1_555 1_555
C23 H13 1_555 1_555
C24 C23 1_555 1_555
H14 C24 1_555 1_555
C25 O6 1_555 1_555
C26 C25 1_555 1_555
H15 C26 1_555 1_555
C27 C22 1_555 1_555
H16 C27 1_555 1_555
C28 C22 1_555 1_555
C29 C33 1_555 1_555
C30 N3 1_555 1_555
H17 C30 1_555 1_555
C31 C30 1_555 1_555
H18 C31 1_555 1_555
C32 C31 1_555 1_555
H19 C32 1_555 1_555
C33 C32 1_555 1_555
C34 N3 1_555 1_555
H20 C34 1_555 1_555
C35 O11 1_555 1_555
H21 C35 1_555 1_555
C36 N4 1_555 1_555
H22 C36 1_555 1_555
H23 C36 1_555 1_555
H24 C36 1_555 1_555
C37 N4 1_555 1_555
H25 C37 1_555 1_555
H26 C37 1_555 1_555
H27 C37 1_555 1_555
Zn1A O3 1_555 1_555
Zn2A O4A 1_555 1_555
Zn2B O10A 1_555 1_555
Zn2C O10 1_555 1_555
Zn2D O9A 1_555 1_555
Zn2D_2 N3D 1_555 1_555
Zn2E O9 1_555 1_555
Zn2F O5 1_555 1_555
Zn2G O5A 1_555 1_555
O1A C4A 1_555 1_555
O2A Zn1A 1_555 1_555
O3A Zn1 1_555 1_555
O4A C14A 1_555 1_555
O5A C14A 1_555 1_555
O5F Zn2 1_555 1_555
O5G Zn2A 1_555 1_555
O6A C15A 1_555 1_555
O7A Zn1A 1_555 1_555
O8A Zn1 1_555 1_555
O9A C28A 1_555 1_555
O9D Zn2A 1_555 1_555
O9E Zn2 1_555 1_555
O10A C28A 1_555 1_555
O10B Zn2A 1_555 1_555
O10C Zn2 1_555 1_555
O11A Zn1A 1_555 1_555
N1D N2 1_555 1_555
N2D N1 1_555 1_555
N3D C30D 1_555 1_555
N3A Zn2A 1_555 1_555
N4A C35A 1_555 1_555
C1A C2A 1_555 1_555
C2A H1A 1_555 1_555
C3A C2A 1_555 1_555
H2A C3A 1_555 1_555
C4A C3A 1_555 1_555
C5A C4A 1_555 1_555
H3A C5A 1_555 1_555
C6A C1A 1_555 1_555
H4A C6A 1_555 1_555
C7A O2A 1_555 1_555
C8A C9A 1_555 1_555
C9A H5A 1_555 1_555
C10A C9A 1_555 1_555
H6A C10A 1_555 1_555
C11A O1A 1_555 1_555
C12A C11A 1_555 1_555
H7A C12A 1_555 1_555
C13A C8A 1_555 1_555
H8A C13A 1_555 1_555
C14A C8A 1_555 1_555
C15A C16A 1_555 1_555
C16A H9A 1_555 1_555
C17A C16A 1_555 1_555
H10A C17A 1_555 1_555
C18A C17A 1_555 1_555
C19A C18A 1_555 1_555
H11A C19A 1_555 1_555
C20A C15A 1_555 1_555
H12A C20A 1_555 1_555
C21A O7A 1_555 1_555
C22A C23A 1_555 1_555
C23A H13A 1_555 1_555
C24A C23A 1_555 1_555
H14A C24A 1_555 1_555
C25A O6A 1_555 1_555
C26A C25A 1_555 1_555
H15A C26A 1_555 1_555
C27A C22A 1_555 1_555
H16A C27A 1_555 1_555
C28A C22A 1_555 1_555
C29D N1D 1_555 1_555
C30D H17D 1_555 1_555
C31D C30D 1_555 1_555
H18D C31D 1_555 1_555
C32D C31D 1_555 1_555
H19D C32D 1_555 1_555
C33D C29D 1_555 1_555
C34D N3D 1_555 1_555
H20D C34D 1_555 1_555
C35A O11A 1_555 1_555
H21A C35A 1_555 1_555
C36A N4A 1_555 1_555
H22A C36A 1_555 1_555
H23A C36A 1_555 1_555
H24A C36A 1_555 1_555
C37A N4A 1_555 1_555
H25A C37A 1_555 1_555
H26A C37A 1_555 1_555
H27A C37A 1_555 1_555
O8 Zn1A 1_555 1_555
C5 C6 1_555 1_555
C10 C11 1_555 1_555
C12 C13 1_555 1_555
C18 C21 1_555 1_555
C19 C20 1_555 1_555
C24 C25 1_555 1_555
C26 C27 1_555 1_555
C33 C34 1_555 1_555
O3A C7A 1_555 1_555
O8A C21A 1_555 1_555
N2D C29D 1_555 1_555
C1A C7A 1_555 1_555
C5A C6A 1_555 1_555
C10A C11A 1_555 1_555
C12A C13A 1_555 1_555
C18A C21A 1_555 1_555
C19A C20A 1_555 1_555
C24A C25A 1_555 1_555
C26A C27A 1_555 1_555
C32D C33D 1_555 1_555
C33D C34D 1_555 1_555

#END
