
#######################################################################
#
#                 Cambridge Crystallographic Data Centre
#                                CCDC 
#
#######################################################################
#
# If this CIF has been generated from an entry in the Cambridge 
# Structural Database, then it will include bibliographic, chemical, 
# crystal, experimental, refinement or atomic coordinate data resulting 
# from the CCDC's data processing and validation procedures.
#
#######################################################################

data_UWELIS
_symmetry_cell_setting           monoclinic
_symmetry_space_group_name_H-M   'P 21/c'
_symmetry_Int_Tables_number      14
_space_group_name_Hall           '-P 2ybc'
loop_
_symmetry_equiv_pos_site_id
_symmetry_equiv_pos_as_xyz
1 x,y,z
2 -x,1/2+y,1/2-z
3 -x,-y,-z
4 x,1/2-y,1/2+z
_cell_length_a                   13.9830(15)
_cell_length_b                   13.265(2)
_cell_length_c                   14.1890(12)
_cell_angle_alpha                90
_cell_angle_beta                 112.066(3)
_cell_angle_gamma                90
_cell_volume                     2439.06
loop_
_atom_site_label
_atom_site_type_symbol
_atom_site_fract_x
_atom_site_fract_y
_atom_site_fract_z
C1 C 0.2249(2) -0.3047(2) -0.1152(2)
H1 H 0.2775 -0.2577 -0.0878
C2 C 0.1214(2) -0.2739(2) -0.1532(2)
H2 H 0.1051 -0.2059 -0.1538
C3 C 0.0447(2) -0.3440(2) -0.1894(2)
C4 C 0.0666(2) -0.4458(3) -0.1914(2)
H3 H 0.0140 -0.4932 -0.2151
C5 C 0.1695(2) -0.4748(2) -0.1569(2)
H4 H 0.1857 -0.5425 -0.1595
C6 C -0.0656(2) -0.3047(2) -0.2254(2)
C7 C -0.2418(2) -0.3445(2) -0.2383(2)
C8 C -0.2925(2) -0.3933(2) -0.1853(2)
H5 H -0.2568 -0.4399 -0.1355
C9 C -0.3959(2) -0.3748(2) -0.2045(2)
C10 C -0.4487(2) -0.3031(2) -0.2778(2)
H6 H -0.5178 -0.2899 -0.2908
C11 C -0.3996(2) -0.2519(2) -0.3308(3)
C12 C -0.2939(2) -0.2721(2) -0.3120(2)
H7 H -0.2601 -0.2382 -0.3479
C13 C -0.4438(2) -0.4237(2) -0.1373(2)
C14 C -0.4481(2) -0.1670(2) -0.4021(2)
N1 N 0.24812(19) -0.4059(2) -0.11883(19)
N2 N -0.13713(17) -0.36876(18) -0.21792(17)
H17 H -0.1177 -0.4295 -0.1992
O1 O -0.08200(16) -0.21672(15) -0.25248(17)
O2 O -0.39067(16) -0.48672(16) -0.07609(16)
O3 O -0.53440(16) -0.39724(16) -0.14920(16)
O4 O -0.54068(16) -0.17653(16) -0.46151(16)
O5 O -0.39407(17) -0.09174(16) -0.39768(17)
Zn1 Zn -0.40033(3) -0.55314(3) 0.05103(3)
C1C C 0.2249(2) -0.1953(2) 0.3848(2)
H1C H 0.2775 -0.2423 0.4122
C2C C 0.1214(2) -0.2261(2) 0.3468(2)
H2C H 0.1051 -0.2941 0.3462
C3C C 0.0447(2) -0.1560(2) 0.3106(2)
C4C C 0.0666(2) -0.0542(3) 0.3086(2)
H3C H 0.0140 -0.0068 0.2849
C5C C 0.1695(2) -0.0252(2) 0.3431(2)
H4C H 0.1857 0.0425 0.3405
C6C C -0.0656(2) -0.1953(2) 0.2746(2)
C7C C -0.2418(2) -0.1555(2) 0.2617(2)
C8C C -0.2925(2) -0.1067(2) 0.3147(2)
H5C H -0.2568 -0.0601 0.3645
C9C C -0.3959(2) -0.1252(2) 0.2955(2)
C10C C -0.4487(2) -0.1969(2) 0.2222(2)
H6C H -0.5178 -0.2101 0.2092
C11C C -0.3996(2) -0.2481(2) 0.1692(3)
C12C C -0.2939(2) -0.2279(2) 0.1880(2)
H7C H -0.2601 -0.2618 0.1521
C13C C -0.4438(2) -0.0763(2) 0.3627(2)
C14C C -0.4481(2) -0.3330(2) 0.0979(2)
N1B N -0.24812(19) -0.5941(2) 0.11883(19)
N1_2 N -0.75188(19) -0.4059(2) -0.11883(19)
N1C N 0.24812(19) -0.0941(2) 0.38117(19)
N2C N -0.13713(17) -0.13124(18) 0.28208(17)
H17C H -0.1177 -0.0705 0.3008
O1C O -0.08200(16) -0.28328(15) 0.24752(17)
O2B O -0.60933(16) -0.51328(16) 0.07609(16)
O2C O -0.39067(16) -0.01328(16) 0.42391(16)
O3B O -0.46560(16) -0.60276(16) 0.14920(16)
O3C O -0.53440(16) -0.10276(16) 0.35080(16)
O4A O -0.45932(16) -0.67653(16) -0.03849(16)
O4C O -0.54068(16) -0.32347(16) 0.03849(16)
O5C O -0.39407(17) -0.40826(16) 0.10232(17)
O5A O -0.60593(17) -0.59174(16) -0.10232(17)
Zn1B Zn 0.40033(3) -0.44686(3) -0.05103(3)
Zn1B_2 Zn -0.59967(3) -0.44686(3) -0.05103(3)
Zn1A Zn -0.59967(3) -0.05314(3) -0.55103(3)
Zn1C Zn -0.40033(3) 0.05314(3) -0.44897(3)
Zn1A_2 Zn 0.40033(3) -0.05314(3) 0.44897(3)
Zn1C_2 Zn -0.40033(3) 0.05314(3) 0.55103(3)
Zn1A_3 Zn -0.59967(3) -0.05314(3) 0.44897(3)
C15 C -0.1428(3) -0.8228(3) -0.0950(3)
H8 H -0.0859 -0.8413 -0.1137
H9 H -0.1997 -0.8676 -0.1273
H10 H -0.1222 -0.8274 -0.0226
C16 C -0.2851(3) -0.6908(3) -0.1775(3)
H11 H -0.3127 -0.6769 -0.1262
H12 H -0.3227 -0.7454 -0.2195
H13 H -0.2914 -0.6318 -0.2186
C17 C -0.0951(3) -0.6440(3) -0.1064(3)
C18 C 0.0182(3) -0.6766(3) -0.0457(3)
H14 H 0.0322 -0.7384 -0.0733
H15 H 0.0282 -0.6865 0.0244
H16 H 0.0643 -0.6250 -0.0507
N3 N -0.1743(3) -0.7190(2) -0.1278(2)
O6 O -0.10880(18) -0.55556(19) -0.13297(19)
O7 O -0.6837(5) -1.0212(5) -0.0556(5)
H18 H -0.6871 -0.9572 -0.0551
H19 H -0.6875 -1.0445 -0.0013
O8 O -1.0000 0.0000 -1.0000
O9 O -0.6312(6) -0.8845(6) -0.9193(6)
H21 H -0.6636 -0.8533 -0.9744
H22 H -0.5666 -0.8802 -0.9054
H20? H -1.0356 -0.0533 -1.0063
H23? H -1.0419 0.0078 -0.9700
loop_
_geom_bond_atom_site_label_1
_geom_bond_atom_site_label_2
_geom_bond_site_symmetry_1
_geom_bond_site_symmetry_2
C1 H1 1_555 1_555
C2 C1 1_555 1_555
H2 C2 1_555 1_555
C3 C2 1_555 1_555
C4 C3 1_555 1_555
H3 C4 1_555 1_555
C5 C4 1_555 1_555
H4 C5 1_555 1_555
C6 C3 1_555 1_555
C7 C8 1_555 1_555
C8 H5 1_555 1_555
C9 C8 1_555 1_555
C10 C9 1_555 1_555
H6 C10 1_555 1_555
C11 C10 1_555 1_555
C12 C7 1_555 1_555
H7 C12 1_555 1_555
C13 C9 1_555 1_555
C14 C11 1_555 1_555
C15 H8 1_555 1_555
H9 C15 1_555 1_555
H10 C15 1_555 1_555
C16 H11 1_555 1_555
H12 C16 1_555 1_555
H13 C16 1_555 1_555
C17 C18 1_555 1_555
C18 H14 1_555 1_555
H15 C18 1_555 1_555
H16 C18 1_555 1_555
N1 C1 1_555 1_555
N2 C6 1_555 1_555
H17 N2 1_555 1_555
N3 C15 1_555 1_555
O1 C6 1_555 1_555
O2 C13 1_555 1_555
O3 C13 1_555 1_555
O4 C14 1_555 1_555
O5 C14 1_555 1_555
O6 C17 1_555 1_555
O7 H18 1_555 1_555
H19 O7 1_555 1_555
O9 H21 1_555 1_555
H22 O9 1_555 1_555
Zn1 O2 1_555 1_555
C1C H1C 1_555 1_555
C2C C1C 1_555 1_555
H2C C2C 1_555 1_555
C3C C2C 1_555 1_555
C4C C3C 1_555 1_555
H3C C4C 1_555 1_555
C5C C4C 1_555 1_555
H4C C5C 1_555 1_555
C6C C3C 1_555 1_555
C7C C8C 1_555 1_555
C8C H5C 1_555 1_555
C9C C8C 1_555 1_555
C10C C9C 1_555 1_555
H6C C10C 1_555 1_555
C11C C10C 1_555 1_555
C12C C7C 1_555 1_555
H7C C12C 1_555 1_555
C13C C9C 1_555 1_555
C14C C11C 1_555 1_555
N1B Zn1 1_555 1_555
N1_2 Zn1B_2 1_555 1_555
N1C C1C 1_555 1_555
N2C C6C 1_555 1_555
H17C N2C 1_555 1_555
O1C C6C 1_555 1_555
O2B Zn1B_2 1_555 1_555
O2C C13C 1_555 1_555
O3B Zn1 1_555 1_555
O3C C13C 1_555 1_555
O4A Zn1 1_555 1_555
O4C C14C 1_555 1_555
O5C Zn1 1_555 1_555
O5A Zn1B_2 1_555 1_555
Zn1B N1 1_555 1_555
Zn1B_2 O3 1_555 1_555
Zn1A O4 1_555 1_555
Zn1C O5 1_555 1_555
Zn1A_2 N1C 1_555 1_555
Zn1C_2 O2C 1_555 1_555
Zn1A_3 O3C 1_555 1_555
C5 N1 1_555 1_555
C7 N2 1_555 1_555
C11 C12 1_555 1_555
C16 N3 1_555 1_555
C17 N3 1_555 1_555
C5C N1C 1_555 1_555
C7C N2C 1_555 1_555
C11C C12C 1_555 1_555
C14C O5C 1_555 1_555
O4C Zn1B_2 1_555 1_555

#END
