
#######################################################################
#
#                 Cambridge Crystallographic Data Centre
#                                CCDC 
#
#######################################################################
#
# If this CIF has been generated from an entry in the Cambridge 
# Structural Database, then it will include bibliographic, chemical, 
# crystal, experimental, refinement or atomic coordinate data resulting 
# from the CCDC's data processing and validation procedures.
#
#######################################################################

data_UXINUL
_symmetry_cell_setting           triclinic
_symmetry_space_group_name_H-M   'P -1'
_symmetry_Int_Tables_number      2
_space_group_name_Hall           '-P 1'
loop_
_symmetry_equiv_pos_site_id
_symmetry_equiv_pos_as_xyz
1 x,y,z
2 -x,-y,-z
_cell_length_a                   11.0819(6)
_cell_length_b                   11.3246(5)
_cell_length_c                   11.8869(6)
_cell_angle_alpha                105.188(4)
_cell_angle_beta                 109.690(5)
_cell_angle_gamma                102.221(4)
_cell_volume                     1279.51
loop_
_atom_site_label
_atom_site_type_symbol
_atom_site_fract_x
_atom_site_fract_y
_atom_site_fract_z
Zn1 Zn 0.39861(6) 0.22033(5) 0.85518(5)
Zn2 Zn 1.15333(6) 0.33251(5) 1.76861(5)
O1 O 0.5640(4) 0.2136(4) 0.9793(3)
O2 O 0.5277(4) 0.3794(4) 1.0938(4)
O3 O 1.0663(5) 0.2277(5) 1.5331(4)
O4 O 1.0051(4) 0.3653(4) 1.6477(4)
O5 O 0.2612(4) 0.1362(4) 0.9064(4)
O6 O 0.0766(4) 0.1801(4) 0.8058(4)
O7 O 0.3373(3) 0.3451(3) 0.7921(3)
H1 H 0.3723 0.3926 0.8227
N1 N 0.3719(4) 0.0765(4) 0.6930(4)
N2 N 0.3096(5) -0.2265(5) 0.3672(5)
N3 N 0.2437(5) -0.2210(5) 0.2638(5)
N4 N 0.1823(4) -0.5215(4) -0.0654(4)
C1 C 0.5877(5) 0.2987(5) 1.0862(5)
C2 C 0.6932(5) 0.2977(5) 1.2046(5)
C3 C 0.7613(6) 0.2072(6) 1.1939(5)
H2 H 0.7407 0.1469 1.1142
C4 C 0.8598(6) 0.2089(6) 1.3037(6)
H3 H 0.9068 0.1503 1.2975
C5 C 0.8892(5) 0.2971(5) 1.4231(5)
C6 C 0.8207(6) 0.3848(5) 1.4315(5)
H4 H 0.8394 0.4437 1.5113
C7 C 0.7251(6) 0.3857(5) 1.3234(5)
H5 H 0.6811 0.4469 1.3303
C8 C 0.9948(6) 0.2956(6) 1.5408(5)
C9 C 0.1408(5) 0.1312(5) 0.8779(4)
C10 C 0.0644(5) 0.0594(5) 0.9378(5)
C11 C 0.1385(5) 0.0273(5) 1.0409(5)
H6 H 0.2318 0.0460 1.0683
C12 C -0.0715(5) 0.0321(5) 0.8990(5)
H7 H -0.1203 0.0536 0.8313
C13 C 0.2704(6) 0.0531(6) 0.5817(5)
H8 H 0.2149 0.1045 0.5786
C14 C 0.2446(6) -0.0461(5) 0.4693(5)
H9 H 0.1725 -0.0619 0.3926
C15 C 0.3291(6) -0.1203(5) 0.4753(5)
C16 C 0.4324(6) -0.0975(6) 0.5902(5)
H10 H 0.4888 -0.1480 0.5959
C17 C 0.4507(6) 0.0012(6) 0.6964(5)
H11 H 0.5208 0.0168 0.7743
C18 C 0.2251(5) -0.3280(5) 0.1550(5)
C19 C 0.1300(6) -0.3414(5) 0.0390(5)
H12 H 0.0793 -0.2856 0.0335
C20 C 0.1109(5) -0.4400(5) -0.0701(5)
H13 H 0.0463 -0.4496 -0.1490
C21 C 0.2759(6) -0.5050(5) 0.0497(5)
H14 H 0.3267 -0.5607 0.0532
C22 C 0.3007(6) -0.4115(6) 0.1616(5)
H15 H 0.3657 -0.4039 0.2394
Zn1A Zn -0.39861(6) -0.22033(5) 1.14482(5)
Zn1_2 Zn 1.39861(6) 0.22033(5) 1.85518(5)
Zn1_3 Zn 1.39861(6) 1.22033(5) 2.85518(5)
Zn2_2 Zn 0.15333(6) 0.33251(5) 0.76861(5)
Zn2_3 Zn 0.15333(6) -0.66749(5) -0.23139(5)
Zn2A Zn -0.15333(6) -0.33251(5) 1.23139(5)
Zn2A_2 Zn -1.15333(6) -0.33251(5) 0.23139(5)
O1A O -0.5640(4) -0.2136(4) 1.0207(3)
O2A O -0.5277(4) -0.3794(4) 0.9062(4)
O3A O -1.0663(5) -0.2277(5) 0.4669(4)
O4A O -1.0051(4) -0.3653(4) 0.3523(4)
O4_2 O 0.0051(4) 0.3653(4) 0.6477(4)
O5A O -0.2612(4) -0.1362(4) 1.0936(4)
O6A O -0.0766(4) -0.1801(4) 1.1942(4)
O6_2 O 1.0766(4) 0.1801(4) 1.8058(4)
O7_2 O 1.3373(3) 0.3451(3) 1.7921(3)
O7A O -0.3373(3) -0.3451(3) 1.2079(3)
H1_2 H 1.3723 0.3926 1.8227
H1A H -0.3723 -0.3926 1.1773
N1_2 N 1.3719(4) 1.0765(4) 2.6930(4)
N1A N -0.3719(4) -0.0765(4) 1.3070(4)
N2_2 N 1.3096(5) 0.7735(5) 2.3672(5)
N3_2 N 1.2437(5) 0.7790(5) 2.2638(5)
N4_2 N 1.1823(4) 0.4785(4) 1.9346(4)
N4_3 N 0.1823(4) 0.4785(4) 0.9346(4)
C1A C -0.5877(5) -0.2987(5) 0.9138(5)
C2A C -0.6932(5) -0.2977(5) 0.7954(5)
C3A C -0.7613(6) -0.2072(6) 0.8061(5)
H2A H -0.7407 -0.1469 0.8858
C4A C -0.8598(6) -0.2089(6) 0.6963(6)
H3A H -0.9068 -0.1503 0.7025
C5A C -0.8892(5) -0.2971(5) 0.5769(5)
C6A C -0.8207(6) -0.3848(5) 0.5685(5)
H4A H -0.8394 -0.4437 0.4887
C7A C -0.7251(6) -0.3857(5) 0.6766(5)
H5A H -0.6811 -0.4469 0.6697
C8A C -0.9948(6) -0.2956(6) 0.4592(5)
C9A C -0.1408(5) -0.1312(5) 1.1221(4)
C10A C -0.0644(5) -0.0594(5) 1.0622(5)
C11A C -0.1385(5) -0.0273(5) 0.9591(5)
H6A H -0.2318 -0.0460 0.9317
C12A C 0.0715(5) -0.0321(5) 1.1010(5)
H7A H 0.1203 -0.0536 1.1687
C13_2 C 1.2704(6) 1.0531(6) 2.5817(5)
H8_2 H 1.2149 1.1045 2.5786
C14_2 C 1.2446(6) 0.9539(5) 2.4693(5)
H9_2 H 1.1725 0.9381 2.3926
C15_2 C 1.3291(6) 0.8797(5) 2.4753(5)
C16_2 C 1.4324(6) 0.9025(6) 2.5902(5)
H10_2 H 1.4888 0.8520 2.5959
C17_2 C 1.4507(6) 1.0012(6) 2.6964(5)
H11_2 H 1.5208 1.0168 2.7743
C18_2 C 1.2251(5) 0.6720(5) 2.1550(5)
C19_2 C 1.1300(6) 0.6586(5) 2.0390(5)
H12_2 H 1.0793 0.7144 2.0335
C20_2 C 1.1109(5) 0.5600(5) 1.9299(5)
H13_2 H 1.0463 0.5504 1.8510
C21_2 C 1.2759(6) 0.4950(5) 2.0497(5)
H14_2 H 1.3267 0.4393 2.0532
C22_2 C 1.3007(6) 0.5885(6) 2.1616(5)
H15_2 H 1.3657 0.5961 2.2394
loop_
_geom_bond_atom_site_label_1
_geom_bond_atom_site_label_2
_geom_bond_site_symmetry_1
_geom_bond_site_symmetry_2
Zn1 O1 1_555 1_555
Zn2 O4 1_555 1_555
O1 C1 1_555 1_555
O2 C1 1_555 1_555
O3 C8 1_555 1_555
O4 C8 1_555 1_555
O5 Zn1 1_555 1_555
O6 C9 1_555 1_555
O7 Zn1 1_555 1_555
H1 O7 1_555 1_555
N1 Zn1 1_555 1_555
N2 N3 1_555 1_555
N3 C18 1_555 1_555
N4 C20 1_555 1_555
C1 C2 1_555 1_555
C2 C3 1_555 1_555
C3 H2 1_555 1_555
C4 C3 1_555 1_555
H3 C4 1_555 1_555
C5 C4 1_555 1_555
C6 C5 1_555 1_555
H4 C6 1_555 1_555
C7 C2 1_555 1_555
H5 C7 1_555 1_555
C8 C5 1_555 1_555
C9 O5 1_555 1_555
C10 C9 1_555 1_555
C11 C10 1_555 1_555
H6 C11 1_555 1_555
C12 C10 1_555 1_555
H7 C12 1_555 1_555
C13 N1 1_555 1_555
H8 C13 1_555 1_555
C14 C13 1_555 1_555
H9 C14 1_555 1_555
C15 N2 1_555 1_555
C16 C15 1_555 1_555
H10 C16 1_555 1_555
C17 N1 1_555 1_555
H11 C17 1_555 1_555
C18 C19 1_555 1_555
C19 H12 1_555 1_555
C20 C19 1_555 1_555
H13 C20 1_555 1_555
C21 N4 1_555 1_555
H14 C21 1_555 1_555
C22 C18 1_555 1_555
H15 C22 1_555 1_555
Zn1A O1A 1_555 1_555
Zn1_2 O7_2 1_555 1_555
Zn1_3 N1_2 1_555 1_555
Zn2_2 O6 1_555 1_555
Zn2_3 N4 1_555 1_555
Zn2A O6A 1_555 1_555
Zn2A_2 O4A 1_555 1_555
O1A C1A 1_555 1_555
O2A C1A 1_555 1_555
O3A C8A 1_555 1_555
O4A C8A 1_555 1_555
O4_2 Zn2_2 1_555 1_555
O5A Zn1A 1_555 1_555
O6A C9A 1_555 1_555
O6_2 Zn2 1_555 1_555
O7_2 Zn2 1_555 1_555
O7A Zn1A 1_555 1_555
H1_2 O7_2 1_555 1_555
H1A O7A 1_555 1_555
N1_2 C13_2 1_555 1_555
N1A Zn1A 1_555 1_555
N2_2 N3_2 1_555 1_555
N3_2 C18_2 1_555 1_555
N4_2 Zn2 1_555 1_555
N4_3 Zn2_2 1_555 1_555
C1A C2A 1_555 1_555
C2A C3A 1_555 1_555
C3A H2A 1_555 1_555
C4A C3A 1_555 1_555
H3A C4A 1_555 1_555
C5A C4A 1_555 1_555
C6A C5A 1_555 1_555
H4A C6A 1_555 1_555
C7A C2A 1_555 1_555
H5A C7A 1_555 1_555
C8A C5A 1_555 1_555
C9A O5A 1_555 1_555
C10A C9A 1_555 1_555
C11A C12 1_555 1_555
H6A C11A 1_555 1_555
C12A C11 1_555 1_555
H7A C12A 1_555 1_555
C13_2 H8_2 1_555 1_555
C14_2 C13_2 1_555 1_555
H9_2 C14_2 1_555 1_555
C15_2 N2_2 1_555 1_555
C16_2 C15_2 1_555 1_555
H10_2 C16_2 1_555 1_555
C17_2 N1_2 1_555 1_555
H11_2 C17_2 1_555 1_555
C18_2 C19_2 1_555 1_555
C19_2 H12_2 1_555 1_555
C20_2 N4_2 1_555 1_555
H13_2 C20_2 1_555 1_555
C21_2 N4_2 1_555 1_555
H14_2 C21_2 1_555 1_555
C22_2 C18_2 1_555 1_555
H15_2 C22_2 1_555 1_555
O7 Zn2_2 1_555 1_555
C6 C7 1_555 1_555
C14 C15 1_555 1_555
C16 C17 1_555 1_555
C21 C22 1_555 1_555
Zn2A O7A 1_555 1_555
C6A C7A 1_555 1_555
C10A C11A 1_555 1_555
C10A C12A 1_555 1_555
C14_2 C15_2 1_555 1_555
C16_2 C17_2 1_555 1_555
C19_2 C20_2 1_555 1_555
C21_2 C22_2 1_555 1_555

#END
