
#######################################################################
#
#                 Cambridge Crystallographic Data Centre
#                                CCDC 
#
#######################################################################
#
# If this CIF has been generated from an entry in the Cambridge 
# Structural Database, then it will include bibliographic, chemical, 
# crystal, experimental, refinement or atomic coordinate data resulting 
# from the CCDC's data processing and validation procedures.
#
#######################################################################

data_UYAPOA
_symmetry_cell_setting           rhombohedral
_symmetry_space_group_name_H-M   'R -3 c'
_symmetry_Int_Tables_number      167
_space_group_name_Hall           '-R 3 2"c'
loop_
_symmetry_equiv_pos_site_id
_symmetry_equiv_pos_as_xyz
1 x,y,z
2 -y,x-y,z
3 -x+y,-x,z
4 y,x,1/2-z
5 x-y,-y,1/2-z
6 -x,-x+y,1/2-z
7 2/3+x,1/3+y,1/3+z
8 2/3-y,1/3+x-y,1/3+z
9 2/3-x+y,1/3-x,1/3+z
10 2/3+y,1/3+x,5/6-z
11 2/3+x-y,1/3-y,5/6-z
12 2/3-x,1/3-x+y,5/6-z
13 1/3+x,2/3+y,2/3+z
14 1/3-y,2/3+x-y,2/3+z
15 1/3-x+y,2/3-x,2/3+z
16 1/3+y,2/3+x,1/6-z
17 1/3+x-y,2/3-y,1/6-z
18 1/3-x,2/3-x+y,1/6-z
19 -x,-y,-z
20 y,-x+y,-z
21 x-y,x,-z
22 -y,-x,1/2+z
23 -x+y,y,1/2+z
24 x,x-y,1/2+z
25 1/3-x,2/3-y,2/3-z
26 1/3+y,2/3-x+y,2/3-z
27 1/3+x-y,2/3+x,2/3-z
28 1/3-y,2/3-x,1/6+z
29 1/3-x+y,2/3+y,1/6+z
30 1/3+x,2/3+x-y,1/6+z
31 2/3-x,1/3-y,1/3-z
32 2/3+y,1/3-x+y,1/3-z
33 2/3+x-y,1/3+x,1/3-z
34 2/3-y,1/3-x,5/6+z
35 2/3-x+y,1/3+y,5/6+z
36 2/3+x,1/3+x-y,5/6+z
_cell_length_a                   20.4586(8)
_cell_length_b                   20.4586(8)
_cell_length_c                   80.370(3)
_cell_angle_alpha                90
_cell_angle_beta                 90
_cell_angle_gamma                120
_cell_volume                     29132.4
loop_
_atom_site_label
_atom_site_type_symbol
_atom_site_fract_x
_atom_site_fract_y
_atom_site_fract_z
C1 C 0.3787(2) 0.5541(2) 0.05028(5)
C2 C 0.3964(2) 0.5053(2) 0.03923(5)
C3 C 0.3375(2) 0.4341(3) 0.03397(5)
H1 H 0.2887 0.4156 0.0379
C4 C 0.3531(2) 0.3928(3) 0.02300(6)
H2 H 0.3138 0.3469 0.0192
C5 C 0.4266(2) 0.4172(2) 0.01719(5)
C6 C 0.4833(2) 0.4856(2) 0.02321(6)
H3 H 0.5329 0.5028 0.0199
C7 C 0.4681(3) 0.5288(2) 0.03391(6)
H4 H 0.5074 0.5749 0.0376
C8 C 0.4410(2) 0.3707(2) 0.00525(5)
C9 C 0.5108(2) 0.3738(2) 0.00479(5)
H5 H 0.5484 0.4046 0.0123
C10 C 0.5250(2) 0.3306(2) -0.00690(5)
C11 C 0.4690(2) 0.2867(2) -0.01832(5)
H6 H 0.4780 0.2585 -0.0261
C12 C 0.3995(2) 0.2841(2) -0.01838(5)
C13 C 0.3869(2) 0.3269(3) -0.00643(5)
H7 H 0.3408 0.3257 -0.0064
C14 C 0.3404(2) 0.2397(3) -0.03066(6)
C15 C 0.2656(3) 0.2031(4) -0.02667(7)
H8 H 0.2520 0.2064 -0.0158
C16 C 0.2090(4) 0.1613(4) -0.03801(8)
H9 H 0.1587 0.1351 -0.0347
C17 C 0.2297(3) 0.1596(4) -0.05469(7)
C18 C 0.3048(3) 0.1972(3) -0.05889(6)
H10 H 0.3188 0.1967 -0.0699
C19 C 0.3595(3) 0.2352(3) -0.04720(6)
H11 H 0.4101 0.2583 -0.0503
C20 C 0.5979(2) 0.3321(2) -0.00695(5)
C21 C 0.5995(2) 0.2646(2) -0.00682(5)
H12 H 0.5545 0.2186 -0.0067
C22 C 0.1673(5) 0.1167(3) -0.06703(9)
O1 O 0.31116(17) 0.53057(17) 0.05368(4)
O2 O 0.1845(2) 0.1237(2) -0.08234(5)
O3 O 0.3333 0.6667 0.07665(5)
O4 O 0.43315(17) 0.61466(17) 0.05526(4)
O5 O 0.1004(5) 0.0635(4) -0.06041(9)
Zn1 Zn 0.26087(2) 0.56571(2) 0.069132(5)
Zn2 Zn 0.3333 0.6667 0.101809(14)
C1A C 0.4459(2) -0.1754(3) 0.05028(5)
C1B C 1.1754(3) 0.6213(2) 0.05028(5)
C2A C 0.4947(2) -0.1089(3) 0.03923(5)
C2B C 1.1089(3) 0.6036(2) 0.03923(5)
C3A C 0.5659(3) -0.0966(4) 0.03397(5)
C3B C 1.0966(4) 0.6625(2) 0.03397(5)
H1A H 0.5844 -0.1269 0.0379
H1B H 1.1269 0.7113 0.0379
C4A C 0.6072(3) -0.0397(4) 0.02300(6)
C4B C 1.0397(4) 0.6469(2) 0.02300(6)
H2A H 0.6531 -0.0331 0.0192
H2B H 1.0331 0.6862 0.0192
C5A C 0.5828(2) 0.0094(3) 0.01719(5)
C5B C 0.9906(3) 0.5734(2) 0.01719(5)
C6A C 0.5144(2) -0.0023(3) 0.02321(6)
C6B C 1.0023(3) 0.5167(2) 0.02321(6)
H3A H 0.4972 0.0301 0.0199
H3B H 0.9699 0.4671 0.0199
C7A C 0.4712(2) -0.0607(4) 0.03391(6)
C7B C 1.0607(4) 0.5319(3) 0.03391(6)
H4A H 0.4251 -0.0675 0.0376
H4B H 1.0675 0.4926 0.0376
C8A C 0.6293(2) 0.0703(3) 0.00525(5)
C8B C 0.9297(3) 0.5590(2) 0.00525(5)
C9A C 0.6262(2) 0.1370(3) 0.00479(5)
C9B C 0.8630(3) 0.4892(2) 0.00479(5)
H5A H 0.5954 0.1438 0.0123
H5B H 0.8562 0.4516 0.0123
C10A C 0.6694(2) 0.1944(3) -0.00690(5)
C10B C 0.8056(3) 0.4750(2) -0.00690(5)
C11A C 0.7133(2) 0.1823(3) -0.01832(5)
C11B C 0.8177(3) 0.5310(2) -0.01832(5)
H6A H 0.7415 0.2195 -0.0261
H6B H 0.7805 0.5220 -0.0261
C12A C 0.7159(2) 0.1154(3) -0.01838(5)
C12B C 0.8846(3) 0.6005(2) -0.01838(5)
C13A C 0.6731(3) 0.0600(4) -0.00643(5)
C13B C 0.9400(4) 0.6131(2) -0.00643(5)
H7A H 0.6743 0.0151 -0.0064
H7B H 0.9849 0.6592 -0.0064
C14A C 0.7603(3) 0.1007(4) -0.03066(6)
C14B C 0.8993(4) 0.6596(2) -0.03066(6)
C15A C 0.7969(4) 0.0625(5) -0.02667(7)
C15B C 0.9375(5) 0.7344(3) -0.02667(7)
H8A H 0.7936 0.0456 -0.0158
H8B H 0.9544 0.7480 -0.0158
C16A C 0.8387(4) 0.0477(6) -0.03801(8)
C16B C 0.9523(6) 0.7910(4) -0.03801(8)
H9A H 0.8649 0.0236 -0.0347
H9B H 0.9764 0.8413 -0.0347
C17A C 0.8404(4) 0.0701(5) -0.05469(7)
C17B C 0.9299(5) 0.7703(3) -0.05469(7)
C18A C 0.8028(3) 0.1076(4) -0.05889(6)
C18B C 0.8924(4) 0.6952(3) -0.05889(6)
H10A H 0.8033 0.1221 -0.0699
H10B H 0.8779 0.6812 -0.0699
C19A C 0.7648(3) 0.1243(4) -0.04720(6)
C19B C 0.8757(4) 0.6405(3) -0.04720(6)
H11A H 0.7417 0.1518 -0.0503
H11B H 0.8482 0.5899 -0.0503
C20A C 0.6679(2) 0.2658(3) -0.00695(5)
C20B C 0.7342(3) 0.4021(2) -0.00695(5)
C21A C 0.7354(2) 0.3349(3) -0.00682(5)
C21B C 0.6651(3) 0.4005(2) -0.00682(5)
H12A H 0.7814 0.3359 -0.0067
H12B H 0.6641 0.4455 -0.0067
C22A C 0.8833(3) 0.0506(6) -0.06703(9)
C22B C 0.9494(6) 0.8327(5) -0.06703(9)
O1A O 0.46943(17) -0.21941(24) 0.05368(4)
O1B O 1.21941(24) 0.68884(17) 0.05368(4)
O1GA O 0.13610(17) 0.02217(17) -0.11299(4)
O1B_2 O 0.21941(24) -0.31116(17) 0.05368(4)
O2A O 0.8763(2) 0.0608(3) -0.08234(5)
O2B O 0.9392(3) 0.8155(2) -0.08234(5)
O2AA O 0.2096(2) 0.4822(2) 0.08433(5)
O2BA O 0.2725(3) -0.2096(2) 0.08433(5)
O3_2 O 0.3333 -0.3333 0.07665(5)
O3GA O -0.0000 0.0000 -0.09002(5)
O4A O 0.38534(17) -0.18151(24) 0.05526(4)
O4B O 1.18151(24) 0.56685(17) 0.05526(4)
O4B_2 O 0.18151(24) 0.56685(17) 0.05526(4)
O4IA O 0.09982(17) 0.15182(24) -0.11141(4)
O5A O 0.9365(4) 0.0369(6) -0.06041(9)
O5B O 0.9631(6) 0.8996(5) -0.06041(9)
O5AA O 0.2698(4) 0.5663(5) 0.10626(9)
O5BA O 0.2964(6) 0.7302(4) 0.10626(9)
O5CA O 0.4337(5) 0.7036(6) 0.10626(9)
Zn1B Zn 0.30484(3) -0.26087(2) 0.069132(5)
Zn1GA Zn 0.10096(2) 0.07246(2) -0.097535(5)
Zn1_2 Zn 1.26087(2) 0.56571(2) 0.069132(5)
Zn1A Zn 0.43429(2) -0.30484(3) 0.069132(5)
Zn1A_2 Zn 0.43429(2) 0.69516(3) 0.069132(5)
Zn1B_2 Zn 0.30484(3) 0.73913(2) 0.069132(5)
Zn1B_3 Zn 1.30484(3) 0.73913(2) 0.069132(5)
Zn1HA Zn 0.97151(3) 0.89904(2) -0.097535(5)
Zn1IA Zn 0.92754(2) 0.02849(3) -0.097535(5)
Zn2GA Zn -0.0000 0.0000 -0.064858(14)
Zn2GA_2 Zn 1.0000 0.0000 -0.064858(14)
Zn2GA_3 Zn 1.0000 1.0000 -0.064858(14)
loop_
_geom_bond_atom_site_label_1
_geom_bond_atom_site_label_2
_geom_bond_site_symmetry_1
_geom_bond_site_symmetry_2
C1 C2 1_555 1_555
C2 C3 1_555 1_555
C3 H1 1_555 1_555
C4 C3 1_555 1_555
H2 C4 1_555 1_555
C5 C4 1_555 1_555
C6 C5 1_555 1_555
H3 C6 1_555 1_555
C7 C2 1_555 1_555
H4 C7 1_555 1_555
C8 C5 1_555 1_555
C9 C8 1_555 1_555
H5 C9 1_555 1_555
C10 C9 1_555 1_555
C11 C10 1_555 1_555
H6 C11 1_555 1_555
C12 C11 1_555 1_555
C13 C8 1_555 1_555
H7 C13 1_555 1_555
C14 C12 1_555 1_555
C15 C14 1_555 1_555
H8 C15 1_555 1_555
C16 C15 1_555 1_555
H9 C16 1_555 1_555
C17 C16 1_555 1_555
C18 C17 1_555 1_555
H10 C18 1_555 1_555
C19 C14 1_555 1_555
H11 C19 1_555 1_555
C20 C10 1_555 1_555
C21 C20 1_555 1_555
H12 C21 1_555 1_555
C22 C17 1_555 1_555
O1 C1 1_555 1_555
O2 C22 1_555 1_555
O3 Zn1 1_555 1_555
O4 C1 1_555 1_555
O5 C22 1_555 1_555
Zn1 O1 1_555 1_555
Zn2 O3 1_555 1_555
C1A C2A 1_555 1_555
C1B C2B 1_555 1_555
C2A C3A 1_555 1_555
C2B C3B 1_555 1_555
C3A H1A 1_555 1_555
C3B H1B 1_555 1_555
C4A C3A 1_555 1_555
C4B C3B 1_555 1_555
H2A C4A 1_555 1_555
H2B C4B 1_555 1_555
C5A C4A 1_555 1_555
C5B C4B 1_555 1_555
C6A C5A 1_555 1_555
C6B C5B 1_555 1_555
H3A C6A 1_555 1_555
H3B C6B 1_555 1_555
C7A C2A 1_555 1_555
C7B C2B 1_555 1_555
H4A C7A 1_555 1_555
H4B C7B 1_555 1_555
C8A C5A 1_555 1_555
C8B C5B 1_555 1_555
C9A C8A 1_555 1_555
C9B C8B 1_555 1_555
H5A C9A 1_555 1_555
H5B C9B 1_555 1_555
C10A C9A 1_555 1_555
C10B C9B 1_555 1_555
C11A C10A 1_555 1_555
C11B C10B 1_555 1_555
H6A C11A 1_555 1_555
H6B C11B 1_555 1_555
C12A C11A 1_555 1_555
C12B C11B 1_555 1_555
C13A C8A 1_555 1_555
C13B C8B 1_555 1_555
H7A C13A 1_555 1_555
H7B C13B 1_555 1_555
C14A C12A 1_555 1_555
C14B C12B 1_555 1_555
C15A C14A 1_555 1_555
C15B C14B 1_555 1_555
H8A C15A 1_555 1_555
H8B C15B 1_555 1_555
C16A C15A 1_555 1_555
C16B C15B 1_555 1_555
H9A C16A 1_555 1_555
H9B C16B 1_555 1_555
C17A C16A 1_555 1_555
C17B C16B 1_555 1_555
C18A C17A 1_555 1_555
C18B C17B 1_555 1_555
H10A C18A 1_555 1_555
H10B C18B 1_555 1_555
C19A C14A 1_555 1_555
C19B C14B 1_555 1_555
H11A C19A 1_555 1_555
H11B C19B 1_555 1_555
C20A C21 1_555 1_555
C20B C10B 1_555 1_555
C21A C20A 1_555 1_555
C21B C20 1_555 1_555
H12A C21A 1_555 1_555
H12B C21B 1_555 1_555
C22A C17A 1_555 1_555
C22B C17B 1_555 1_555
O1A C1A 1_555 1_555
O1B C1B 1_555 1_555
O1GA Zn1GA 1_555 1_555
O1B_2 Zn1B 1_555 1_555
O2A C22A 1_555 1_555
O2B C22B 1_555 1_555
O2AA Zn1 1_555 1_555
O2BA Zn1B 1_555 1_555
O3_2 Zn1B 1_555 1_555
O3GA Zn1GA 1_555 1_555
O4A C1A 1_555 1_555
O4B C1B 1_555 1_555
O4B_2 Zn1 1_555 1_555
O4IA Zn1GA 1_555 1_555
O5A C22A 1_555 1_555
O5B C22B 1_555 1_555
O5AA Zn2 1_555 1_555
O5BA Zn2 1_555 1_555
O5CA Zn2 1_555 1_555
Zn1B O4A 1_555 1_555
Zn1GA O2 1_555 1_555
Zn1_2 O4B 1_555 1_555
Zn1A O1A 1_555 1_555
Zn1A_2 O3 1_555 1_555
Zn1B_2 O3 1_555 1_555
Zn1B_3 O1B 1_555 1_555
Zn1HA O2B 1_555 1_555
Zn1IA O2A 1_555 1_555
Zn2GA O5 1_555 1_555
Zn2GA_2 O5A 1_555 1_555
Zn2GA_3 O5B 1_555 1_555
C6 C7 1_555 1_555
C12 C13 1_555 1_555
C18 C19 1_555 1_555
O4 Zn1A_2 1_555 1_555
C6A C7A 1_555 1_555
C6B C7B 1_555 1_555
C10A C20A 1_555 1_555
C12A C13A 1_555 1_555
C12B C13B 1_555 1_555
C18A C19A 1_555 1_555
C18B C19B 1_555 1_555
C20B C21A 1_555 1_555
C20B C21B 1_555 1_555
O3_2 Zn1A 1_555 1_555
O3GA Zn2GA 1_555 1_555

#END
