
#######################################################################
#
#                 Cambridge Crystallographic Data Centre
#                                CCDC 
#
#######################################################################
#
# If this CIF has been generated from an entry in the Cambridge 
# Structural Database, then it will include bibliographic, chemical, 
# crystal, experimental, refinement or atomic coordinate data resulting 
# from the CCDC's data processing and validation procedures.
#
#######################################################################

data_UZAFAD
_symmetry_cell_setting           triclinic
_symmetry_space_group_name_H-M   'P -1'
_symmetry_Int_Tables_number      2
_space_group_name_Hall           '-P 1'
loop_
_symmetry_equiv_pos_site_id
_symmetry_equiv_pos_as_xyz
1 x,y,z
2 -x,-y,-z
_cell_length_a                   10.400(5)
_cell_length_b                   11.803(5)
_cell_length_c                   13.937(5)
_cell_angle_alpha                71.845(5)
_cell_angle_beta                 71.975(5)
_cell_angle_gamma                85.855(5)
_cell_volume                     1545.28
loop_
_atom_site_label
_atom_site_type_symbol
_atom_site_fract_x
_atom_site_fract_y
_atom_site_fract_z
Ni1 Ni 1.0000 0.0000 1.5000
Ni2 Ni 0.57502(5) 0.30192(4) 0.74494(3)
C1 C 0.5437(4) 0.2065(4) 0.9718(3)
H1 H 0.4898 0.2717 0.9785
C2 C 0.6733(4) 0.0838(4) 0.9055(3)
H2 H 0.7273 0.0480 0.8567
C3 C 0.6463(4) 0.0397(4) 1.0126(3)
H3 H 0.6776 -0.0306 1.0501
C4 C 0.5058(4) 0.1150(4) 1.1660(3)
H4 H 0.4868 0.0324 1.2091
H5 H 0.4206 0.1559 1.1746
C5 C 0.5985(4) 0.1717(3) 1.2070(3)
C6 C 0.7273(4) 0.0972(4) 1.1971(3)
H6 H 0.7000 0.0135 1.2255
H7 H 0.7757 0.1128 1.1224
C7 C 0.8280(4) 0.0528(4) 1.3460(3)
H8 H 0.7661 -0.0079 1.3924
C8 C 0.9297(5) 0.1953(6) 1.2063(4)
H9 H 0.9535 0.2519 1.1397
C9 C 0.9961(5) 0.1738(5) 1.2790(4)
H10 H 1.0745 0.2142 1.2703
C10 C 0.6414(4) 0.3012(3) 1.1404(3)
H11 H 0.7209 0.3214 1.1547
H12 H 0.6677 0.3056 1.0662
C11 C 0.4216(4) 0.4121(4) 1.1318(3)
H13 H 0.3842 0.3669 1.1026
C12 C 0.3697(4) 0.5104(4) 1.1574(3)
H14 H 0.2888 0.5442 1.1489
C13 C 0.5553(4) 0.4802(4) 1.1964(3)
H15 H 0.6284 0.4882 1.2191
C14 C 0.5324(4) 0.1590(4) 1.3260(3)
H16 H 0.5528 0.0809 1.3670
H17 H 0.5749 0.2177 1.3429
C15 C 0.2955(4) 0.0826(4) 1.3934(3)
H18 H 0.3186 0.0067 1.3881
C16 C 0.3146(4) 0.2691(4) 1.3836(3)
H19 H 0.3498 0.3444 1.3711
C17 C 0.1827(4) 0.2324(4) 1.4279(3)
H20 H 0.1116 0.2796 1.4508
C18 C 0.8255(4) 0.4218(4) 0.5802(3)
C19 C 0.9698(4) 0.4631(4) 0.5467(3)
H21 H 1.0190 0.4351 0.5946
C20 C 0.5261(4) 0.1970(4) 0.6051(3)
C21 C 0.4538(4) 0.3162(4) 0.5863(3)
H22 H 0.4604 0.3480 0.5110
C22 C 0.3061(4) 0.2981(4) 0.6508(3)
H23 H 0.2645 0.2444 0.6280
H24 H 0.2622 0.3741 0.6353
C23 C 0.2790(5) 0.2483(4) 0.7699(4)
N1 N 0.6082(3) 0.1893(3) 0.8809(2)
N2 N 0.5638(3) 0.1196(3) 1.0541(2)
N3 N 0.8207(3) 0.1176(3) 1.2494(2)
N4 N 0.9313(3) 0.0840(3) 1.3676(2)
N5 N 0.4540(3) 0.5533(3) 1.1980(2)
N6 N 0.5404(3) 0.3914(3) 1.1574(2)
N7 N 0.1697(3) 0.1140(3) 1.4339(2)
N8 N 0.3854(3) 0.1732(3) 1.3611(2)
O1 O 0.7617(3) 0.4555(3) 0.5139(2)
O2 O 0.7778(3) 0.3572(3) 0.6747(2)
O3 O 0.6064(3) 0.1800(3) 0.6615(2)
O5 O 0.4991(4) 0.1238(3) 0.5666(3)
O6 O 0.1521(8) 0.2346(12) 0.8239(8)
O7 O 0.3682(3) 0.2494(3) 0.8125(2)
O8 O 1.1030(3) -0.1264(3) 1.4211(3)
H25 H 1.188(2) -0.142(5) 1.408(4)
H26 H 1.069(5) -0.139(5) 1.377(4)
O14 O 0.5132(3) 0.4019(2) 0.6154(2)
H33 H 0.593(3) 0.431(4) 0.573(3)
Ni1_2 Ni 0.0000 0.0000 1.5000
Ni1_3 Ni 2.0000 0.0000 1.5000
Ni2_2 Ni 1.57502(5) 0.30192(4) 0.74494(3)
Ni2A Ni 0.42498(5) 0.69808(4) 1.25506(3)
Ni2A_2 Ni 1.42498(5) 0.69808(4) 0.25506(3)
Ni2A_3 Ni 1.42498(5) 0.69808(4) 1.25506(3)
C1_2 C 1.5437(4) 0.2065(4) 0.9718(3)
H1_2 H 1.4898 0.2717 0.9785
C2_2 C 1.6733(4) 0.0838(4) 0.9055(3)
H2_2 H 1.7273 0.0480 0.8567
C3_2 C 1.6463(4) 0.0397(4) 1.0126(3)
H3_2 H 1.6776 -0.0306 1.0501
C4_2 C 1.5058(4) 0.1150(4) 1.1660(3)
H4_2 H 1.4868 0.0324 1.2091
H5_2 H 1.4206 0.1559 1.1746
C5_2 C 1.5985(4) 0.1717(3) 1.2070(3)
C6_2 C 1.7273(4) 0.0972(4) 1.1971(3)
H6_2 H 1.7000 0.0135 1.2255
H7_2 H 1.7757 0.1128 1.1224
C7_2 C 1.8280(4) 0.0528(4) 1.3460(3)
H8_2 H 1.7661 -0.0079 1.3924
C8_2 C 1.9297(5) 0.1953(6) 1.2063(4)
H9_2 H 1.9535 0.2519 1.1397
C9_2 C 1.9961(5) 0.1738(5) 1.2790(4)
H10_2 H 2.0745 0.2142 1.2703
C10_2 C 1.6414(4) 0.3012(3) 1.1404(3)
H11_2 H 1.7209 0.3214 1.1547
H12_2 H 1.6677 0.3056 1.0662
C11_2 C 1.4216(4) 0.4121(4) 1.1318(3)
H13_2 H 1.3842 0.3669 1.1026
C12_2 C 1.3697(4) 0.5104(4) 1.1574(3)
H14_2 H 1.2888 0.5442 1.1489
C13_2 C 1.5553(4) 0.4802(4) 1.1964(3)
H15_2 H 1.6284 0.4882 1.2191
C14_2 C 1.5324(4) 0.1590(4) 1.3260(3)
H16_2 H 1.5528 0.0809 1.3670
H17_2 H 1.5749 0.2177 1.3429
C15_2 C 1.2955(4) 0.0826(4) 1.3934(3)
H18_2 H 1.3186 0.0067 1.3881
C16_2 C 1.3146(4) 0.2691(4) 1.3836(3)
H19_2 H 1.3498 0.3444 1.3711
C17_2 C 1.1827(4) 0.2324(4) 1.4279(3)
H20_2 H 1.1116 0.2796 1.4508
C18A C 1.1745(4) 0.5782(4) 0.4198(3)
C19A C 1.0302(4) 0.5369(4) 0.4533(3)
H21A H 0.9810 0.5649 0.4054
C20_2 C 1.5261(4) 0.1970(4) 0.6051(3)
C21_2 C 1.4538(4) 0.3162(4) 0.5863(3)
H22_2 H 1.4604 0.3480 0.5110
C22_2 C 1.3061(4) 0.2981(4) 0.6508(3)
H23_2 H 1.2645 0.2444 0.6280
H24_2 H 1.2622 0.3741 0.6353
C23_2 C 1.2790(5) 0.2483(4) 0.7699(4)
N1_2 N 1.6082(3) 0.1893(3) 0.8809(2)
N2_2 N 1.5638(3) 0.1196(3) 1.0541(2)
N3_2 N 1.8207(3) 0.1176(3) 1.2494(2)
N4_2 N 1.9313(3) 0.0840(3) 1.3676(2)
N4A N 1.0687(3) -0.0840(3) 1.6324(2)
N5_2 N 1.4540(3) 0.5533(3) 1.1980(2)
N5A N 0.5460(3) 0.4467(3) 0.8020(2)
N5A_2 N 1.5460(3) 0.4467(3) 0.8020(2)
N6_2 N 1.5404(3) 0.3914(3) 1.1574(2)
N7_2 N 1.1697(3) 0.1140(3) 1.4339(2)
N7A N 0.8303(3) -0.1140(3) 1.5661(2)
N8_2 N 1.3854(3) 0.1732(3) 1.3611(2)
O1A O 1.2383(3) 0.5445(3) 0.4861(2)
O2A O 1.2222(3) 0.6428(3) 0.3253(2)
O2_2 O 1.7778(3) 0.3572(3) 0.6747(2)
O3_2 O 1.6064(3) 0.1800(3) 0.6615(2)
O5_2 O 1.4991(4) 0.1238(3) 0.5666(3)
O6_2 O 1.1521(8) 0.2346(12) 0.8239(8)
O7_2 O 1.3682(3) 0.2494(3) 0.8125(2)
O8A O 0.8970(3) 0.1264(3) 1.5789(3)
H25A H 0.812(2) 0.142(5) 1.592(4)
H26A H 0.931(5) 0.139(5) 1.623(4)
O14_2 O 1.5132(3) 0.4019(2) 0.6154(2)
H33_2 H 1.593(3) 0.431(4) 0.573(3)
O4 O 1.0300(5) -0.1833(5) 1.2721(4)
O9 O 0.2377(5) 0.2773(7) 1.0234(4)
H27 H 0.284(8) 0.303(9) 0.957(3)
H28 H 0.177(8) 0.235(8) 1.018(7)
O10 O 0.7872(11) 0.3777(10) 0.3400(8)
H29 H 0.709(6) 0.377(14) 0.339(14)
H30 H 0.831(13) 0.442(7) 0.314(14)
O11 O 0.0391(12) 0.0859(12) 1.0296(8)
H31 H 0.050(10) 0.041(6) 1.085(6)
O12 O 0.8749(12) 0.5115(11) 0.9886(10)
O13 O -0.101(2) 0.3004(18) 0.9160(15)
H32 H -0.086(16) 0.242(10) 0.966(9)
O15? O 1.0128(16) -0.1117(16) 1.2370(12)
O16? O 0.1709(13) 0.1865(10) 0.8195(10)
loop_
_geom_bond_atom_site_label_1
_geom_bond_atom_site_label_2
_geom_bond_site_symmetry_1
_geom_bond_site_symmetry_2
Ni1 N4 1_555 1_555
Ni2 N1 1_555 1_555
C1 H1 1_555 1_555
C2 H2 1_555 1_555
C3 C2 1_555 1_555
H3 C3 1_555 1_555
C4 H4 1_555 1_555
H5 C4 1_555 1_555
C5 C4 1_555 1_555
C6 C5 1_555 1_555
H6 C6 1_555 1_555
H7 C6 1_555 1_555
C7 H8 1_555 1_555
C8 H9 1_555 1_555
C9 C8 1_555 1_555
H10 C9 1_555 1_555
C10 C5 1_555 1_555
H11 C10 1_555 1_555
H12 C10 1_555 1_555
C11 H13 1_555 1_555
C12 C11 1_555 1_555
H14 C12 1_555 1_555
C13 H15 1_555 1_555
C14 C5 1_555 1_555
H16 C14 1_555 1_555
H17 C14 1_555 1_555
C15 H18 1_555 1_555
C16 H19 1_555 1_555
C17 C16 1_555 1_555
H20 C17 1_555 1_555
C18 C19 1_555 1_555
C19 H21 1_555 1_555
C20 C21 1_555 1_555
C21 H22 1_555 1_555
C22 C21 1_555 1_555
H23 C22 1_555 1_555
H24 C22 1_555 1_555
C23 C22 1_555 1_555
N1 C1 1_555 1_555
N2 C1 1_555 1_555
N3 C6 1_555 1_555
N4 C7 1_555 1_555
N5 C12 1_555 1_555
N6 C10 1_555 1_555
N7 C15 1_555 1_555
N8 C14 1_555 1_555
O1 C18 1_555 1_555
O2 Ni2 1_555 1_555
O3 Ni2 1_555 1_555
O5 C20 1_555 1_555
O6 C23 1_555 1_555
O7 Ni2 1_555 1_555
O8 Ni1 1_555 1_555
H25 O8 1_555 1_555
H26 O8 1_555 1_555
O9 H27 1_555 1_555
H28 O9 1_555 1_555
O10 H29 1_555 1_555
H30 O10 1_555 1_555
O11 H31 1_555 1_555
O13 H32 1_555 1_555
O14 Ni2 1_555 1_555
H33 O14 1_555 1_555
Ni1_2 N7 1_555 1_555
Ni1_3 N4_2 1_555 1_555
Ni2_2 N1_2 1_555 1_555
Ni2A N5 1_555 1_555
Ni2A_2 O2A 1_555 1_555
Ni2A_3 N5_2 1_555 1_555
C1_2 H1_2 1_555 1_555
C2_2 H2_2 1_555 1_555
C3_2 C2_2 1_555 1_555
H3_2 C3_2 1_555 1_555
C4_2 H4_2 1_555 1_555
H5_2 C4_2 1_555 1_555
C5_2 C4_2 1_555 1_555
C6_2 C5_2 1_555 1_555
H6_2 C6_2 1_555 1_555
H7_2 C6_2 1_555 1_555
C7_2 H8_2 1_555 1_555
C8_2 H9_2 1_555 1_555
C9_2 C8_2 1_555 1_555
H10_2 C9_2 1_555 1_555
C10_2 C5_2 1_555 1_555
H11_2 C10_2 1_555 1_555
H12_2 C10_2 1_555 1_555
C11_2 H13_2 1_555 1_555
C12_2 C11_2 1_555 1_555
H14_2 C12_2 1_555 1_555
C13_2 H15_2 1_555 1_555
C14_2 C5_2 1_555 1_555
H16_2 C14_2 1_555 1_555
H17_2 C14_2 1_555 1_555
C15_2 H18_2 1_555 1_555
C16_2 H19_2 1_555 1_555
C17_2 C16_2 1_555 1_555
H20_2 C17_2 1_555 1_555
C18A C19A 1_555 1_555
C19A C19 1_555 1_555
H21A C19A 1_555 1_555
C20_2 C21_2 1_555 1_555
C21_2 H22_2 1_555 1_555
C22_2 C21_2 1_555 1_555
H23_2 C22_2 1_555 1_555
H24_2 C22_2 1_555 1_555
C23_2 C22_2 1_555 1_555
N1_2 C1_2 1_555 1_555
N2_2 C1_2 1_555 1_555
N3_2 C6_2 1_555 1_555
N4_2 C7_2 1_555 1_555
N4A Ni1 1_555 1_555
N5_2 C12_2 1_555 1_555
N5A Ni2 1_555 1_555
N5A_2 Ni2_2 1_555 1_555
N6_2 C10_2 1_555 1_555
N7_2 Ni1 1_555 1_555
N7A Ni1 1_555 1_555
N8_2 C14_2 1_555 1_555
O1A C18A 1_555 1_555
O2A C18A 1_555 1_555
O2_2 Ni2_2 1_555 1_555
O3_2 Ni2_2 1_555 1_555
O5_2 C20_2 1_555 1_555
O6_2 C23_2 1_555 1_555
O7_2 Ni2_2 1_555 1_555
O8A Ni1 1_555 1_555
H25A O8A 1_555 1_555
H26A O8A 1_555 1_555
O14_2 Ni2_2 1_555 1_555
H33_2 O14_2 1_555 1_555
C2 N1 1_555 1_555
C3 N2 1_555 1_555
C4 N2 1_555 1_555
C7 N3 1_555 1_555
C8 N3 1_555 1_555
C9 N4 1_555 1_555
C11 N6 1_555 1_555
C13 N5 1_555 1_555
C13 N6 1_555 1_555
C15 N8 1_555 1_555
C16 N8 1_555 1_555
C17 N7 1_555 1_555
C18 O2 1_555 1_555
C20 O3 1_555 1_555
C21 O14 1_555 1_555
C23 O7 1_555 1_555
C2_2 N1_2 1_555 1_555
C3_2 N2_2 1_555 1_555
C4_2 N2_2 1_555 1_555
C7_2 N3_2 1_555 1_555
C8_2 N3_2 1_555 1_555
C9_2 N4_2 1_555 1_555
C11_2 N6_2 1_555 1_555
C13_2 N5_2 1_555 1_555
C13_2 N6_2 1_555 1_555
C15_2 N7_2 1_555 1_555
C15_2 N8_2 1_555 1_555
C16_2 N8_2 1_555 1_555
C17_2 N7_2 1_555 1_555
C20_2 O3_2 1_555 1_555
C21_2 O14_2 1_555 1_555
C23_2 O7_2 1_555 1_555

#END
