
#######################################################################
#
#                 Cambridge Crystallographic Data Centre
#                                CCDC 
#
#######################################################################
#
# If this CIF has been generated from an entry in the Cambridge 
# Structural Database, then it will include bibliographic, chemical, 
# crystal, experimental, refinement or atomic coordinate data resulting 
# from the CCDC's data processing and validation procedures.
#
#######################################################################

data_UZUNEJ
_symmetry_cell_setting           monoclinic
_symmetry_space_group_name_H-M   'C 2/c'
_symmetry_Int_Tables_number      15
_space_group_name_Hall           '-C 2yn'
loop_
_symmetry_equiv_pos_site_id
_symmetry_equiv_pos_as_xyz
1 x,y,z
2 -x,y,1/2-z
3 1/2+x,1/2+y,z
4 1/2-x,1/2+y,1/2-z
5 -x,-y,-z
6 x,-y,1/2+z
7 1/2-x,1/2-y,-z
8 1/2+x,1/2-y,1/2+z
_cell_length_a                   27.733(2)
_cell_length_b                   13.1588(9)
_cell_length_c                   8.6333(7)
_cell_angle_alpha                90
_cell_angle_beta                 95.217(6)
_cell_angle_gamma                90
_cell_volume                     3137.52
loop_
_atom_site_label
_atom_site_type_symbol
_atom_site_fract_x
_atom_site_fract_y
_atom_site_fract_z
C1 C 0.6155(3) 0.3181(5) 0.6955(9)
H1 H 0.6135 0.2489 0.6738
C2 C 0.5815(2) 0.3604(5) 0.7815(8)
H2 H 0.5576 0.3201 0.8193
C3 C 0.5832(2) 0.4651(5) 0.8119(8)
C4 C 0.6198(2) 0.5185(5) 0.7556(8)
H3 H 0.6223 0.5880 0.7740
C5 C 0.6535(2) 0.4711(5) 0.6715(8)
H4 H 0.6782 0.5093 0.6347
C6 C 0.5476(2) 0.5153(6) 0.8986(8)
H5 H 0.5489 0.5856 0.9086
C7 C 0.7096(2) 0.2347(4) 0.2243(7)
C8 C 0.6851(2) 0.2113(4) 0.0639(7)
H6 H 0.6507 0.2078 0.0696
H7 H 0.6915 0.2657 -0.0055
C9 C 0.7026(3) 0.1100(5) -0.0018(7)
H8 H 0.6871 0.0986 -0.1044
H9 H 0.7369 0.1133 -0.0088
C10 C 0.6915(3) 0.0223(4) 0.1028(8)
H10 H 0.7037 0.0383 0.2076
H11 H 0.6570 0.0151 0.1005
C11 C 0.7130(2) -0.0802(4) 0.0568(6)
N1 N 0.65110(18) 0.3705(4) 0.6418(6)
N2 N 0.51500(19) 0.4679(5) 0.9609(7)
O1 O 0.68468(18) 0.2794(3) 0.3213(5)
O2 O 0.68769(16) -0.1575(3) 0.0737(5)
O3 O 0.75222(17) 0.2055(3) 0.2552(5)
O4 O 0.75408(16) -0.0792(3) 0.0134(5)
Cu1 Cu 0.71063(2) 0.29575(5) 0.53855(8)
C1D C 0.3845(3) 0.6819(5) 1.3045(9)
H1D H 0.3865 0.7511 1.3262
C2D C 0.4185(2) 0.6396(5) 1.2185(8)
H2D H 0.4424 0.6799 1.1807
C3D C 0.4168(2) 0.5349(5) 1.1881(8)
C4D C 0.3802(2) 0.4815(5) 1.2444(8)
H3D H 0.3777 0.4120 1.2260
C5D C 0.3465(2) 0.5289(5) 1.3285(8)
H4D H 0.3218 0.4907 1.3653
C6D C 0.4524(2) 0.4847(6) 1.1014(8)
H5D H 0.4511 0.4144 1.0914
C7E C 0.7096(2) -0.2347(4) 0.7243(7)
C8E C 0.6851(2) -0.2113(4) 0.5639(7)
H6E H 0.6507 -0.2078 0.5696
H7E H 0.6915 -0.2657 0.4945
C9E C 0.7026(3) -0.1100(5) 0.4982(7)
H8E H 0.6871 -0.0986 0.3956
H9E H 0.7369 -0.1133 0.4912
C10E C 0.6915(3) -0.0223(4) 0.6028(8)
H10E H 0.7037 -0.0383 0.7076
H11E H 0.6570 -0.0151 0.6005
C11E C 0.7130(2) 0.0802(4) 0.5568(6)
N1D N 0.34890(18) 0.6295(4) 1.3582(6)
N2D N 0.48500(19) 0.5321(5) 1.0391(7)
O1E O 0.68468(18) -0.2794(3) 0.8213(5)
O1D O 0.31532(18) 0.7206(3) 1.6787(5)
O2E O 0.68769(16) 0.1575(3) 0.5737(5)
O2A O 0.31231(16) 0.8425(3) 1.4263(5)
O3E O 0.75222(17) -0.2055(3) 0.7552(5)
O3F O 0.74778(17) 0.2945(3) 0.7448(5)
O3B O 0.25222(17) 0.7055(3) 1.2552(5)
O4E O 0.75408(16) 0.0792(3) 0.5134(5)
O4C O 0.74592(16) 0.4208(3) 0.4866(5)
O4G O 0.25408(16) 0.5792(3) 1.5134(5)
Cu1D Cu 0.28937(2) 0.70425(5) 1.46145(8)
Cu1E Cu 0.71063(2) -0.29575(5) 0.03855(8)
Cu1F Cu 0.78937(2) 0.20425(5) 0.46145(8)
Cu1C Cu 0.78937(2) -0.20425(5) -0.03855(8)
Cu1E_2 Cu 0.71063(2) -0.29575(5) 1.03855(8)
Cu1C_2 Cu 0.78937(2) -0.20425(5) 0.96145(8)
loop_
_geom_bond_atom_site_label_1
_geom_bond_atom_site_label_2
_geom_bond_site_symmetry_1
_geom_bond_site_symmetry_2
C1 H1 1_555 1_555
C2 C1 1_555 1_555
H2 C2 1_555 1_555
C3 C2 1_555 1_555
C4 C3 1_555 1_555
H3 C4 1_555 1_555
C5 C4 1_555 1_555
H4 C5 1_555 1_555
C6 C3 1_555 1_555
H5 C6 1_555 1_555
C7 C8 1_555 1_555
C8 H6 1_555 1_555
H7 C8 1_555 1_555
C9 C8 1_555 1_555
H8 C9 1_555 1_555
H9 C9 1_555 1_555
C10 C9 1_555 1_555
H10 C10 1_555 1_555
H11 C10 1_555 1_555
C11 C10 1_555 1_555
N1 C1 1_555 1_555
N2 C6 1_555 1_555
O1 C7 1_555 1_555
O2 C11 1_555 1_555
O3 C7 1_555 1_555
O4 C11 1_555 1_555
Cu1 N1 1_555 1_555
C1D H1D 1_555 1_555
C2D C1D 1_555 1_555
H2D C2D 1_555 1_555
C3D C2D 1_555 1_555
C4D C3D 1_555 1_555
H3D C4D 1_555 1_555
C5D C4D 1_555 1_555
H4D C5D 1_555 1_555
C6D C3D 1_555 1_555
H5D C6D 1_555 1_555
C7E C8E 1_555 1_555
C8E H6E 1_555 1_555
H7E C8E 1_555 1_555
C9E C8E 1_555 1_555
H8E C9E 1_555 1_555
H9E C9E 1_555 1_555
C10E C9E 1_555 1_555
H10E C10E 1_555 1_555
H11E C10E 1_555 1_555
C11E C10E 1_555 1_555
N1D C1D 1_555 1_555
N2D N2 1_555 1_555
O1E C7E 1_555 1_555
O1D Cu1D 1_555 1_555
O2E Cu1 1_555 1_555
O2A Cu1D 1_555 1_555
O3E C7E 1_555 1_555
O3F Cu1 1_555 1_555
O3B Cu1D 1_555 1_555
O4E C11E 1_555 1_555
O4C Cu1 1_555 1_555
O4G Cu1D 1_555 1_555
Cu1D N1D 1_555 1_555
Cu1E O2 1_555 1_555
Cu1F O3 1_555 1_555
Cu1C O4 1_555 1_555
Cu1E_2 O1E 1_555 1_555
Cu1C_2 O3E 1_555 1_555
C5 N1 1_555 1_555
O1 Cu1 1_555 1_555
C5D N1D 1_555 1_555
C6D N2D 1_555 1_555
C11E O2E 1_555 1_555
O4E Cu1F 1_555 1_555

#END
