
#######################################################################
#
#                 Cambridge Crystallographic Data Centre
#                                CCDC 
#
#######################################################################
#
# If this CIF has been generated from an entry in the Cambridge 
# Structural Database, then it will include bibliographic, chemical, 
# crystal, experimental, refinement or atomic coordinate data resulting 
# from the CCDC's data processing and validation procedures.
#
#######################################################################

data_VAGKOF
_symmetry_cell_setting           monoclinic
_symmetry_space_group_name_H-M   'P 2/c'
_symmetry_Int_Tables_number      13
_space_group_name_Hall           '-P 2yc'
loop_
_symmetry_equiv_pos_site_id
_symmetry_equiv_pos_as_xyz
1 x,y,z
2 -x,y,1/2-z
3 -x,-y,-z
4 x,-y,1/2+z
_cell_length_a                   24.6440
_cell_length_b                   7.3820
_cell_length_c                   31.5780
_cell_angle_alpha                90
_cell_angle_beta                 90.17
_cell_angle_gamma                90
_cell_volume                     5744.71
loop_
_atom_site_label
_atom_site_type_symbol
_atom_site_fract_x
_atom_site_fract_y
_atom_site_fract_z
C1 C -0.13529 0.47247 0.29507
C2 C -0.10648 0.57276 0.33007
C3 C -0.04968 0.57137 0.33078
C4 C -0.13348 0.68490 0.35883
C5 C -0.10468 0.80716 0.38414
C6 C -0.02093 0.69128 0.35626
C7 C -0.04803 0.81976 0.38130
C8 C -0.01422 0.96936 0.40326
C9 C -0.05073 1.12504 0.42059
C10 C 0.01605 0.87380 0.43794
C11 C 0.02547 1.05900 0.37003
C12 C 0.01821 1.03995 0.32618
C13 C 0.05938 1.08587 0.29841
C14 C 0.10754 1.16241 0.31365
C15 C 0.11046 1.21323 0.35611
C16 C 0.07040 1.15824 0.38440
C17 C 0.15695 1.15509 0.28684
C18 C -0.66391 1.27283 0.30119
C19 C -0.61418 1.21682 0.32547
C20 C -0.58952 1.05165 0.31530
C21 C -0.59269 1.31841 0.35900
C22 C -0.54820 1.25537 0.38206
C23 C -0.54495 0.98933 0.33794
C24 C -0.52374 1.08985 0.37186
C25 C -0.47667 1.00551 0.39746
C26 C -0.44300 1.14967 0.42272
C27 C -0.50348 0.87435 0.43017
C28 C -0.43654 0.90858 0.36755
C29 C -0.41797 1.00519 0.33215
C30 C -0.37888 0.93215 0.30552
C31 C -0.37959 0.65621 0.34630
C32 C -0.41720 0.73215 0.37402
C33 C -0.35871 0.75745 0.31263
C34 C -0.31327 0.68172 0.28659
C35 C -0.28726 0.79191 0.14779
C36 C -0.28091 0.92875 0.11394
C37 C -0.31861 0.94260 0.08083
C38 C -0.30874 1.05866 0.04723
C39 C -0.22585 1.15852 0.08074
C40 C -0.26195 1.16714 0.04665
C41 C -0.23470 1.03767 0.11370
C42 C -0.25125 1.28145 0.00682
C43 C -0.19482 1.37891 0.00692
C44 C -0.29642 1.43031 0.00502
C45 C -0.25334 1.15272 -0.03146
C46 C -0.28101 1.18893 -0.06919
C47 C -0.28035 1.06277 -0.10183
C48 C -0.25117 0.90133 -0.09789
C49 C -0.22162 0.86783 -0.06084
C50 C -0.22345 0.99139 -0.02778
C51 C -0.25035 0.77566 -0.13442
Ca1 Ca -0.23527 0.54692 0.22935
Ca2 Ca 0.24670 1.08266 0.23136
F1 F -0.02144 1.26385 0.43716
F2 F -0.08101 1.19549 0.38833
F3 F -0.08582 1.07082 0.45138
F4 F 0.03987 0.99162 0.46533
F5 F -0.01653 0.76605 0.46314
F6 F 0.05645 0.76577 0.42260
F7 F -0.46771 0.80690 0.45909
F8 F -0.54366 0.95759 0.45226
F9 F -0.52680 0.72998 0.41017
F10 F -0.47065 1.22595 0.45548
F11 F -0.39703 1.07694 0.43944
F12 F -0.42721 1.28819 0.39688
F13 F -0.34820 1.35843 -0.00405
F14 F -0.28903 1.56057 -0.02457
F15 F -0.30116 1.51589 0.04293
F16 F -0.19137 1.51346 0.03641
F17 F -0.18635 1.45454 -0.03136
F18 F -0.15320 1.26169 0.01469
H1 H -0.02828 0.48014 0.30949
H2 H -0.17758 0.68175 0.36078
H3 H -0.12747 0.89456 0.40530
H4 H 0.02219 0.69041 0.35253
H5 H -0.01763 0.97885 0.31600
H6 H 0.05513 1.05790 0.26473
H7 H 0.14598 1.28684 0.36720
H8 H 0.07561 1.18836 0.41784
H9 H -0.60630 0.97076 0.28963
H10 H -0.61094 1.44649 0.36825
H11 H -0.53346 1.33709 0.40831
H12 H -0.52673 0.86029 0.32929
H13 H -0.43354 1.14021 0.32545
H14 H -0.36399 1.01258 0.27907
H15 H -0.36482 0.51875 0.35135
H16 H -0.43075 0.65131 0.40071
H17 H -0.35478 0.85834 0.08102
H18 H -0.33721 1.06146 0.02087
H19 H -0.18955 1.24138 0.08118
H20 H -0.20502 1.02295 0.13900
H21 H -0.30372 1.31365 -0.07358
H22 H -0.30282 1.08826 -0.13086
H23 H -0.19777 0.74486 -0.05800
H24 H -0.20146 0.96136 0.00131
H25 H 0.14426 1.04042 0.20635
H26 H 0.15458 0.96432 0.16098
H27 H -0.12142 0.58443 0.22800
H28 H -0.14211 0.78818 0.21954
H29 H -0.32807 0.57827 0.16446
H30 H -0.21152 0.57329 -0.15928
O1 O -0.18819 0.46818 0.29499
O2 O -0.10668 0.41124 0.26553
O3 O 0.15971 1.01562 0.26239
O4 O 0.19640 1.26534 0.28994
O5 O 0.16745 1.05440 0.18130
O6 O -0.68221 1.16480 0.27364
O7 O -0.68699 1.42496 0.30937
O8 O -0.30925 0.51390 0.28114
O9 O -0.27824 0.79438 0.27070
O10 O -0.14742 0.65956 0.21191
O11 O -0.25274 0.77273 0.17642
O12 O -0.33123 0.69096 0.14425
O13 O -0.27470 0.81374 -0.16788
O14 O -0.22150 0.62697 -0.12960
Ca1A Ca 0.23527 1.54692 0.27065
Ca1A_2 Ca -0.76473 1.54692 0.27065
Ca2_2 Ca -0.75330 1.08266 0.23136
Ca2A Ca -0.24670 1.08266 0.26864
Ca2B Ca -0.24670 0.91734 -0.23136
O4A O -0.19640 0.26534 0.21006
O6_2 O 0.31779 1.16480 0.27364
O7A O -0.31301 0.42496 0.19063
O9A O 0.27824 0.79438 0.22930
O13B O 0.27470 1.18626 0.16788
loop_
_geom_bond_atom_site_label_1
_geom_bond_atom_site_label_2
_geom_bond_site_symmetry_1
_geom_bond_site_symmetry_2
C1 C2 1_555 1_555
C2 C3 1_555 1_555
C3 C6 1_555 1_555
C4 C2 1_555 1_555
C5 C4 1_555 1_555
C6 C7 1_555 1_555
C7 C5 1_555 1_555
C8 C7 1_555 1_555
C9 C8 1_555 1_555
C10 C8 1_555 1_555
C11 C8 1_555 1_555
C12 C11 1_555 1_555
C13 C12 1_555 1_555
C14 C13 1_555 1_555
C15 C14 1_555 1_555
C16 C11 1_555 1_555
C17 C14 1_555 1_555
C18 C19 1_555 1_555
C19 C20 1_555 1_555
C20 C23 1_555 1_555
C21 C19 1_555 1_555
C22 C21 1_555 1_555
C23 C24 1_555 1_555
C24 C22 1_555 1_555
C25 C24 1_555 1_555
C26 C25 1_555 1_555
C27 C25 1_555 1_555
C28 C25 1_555 1_555
C29 C28 1_555 1_555
C30 C29 1_555 1_555
C31 C32 1_555 1_555
C32 C28 1_555 1_555
C33 C30 1_555 1_555
C34 C33 1_555 1_555
C35 C36 1_555 1_555
C36 C37 1_555 1_555
C37 C38 1_555 1_555
C38 C40 1_555 1_555
C39 C40 1_555 1_555
C40 C42 1_555 1_555
C41 C36 1_555 1_555
C42 C43 1_555 1_555
C43 F16 1_555 1_555
C44 C42 1_555 1_555
C45 C42 1_555 1_555
C46 C45 1_555 1_555
C47 C46 1_555 1_555
C48 C47 1_555 1_555
C49 C48 1_555 1_555
C50 C45 1_555 1_555
C51 C48 1_555 1_555
Ca1 O1 1_555 1_555
Ca2 O3 1_555 1_555
F1 C9 1_555 1_555
F2 C9 1_555 1_555
F3 C9 1_555 1_555
F4 C10 1_555 1_555
F5 C10 1_555 1_555
F6 C10 1_555 1_555
F7 C27 1_555 1_555
F8 C27 1_555 1_555
F9 C27 1_555 1_555
F10 C26 1_555 1_555
F11 C26 1_555 1_555
F12 C26 1_555 1_555
F13 C44 1_555 1_555
F14 C44 1_555 1_555
F15 C44 1_555 1_555
F17 C43 1_555 1_555
F18 C43 1_555 1_555
H1 C3 1_555 1_555
H2 C4 1_555 1_555
H3 C5 1_555 1_555
H4 C6 1_555 1_555
H5 C12 1_555 1_555
H6 C13 1_555 1_555
H7 C15 1_555 1_555
H8 C16 1_555 1_555
H9 C20 1_555 1_555
H10 C21 1_555 1_555
H11 C22 1_555 1_555
H12 C23 1_555 1_555
H13 C29 1_555 1_555
H14 C30 1_555 1_555
H15 C31 1_555 1_555
H16 C32 1_555 1_555
H17 C37 1_555 1_555
H18 C38 1_555 1_555
H19 C39 1_555 1_555
H20 C41 1_555 1_555
H21 C46 1_555 1_555
H22 C47 1_555 1_555
H23 C49 1_555 1_555
H24 C50 1_555 1_555
H25 O5 1_555 1_555
H26 O5 1_555 1_555
H27 O10 1_555 1_555
H28 O10 1_555 1_555
H29 O12 1_555 1_555
H30 O14 1_555 1_555
O1 C1 1_555 1_555
O2 C1 1_555 1_555
O3 C17 1_555 1_555
O4 C17 1_555 1_555
O5 Ca2 1_555 1_555
O6 C18 1_555 1_555
O7 C18 1_555 1_555
O8 C34 1_555 1_555
O9 C34 1_555 1_555
O10 Ca1 1_555 1_555
O11 C35 1_555 1_555
O12 C35 1_555 1_555
O13 C51 1_555 1_555
O14 C51 1_555 1_555
Ca1A O4 1_555 1_555
Ca1A_2 O7 1_555 1_555
Ca2_2 O6 1_555 1_555
Ca2A O9 1_555 1_555
Ca2B O13 1_555 1_555
O4A Ca1 1_555 1_555
O6_2 Ca2 1_555 1_555
O7A Ca1 1_555 1_555
O9A Ca2 1_555 1_555
O13B Ca2 1_555 1_555
C15 C16 1_555 1_555
C31 C33 1_555 1_555
C39 C41 1_555 1_555
C49 C50 1_555 1_555
Ca1 O8 1_555 1_555
Ca1 O9 1_555 1_555
Ca1 O11 1_555 1_555
Ca2 O4 1_555 1_555

#END
