
#######################################################################
#
#                 Cambridge Crystallographic Data Centre
#                                CCDC 
#
#######################################################################
#
# If this CIF has been generated from an entry in the Cambridge 
# Structural Database, then it will include bibliographic, chemical, 
# crystal, experimental, refinement or atomic coordinate data resulting 
# from the CCDC's data processing and validation procedures.
#
#######################################################################

data_VAHQAY
_symmetry_cell_setting           tetragonal
_symmetry_space_group_name_H-M   'I -4'
_symmetry_Int_Tables_number      82
_space_group_name_Hall           'I -4'
loop_
_symmetry_equiv_pos_site_id
_symmetry_equiv_pos_as_xyz
1 x,y,z
2 -x,-y,z
3 y,-x,-z
4 -y,x,-z
5 1/2+x,1/2+y,1/2+z
6 1/2-x,1/2-y,1/2+z
7 1/2+y,1/2-x,1/2-z
8 1/2-y,1/2+x,1/2-z
_cell_length_a                   25.4550(8)
_cell_length_b                   25.4550(8)
_cell_length_c                   15.9224(9)
_cell_angle_alpha                90
_cell_angle_beta                 90
_cell_angle_gamma                90
_cell_volume                     10317
loop_
_atom_site_label
_atom_site_type_symbol
_atom_site_fract_x
_atom_site_fract_y
_atom_site_fract_z
Er1 Er -0.090443(7) -0.292337(7) -0.498045(15)
Cu1 Cu 0.20223(2) 0.11153(3) -0.24883(4)
C1 C -0.0257(2) -0.3668(2) -0.5629(4)
C2 C 0.0195(3) -0.4020(2) -0.5839(4)
C3 C 0.0359(5) -0.4395(4) -0.5304(7)
H1 H 0.0185 -0.4442 -0.4796
C4 C 0.0785(5) -0.4711(5) -0.5504(6)
H2 H 0.0889 -0.4970 -0.5127
C5 C 0.0472(3) -0.3944(3) -0.6569(4)
H3 H 0.0372 -0.3679 -0.6937
C6 C 0.0896(3) -0.4255(2) -0.6763(4)
H4 H 0.1079 -0.4196 -0.7259
C7 C 0.1056(3) -0.4653(3) -0.6237(4)
C8 C 0.1513(2) -0.4986(2) -0.6446(4)
C9 C 0.1961(3) -0.4784(2) -0.6822(4)
H5 H 0.1992 -0.4424 -0.6913
C10 C 0.2354(3) -0.5113(2) -0.7058(4)
H6 H 0.2649 -0.4965 -0.7311
C11 C 0.1505(3) -0.5529(3) -0.6321(4)
H7 H 0.1220 -0.5688 -0.6058
C12 C 0.1920(3) -0.5825(2) -0.6588(4)
H8 H 0.1901 -0.6187 -0.6510
C13 C -0.1409(3) -0.3139(3) -0.3525(3)
C14 C -0.1670(2) -0.3219(2) -0.2698(3)
C15 C -0.2204(2) -0.3260(3) -0.2603(3)
H9 H -0.2420 -0.3228 -0.3071
C16 C -0.2427(3) -0.3349(3) -0.1822(4)
H10 H -0.2790 -0.3379 -0.1771
C17 C -0.1349(3) -0.3266(4) -0.1994(4)
H11 H -0.0987 -0.3238 -0.2050
C18 C -0.1568(3) -0.3354(4) -0.1218(4)
H12 H -0.1349 -0.3387 -0.0752
C19 C -0.2110(2) -0.3393(2) -0.1114(3)
C20 C -0.2325(2) -0.3496(2) -0.0271(3)
C21 C -0.27830(17) -0.32592(18) 0.0027(4)
H13 H -0.2976 -0.3039 -0.0323
C22 C -0.2950(2) -0.3350(2) 0.0836(3)
H14 H -0.3253 -0.3182 0.1023
C23 C -0.2082(2) -0.3838(3) 0.0273(3)
H15 H -0.1784 -0.4021 0.0101
C24 C -0.2276(2) -0.3912(3) 0.1066(3)
H16 H -0.2101 -0.4147 0.1414
C25 C -0.1284(2) -0.2555(2) -0.6458(3)
C26 C -0.1374(2) -0.2400(2) -0.7345(3)
C27 C -0.1132(2) -0.1950(2) -0.7653(3)
H17 H -0.0922 -0.1749 -0.7300
C28 C -0.1200(3) -0.1800(2) -0.8477(4)
H18 H -0.1029 -0.1503 -0.8679
C29 C -0.1691(2) -0.2692(2) -0.7866(3)
H19 H -0.1858 -0.2991 -0.7664
C30 C -0.1759(2) -0.2538(2) -0.8696(3)
H20 H -0.1969 -0.2739 -0.9049
C31 C -0.1522(2) -0.2091(2) -0.9007(3)
C32 C -0.16103(19) -0.19245(19) -0.9890(3)
C33 C -0.1217(2) -0.1704(3) -1.0369(4)
H21 H -0.0880 -0.1670 -1.0151
C34 C -0.1328(2) -0.1531(3) -1.1175(4)
H22 H -0.1058 -0.1380 -1.1486
C35 C -0.2098(2) -0.1984(2) -1.0258(3)
H23 H -0.2372 -0.2140 -0.9961
C36 C -0.2177(2) -0.1808(2) -1.1069(4)
H24 H -0.2507 -0.1855 -1.1310
C37 C -0.0349(2) -0.2128(2) -0.4305(3)
C38 C -0.0033(2) -0.1672(2) -0.4022(3)
C39 C -0.0262(2) -0.1247(2) -0.3620(4)
H25 H -0.0621 -0.1249 -0.3513
C40 C 0.0035(2) -0.0821(2) -0.3377(4)
H26 H -0.0123 -0.0543 -0.3095
C41 C 0.0500(2) -0.1660(2) -0.4181(3)
H27 H 0.0660 -0.1945 -0.4440
C42 C 0.0799(2) -0.1227(2) -0.3957(3)
H28 H 0.1156 -0.1218 -0.4081
C43 C 0.0566(2) -0.0807(2) -0.3549(3)
C44 C 0.0887(2) -0.0349(2) -0.3297(3)
C45 C 0.0861(2) -0.0139(2) -0.2489(3)
H29 H 0.0635 -0.0284 -0.2092
C46 C 0.1171(2) 0.0284(2) -0.2285(3)
H30 H 0.1151 0.0413 -0.1739
C47 C 0.1236(3) -0.0113(3) -0.3842(4)
H31 H 0.1278 -0.0244 -0.4384
C48 C 0.1522(3) 0.0312(3) -0.3587(3)
H32 H 0.1748 0.0466 -0.3973
O1 O -0.0333(2) -0.3264(2) -0.6047(3)
O2 O -0.0549(2) -0.37729(17) -0.5017(5)
O3 O -0.09206(17) -0.3176(2) -0.3572(2)
O4 O -0.16778(17) -0.3045(2) -0.4178(2)
O5 O -0.14889(18) -0.29638(19) -0.6155(3)
O6 O -0.0999(2) -0.22722(18) -0.6008(3)
O7 O -0.08491(14) -0.21108(17) -0.4246(3)
O8 O -0.01239(15) -0.25209(16) -0.4623(2)
N1 N 0.23496(19) -0.56308(18) -0.6953(3)
N2 N -0.26952(17) -0.36732(17) 0.1370(2)
N3 N -0.18023(19) -0.1572(2) -1.1527(3)
N4 N 0.14971(18) 0.05227(19) -0.2815(3)
Cu1D Cu -0.29777(2) -0.38847(3) 0.25117(4)
Cu1A Cu -0.20223(2) -0.11153(3) -1.24883(4)
Cu1E Cu 0.29777(2) -0.61153(3) -0.74883(4)
N1E N 0.26504(19) 0.06308(18) -0.1953(3)
N2D N 0.23048(17) 0.13268(17) -0.3630(2)
N3A N 0.18023(19) 0.1572(2) -0.1527(3)
Er2 Er 0.0000 0.0000 0.0000
Cu2 Cu 0.0000 0.5000 -0.2500
C49 C 0.1003(3) 0.0180(3) 0.0504(4)
C50 C 0.1559(2) 0.0264(3) 0.0790(4)
C51 C 0.1678(3) 0.0273(4) 0.1619(4)
H33 H 0.1409 0.0251 0.2013
C52 C 0.2196(3) 0.0314(5) 0.1892(5)
H34 H 0.2267 0.0326 0.2465
C53 C 0.1963(3) 0.0311(4) 0.0219(4)
H35 H 0.1890 0.0321 -0.0354
C54 C 0.2472(3) 0.0342(4) 0.0492(5)
H36 H 0.2741 0.0367 0.0100
C55 C 0.2594(3) 0.0338(3) 0.1341(4)
C56 C 0.3154(3) 0.0325(3) 0.1638(4)
C57 C 0.3292(4) 0.0124(4) 0.2394(5)
H37 H 0.3035 0.0027 0.2778
C58 C 0.3822(3) 0.0065(4) 0.2594(6)
H38 H 0.3903 -0.0075 0.3119
C59 C 0.3546(3) 0.0521(4) 0.1165(5)
H39 H 0.3470 0.0699 0.0670
C60 C 0.4075(3) 0.0458(4) 0.1424(5)
H40 H 0.4336 0.0614 0.1100
O9 O 0.06442(18) 0.0113(2) 0.1038(3)
O10 O 0.0900(2) 0.0175(3) -0.0266(3)
N5 N 0.4222(2) 0.0192(3) 0.2094(4)
Cu2B Cu -0.5000 0.0000 0.2500
Cu2_2 Cu 0.0000 -0.5000 -0.2500
Cu2B_2 Cu 0.5000 0.0000 0.2500
C49A C -0.1003(3) -0.0180(3) 0.0504(4)
C49B C 0.0180(3) -0.1003(3) -0.0504(4)
C49C C -0.0180(3) 0.1003(3) -0.0504(4)
C50A C -0.1559(2) -0.0264(3) 0.0790(4)
C50B C 0.0264(3) -0.1559(2) -0.0790(4)
C50C C -0.0264(3) 0.1559(2) -0.0790(4)
C51A C -0.1678(3) -0.0273(4) 0.1619(4)
C51B C 0.0273(4) -0.1678(3) -0.1619(4)
C51C C -0.0273(4) 0.1678(3) -0.1619(4)
H33A H -0.1409 -0.0251 0.2013
H33B H 0.0251 -0.1409 -0.2013
H33C H -0.0251 0.1409 -0.2013
C52A C -0.2196(3) -0.0314(5) 0.1892(5)
C52B C 0.0314(5) -0.2196(3) -0.1892(5)
C52C C -0.0314(5) 0.2196(3) -0.1892(5)
H34A H -0.2267 -0.0326 0.2465
H34B H 0.0326 -0.2267 -0.2465
H34C H -0.0326 0.2267 -0.2465
C53A C -0.1963(3) -0.0311(4) 0.0219(4)
C53B C 0.0311(4) -0.1963(3) -0.0219(4)
C53C C -0.0311(4) 0.1963(3) -0.0219(4)
H35A H -0.1890 -0.0321 -0.0354
H35B H 0.0321 -0.1890 0.0354
H35C H -0.0321 0.1890 0.0354
C54A C -0.2472(3) -0.0342(4) 0.0492(5)
C54B C 0.0342(4) -0.2472(3) -0.0492(5)
C54C C -0.0342(4) 0.2472(3) -0.0492(5)
H36A H -0.2741 -0.0367 0.0100
H36B H 0.0367 -0.2741 -0.0100
H36C H -0.0367 0.2741 -0.0100
C55A C -0.2594(3) -0.0338(3) 0.1341(4)
C55B C 0.0338(3) -0.2594(3) -0.1341(4)
C55C C -0.0338(3) 0.2594(3) -0.1341(4)
C56A C -0.3154(3) -0.0325(3) 0.1638(4)
C56B C 0.0325(3) -0.3154(3) -0.1638(4)
C56C C -0.0325(3) 0.3154(3) -0.1638(4)
C57A C -0.3292(4) -0.0124(4) 0.2394(5)
C57B C 0.0124(4) -0.3292(4) -0.2394(5)
C57C C -0.0124(4) 0.3292(4) -0.2394(5)
H37A H -0.3035 -0.0027 0.2778
H37B H 0.0027 -0.3035 -0.2778
H37C H -0.0027 0.3035 -0.2778
C58A C -0.3822(3) -0.0065(4) 0.2594(6)
C58B C 0.0065(4) -0.3822(3) -0.2594(6)
C58C C -0.0065(4) 0.3822(3) -0.2594(6)
H38A H -0.3903 0.0075 0.3119
H38B H -0.0075 -0.3903 -0.3119
H38C H 0.0075 0.3903 -0.3119
C59A C -0.3546(3) -0.0521(4) 0.1165(5)
C59B C 0.0521(4) -0.3546(3) -0.1165(5)
C59C C -0.0521(4) 0.3546(3) -0.1165(5)
H39A H -0.3470 -0.0699 0.0670
H39B H 0.0699 -0.3470 -0.0670
H39C H -0.0699 0.3470 -0.0670
C60A C -0.4075(3) -0.0458(4) 0.1424(5)
C60B C 0.0458(4) -0.4075(3) -0.1424(5)
C60C C -0.0458(4) 0.4075(3) -0.1424(5)
H40A H -0.4336 -0.0614 0.1100
H40B H 0.0614 -0.4336 -0.1100
H40C H -0.0614 0.4336 -0.1100
O9A O -0.06442(18) -0.0113(2) 0.1038(3)
O9B O 0.0113(2) -0.06442(18) -0.1038(3)
O9C O -0.0113(2) 0.06442(18) -0.1038(3)
O10A O -0.0900(2) -0.0175(3) -0.0266(3)
O10B O 0.0175(3) -0.0900(2) 0.0266(3)
O10C O -0.0175(3) 0.0900(2) 0.0266(3)
N5A N -0.4222(2) -0.0192(3) 0.2094(4)
N5B N 0.0192(3) -0.4222(2) -0.2094(4)
N5C N -0.0192(3) 0.4222(2) -0.2094(4)
N5B_2 N 0.0192(3) 0.5778(2) -0.2094(4)
N5D N -0.0778(2) 0.5192(3) -0.2906(4)
N5E N 0.0778(2) 0.4808(3) -0.2906(4)
loop_
_geom_bond_atom_site_label_1
_geom_bond_atom_site_label_2
_geom_bond_site_symmetry_1
_geom_bond_site_symmetry_2
Er1 O1 1_555 1_555
Cu1 N4 1_555 1_555
C1 C2 1_555 1_555
C2 C3 1_555 1_555
C3 H1 1_555 1_555
C4 C3 1_555 1_555
H2 C4 1_555 1_555
C5 C2 1_555 1_555
H3 C5 1_555 1_555
C6 C5 1_555 1_555
H4 C6 1_555 1_555
C7 C4 1_555 1_555
C8 C7 1_555 1_555
C9 C8 1_555 1_555
H5 C9 1_555 1_555
C10 C9 1_555 1_555
H6 C10 1_555 1_555
C11 C8 1_555 1_555
H7 C11 1_555 1_555
C12 C11 1_555 1_555
H8 C12 1_555 1_555
C13 C14 1_555 1_555
C14 C15 1_555 1_555
C15 H9 1_555 1_555
C16 C15 1_555 1_555
H10 C16 1_555 1_555
C17 C14 1_555 1_555
H11 C17 1_555 1_555
C18 C17 1_555 1_555
H12 C18 1_555 1_555
C19 C16 1_555 1_555
C20 C19 1_555 1_555
C21 C20 1_555 1_555
H13 C21 1_555 1_555
C22 C21 1_555 1_555
H14 C22 1_555 1_555
C23 C20 1_555 1_555
H15 C23 1_555 1_555
C24 C23 1_555 1_555
H16 C24 1_555 1_555
C25 C26 1_555 1_555
C26 C27 1_555 1_555
C27 H17 1_555 1_555
C28 C27 1_555 1_555
H18 C28 1_555 1_555
C29 C26 1_555 1_555
H19 C29 1_555 1_555
C30 C29 1_555 1_555
H20 C30 1_555 1_555
C31 C28 1_555 1_555
C32 C31 1_555 1_555
C33 C32 1_555 1_555
H21 C33 1_555 1_555
C34 C33 1_555 1_555
H22 C34 1_555 1_555
C35 C32 1_555 1_555
H23 C35 1_555 1_555
C36 C35 1_555 1_555
H24 C36 1_555 1_555
C37 C38 1_555 1_555
C38 C39 1_555 1_555
C39 H25 1_555 1_555
C40 C39 1_555 1_555
H26 C40 1_555 1_555
C41 C38 1_555 1_555
H27 C41 1_555 1_555
C42 C41 1_555 1_555
H28 C42 1_555 1_555
C43 C40 1_555 1_555
C44 C43 1_555 1_555
C45 C44 1_555 1_555
H29 C45 1_555 1_555
C46 C45 1_555 1_555
H30 C46 1_555 1_555
C47 C44 1_555 1_555
H31 C47 1_555 1_555
C48 C47 1_555 1_555
H32 C48 1_555 1_555
O1 C1 1_555 1_555
O2 Er1 1_555 1_555
O3 Er1 1_555 1_555
O4 Er1 1_555 1_555
O5 Er1 1_555 1_555
O6 Er1 1_555 1_555
O7 Er1 1_555 1_555
O8 Er1 1_555 1_555
N1 C10 1_555 1_555
N2 C22 1_555 1_555
N3 C34 1_555 1_555
N4 C46 1_555 1_555
Er2 O9 1_555 1_555
Cu2 N5C 1_555 1_555
C49 C50 1_555 1_555
C50 C51 1_555 1_555
C51 H33 1_555 1_555
C52 C51 1_555 1_555
H34 C52 1_555 1_555
C53 C50 1_555 1_555
H35 C53 1_555 1_555
C54 C53 1_555 1_555
H36 C54 1_555 1_555
C55 C52 1_555 1_555
C56 C55 1_555 1_555
C57 C56 1_555 1_555
H37 C57 1_555 1_555
C58 C57 1_555 1_555
H38 C58 1_555 1_555
C59 C56 1_555 1_555
H39 C59 1_555 1_555
C60 C59 1_555 1_555
H40 C60 1_555 1_555
O9 C49 1_555 1_555
O10 Er2 1_555 1_555
N5 C58 1_555 1_555
Cu1D N2 1_555 1_555
Cu1A N3 1_555 1_555
Cu1E N1 1_555 1_555
N1E Cu1 1_555 1_555
N2D Cu1 1_555 1_555
N3A Cu1 1_555 1_555
Cu2B N5A 1_555 1_555
Cu2_2 N5B 1_555 1_555
Cu2B_2 N5 1_555 1_555
C49A C50A 1_555 1_555
C49B C50B 1_555 1_555
C49C C50C 1_555 1_555
C50A C51A 1_555 1_555
C50B C51B 1_555 1_555
C50C C51C 1_555 1_555
C51A H33A 1_555 1_555
C51B H33B 1_555 1_555
C51C H33C 1_555 1_555
C52A C51A 1_555 1_555
C52B C51B 1_555 1_555
C52C C51C 1_555 1_555
H34A C52A 1_555 1_555
H34B C52B 1_555 1_555
H34C C52C 1_555 1_555
C53A C50A 1_555 1_555
C53B C50B 1_555 1_555
C53C C50C 1_555 1_555
H35A C53A 1_555 1_555
H35B C53B 1_555 1_555
H35C C53C 1_555 1_555
C54A C53A 1_555 1_555
C54B C53B 1_555 1_555
C54C C53C 1_555 1_555
H36A C54A 1_555 1_555
H36B C54B 1_555 1_555
H36C C54C 1_555 1_555
C55A C52A 1_555 1_555
C55B C52B 1_555 1_555
C55C C52C 1_555 1_555
C56A C55A 1_555 1_555
C56B C55B 1_555 1_555
C56C C55C 1_555 1_555
C57A C56A 1_555 1_555
C57B C56B 1_555 1_555
C57C C56C 1_555 1_555
H37A C57A 1_555 1_555
H37B C57B 1_555 1_555
H37C C57C 1_555 1_555
C58A C57A 1_555 1_555
C58B C57B 1_555 1_555
C58C C57C 1_555 1_555
H38A C58A 1_555 1_555
H38B C58B 1_555 1_555
H38C C58C 1_555 1_555
C59A C56A 1_555 1_555
C59B C56B 1_555 1_555
C59C C56C 1_555 1_555
H39A C59A 1_555 1_555
H39B C59B 1_555 1_555
H39C C59C 1_555 1_555
C60A C59A 1_555 1_555
C60B C59B 1_555 1_555
C60C C59C 1_555 1_555
H40A C60A 1_555 1_555
H40B C60B 1_555 1_555
H40C C60C 1_555 1_555
O9A Er2 1_555 1_555
O9B Er2 1_555 1_555
O9C Er2 1_555 1_555
O10A Er2 1_555 1_555
O10B Er2 1_555 1_555
O10C Er2 1_555 1_555
N5A C58A 1_555 1_555
N5B C58B 1_555 1_555
N5C C58C 1_555 1_555
N5B_2 Cu2 1_555 1_555
N5D Cu2 1_555 1_555
N5E Cu2 1_555 1_555
C1 O2 1_555 1_555
C6 C7 1_555 1_555
C12 N1 1_555 1_555
C13 O3 1_555 1_555
C13 O4 1_555 1_555
C18 C19 1_555 1_555
C24 N2 1_555 1_555
C25 O5 1_555 1_555
C25 O6 1_555 1_555
C30 C31 1_555 1_555
C36 N3 1_555 1_555
C37 O7 1_555 1_555
C37 O8 1_555 1_555
C42 C43 1_555 1_555
C48 N4 1_555 1_555
C49 O10 1_555 1_555
C54 C55 1_555 1_555
C60 N5 1_555 1_555
C49A O9A 1_555 1_555
C49A O10A 1_555 1_555
C49B O9B 1_555 1_555
C49B O10B 1_555 1_555
C49C O9C 1_555 1_555
C49C O10C 1_555 1_555
C54A C55A 1_555 1_555
C54B C55B 1_555 1_555
C54C C55C 1_555 1_555
C60A N5A 1_555 1_555
C60B N5B 1_555 1_555
C60C N5C 1_555 1_555

#END
