
#######################################################################
#
#                 Cambridge Crystallographic Data Centre
#                                CCDC 
#
#######################################################################
#
# If this CIF has been generated from an entry in the Cambridge 
# Structural Database, then it will include bibliographic, chemical, 
# crystal, experimental, refinement or atomic coordinate data resulting 
# from the CCDC's data processing and validation procedures.
#
#######################################################################

data_VAPFUP
_symmetry_cell_setting           triclinic
_symmetry_space_group_name_H-M   'P -1'
_symmetry_Int_Tables_number      2
_space_group_name_Hall           '-P 1'
loop_
_symmetry_equiv_pos_site_id
_symmetry_equiv_pos_as_xyz
1 x,y,z
2 -x,-y,-z
_cell_length_a                   7.072(2)
_cell_length_b                   10.385(4)
_cell_length_c                   12.842(4)
_cell_angle_alpha                100.695(6)
_cell_angle_beta                 91.181(6)
_cell_angle_gamma                94.614(6)
_cell_volume                     923.156
loop_
_atom_site_label
_atom_site_type_symbol
_atom_site_fract_x
_atom_site_fract_y
_atom_site_fract_z
Pt1 Pt 0.21679(10) 1.01481(7) 1.06046(5)
Sr1 Sr 0.7581(2) 0.53310(16) 0.60479(12)
O1 O 0.4171(16) 0.5926(12) 0.5856(9)
O2 O 0.1102(16) 0.6093(12) 0.5731(9)
O3 O 0.5504(17) 1.3144(12) 0.6434(10)
O4 O 0.6074(19) 1.4802(13) 0.7811(10)
O5 O 0.9951(17) 0.3887(13) 0.6792(11)
O6 O 0.7684(16) 0.7078(12) 0.4800(9)
N1 N 0.2520(17) 0.8877(12) 0.9251(10)
N2 N 0.3034(19) 1.1384(14) 0.9610(11)
N3 N 0.094(2) 0.8137(17) 1.1999(13)
N4 N 0.200(2) 1.2396(15) 1.2559(12)
C1 C 0.214(2) 0.7500(18) 0.9124(14)
C2 C 0.222(2) 0.6673(18) 0.8156(14)
C3 C 0.273(2) 0.7209(16) 0.7281(13)
C4 C 0.315(2) 0.8528(17) 0.7391(13)
C5 C 0.307(2) 0.9377(16) 0.8378(13)
C6 C 0.337(2) 1.0772(16) 0.8598(12)
C7 C 0.410(2) 1.1493(18) 0.7874(14)
C8 C 0.444(2) 1.2855(17) 0.8154(14)
C9 C 0.397(2) 1.3433(18) 0.9149(14)
C10 C 0.329(2) 1.2694(18) 0.9858(14)
C11 C 0.267(2) 0.6308(17) 0.6177(13)
C12 C 0.541(2) 1.367(2) 0.7369(15)
C13 C 0.142(2) 0.8854(18) 1.1496(14)
C14 C 0.205(2) 1.1564(18) 1.1845(14)
H1 H 0.1803 0.7142 0.9733
H2 H 0.1958 0.5756 0.8112
H3 H 0.3483 0.8873 0.6781
H4 H 0.4385 1.1068 0.7183
H5 H 0.4103 1.4352 0.9331
H6 H 0.3029 1.3115 1.0549
Pt1A Pt 0.78321(10) -0.01481(7) -0.06046(5)
Sr1A Sr 0.2419(2) 0.46690(16) 0.39521(12)
Sr1_2 Sr -0.2419(2) 0.53310(16) 0.60479(12)
Sr1_3 Sr 0.7581(2) -0.46690(16) -0.39521(12)
Sr1_4 Sr 0.7581(2) 1.53310(16) 0.60479(12)
Sr1A_2 Sr 0.2419(2) -0.53310(16) 0.39521(12)
Sr1A_3 Sr 0.2419(2) 1.46690(16) 1.39521(12)
Sr1A_4 Sr 1.2419(2) 0.46690(16) 0.39521(12)
O1A O 0.5829(16) 0.4074(12) 0.4144(9)
O2A O 0.8898(16) 0.3907(12) 0.4269(9)
O2_2 O 1.1102(16) 0.6093(12) 0.5731(9)
O2A_2 O -0.1102(16) 0.3907(12) 0.4269(9)
O3A O 0.4496(17) -0.3144(12) 0.3566(10)
O3_2 O 0.5504(17) 0.3144(12) 0.6434(10)
O3A_2 O 0.4496(17) 0.6856(12) 0.3566(10)
O4A O 0.3926(19) -0.4802(13) 0.2189(10)
O4_2 O 0.6074(19) 0.4802(13) 0.7811(10)
O4A_2 O 0.3926(19) 0.5198(13) 0.2189(10)
O5A O 0.0049(17) 0.6113(13) 0.3208(11)
O6A O 0.2316(16) 0.2922(12) 0.5200(9)
N1A N 0.7480(17) 0.1123(12) 0.0749(10)
N2A N 0.6966(19) -0.1384(14) 0.0390(11)
N3A N 0.906(2) 0.1863(17) -0.1999(13)
N4A N 0.800(2) -0.2396(15) -0.2559(12)
N4_2 N 0.200(2) 0.2396(15) 0.2559(12)
N4A_2 N 0.800(2) 0.7604(15) 0.7441(12)
C1A C 0.786(2) 0.2500(18) 0.0876(14)
C2A C 0.778(2) 0.3327(18) 0.1844(14)
C3A C 0.727(2) 0.2791(16) 0.2719(13)
C4A C 0.685(2) 0.1472(17) 0.2609(13)
C5A C 0.693(2) 0.0623(16) 0.1622(13)
C6A C 0.663(2) -0.0772(16) 0.1402(12)
C7A C 0.590(2) -0.1493(18) 0.2126(14)
C8A C 0.556(2) -0.2855(17) 0.1846(14)
C9A C 0.603(2) -0.3433(18) 0.0851(14)
C10A C 0.671(2) -0.2694(18) 0.0142(14)
C11A C 0.733(2) 0.3692(17) 0.3823(13)
C12A C 0.459(2) -0.367(2) 0.2631(15)
C12_2 C 0.541(2) 0.367(2) 0.7369(15)
C12A_2 C 0.459(2) 0.633(2) 0.2631(15)
C13A C 0.858(2) 0.1146(18) -0.1496(14)
C14A C 0.795(2) -0.1564(18) -0.1845(14)
H1A H 0.8197 0.2858 0.0267
H2A H 0.8042 0.4244 0.1888
H3A H 0.6517 0.1127 0.3219
H4A H 0.5615 -0.1068 0.2817
H5A H 0.5897 -0.4352 0.0669
H6A H 0.6971 -0.3115 -0.0549
O7 O 0.336(3) 1.9145(19) 1.4872(15)
loop_
_geom_bond_atom_site_label_1
_geom_bond_atom_site_label_2
_geom_bond_site_symmetry_1
_geom_bond_site_symmetry_2
Pt1 N1 1_555 1_555
Sr1 O1 1_555 1_555
O1 C11 1_555 1_555
O2 C11 1_555 1_555
O3 C12 1_555 1_555
O4 C12 1_555 1_555
O5 Sr1 1_555 1_555
O6 Sr1 1_555 1_555
N1 C1 1_555 1_555
N2 Pt1 1_555 1_555
N3 C13 1_555 1_555
N4 C14 1_555 1_555
C1 C2 1_555 1_555
C2 C3 1_555 1_555
C3 C4 1_555 1_555
C4 C5 1_555 1_555
C5 N1 1_555 1_555
C6 N2 1_555 1_555
C7 C6 1_555 1_555
C8 C7 1_555 1_555
C9 C8 1_555 1_555
C10 N2 1_555 1_555
C11 C3 1_555 1_555
C12 C8 1_555 1_555
C13 Pt1 1_555 1_555
C14 Pt1 1_555 1_555
H1 C1 1_555 1_555
H2 C2 1_555 1_555
H3 C4 1_555 1_555
H4 C7 1_555 1_555
H5 C9 1_555 1_555
H6 C10 1_555 1_555
Pt1A N1A 1_555 1_555
Sr1A O1 1_555 1_555
Sr1_2 O2 1_555 1_555
Sr1_3 N4A 1_555 1_555
Sr1_4 O3 1_555 1_555
Sr1A_2 O3A 1_555 1_555
Sr1A_3 N4 1_555 1_555
Sr1A_4 O2A 1_555 1_555
O1A Sr1 1_555 1_555
O2A Sr1 1_555 1_555
O2_2 Sr1 1_555 1_555
O2A_2 Sr1A 1_555 1_555
O3A C12A 1_555 1_555
O3_2 Sr1 1_555 1_555
O3A_2 Sr1A 1_555 1_555
O4A Sr1A_2 1_555 1_555
O4_2 Sr1 1_555 1_555
O4A_2 Sr1A 1_555 1_555
O5A Sr1A 1_555 1_555
O6A Sr1A 1_555 1_555
N1A C1A 1_555 1_555
N2A Pt1A 1_555 1_555
N3A C13A 1_555 1_555
N4A C14A 1_555 1_555
N4_2 Sr1A 1_555 1_555
N4A_2 Sr1 1_555 1_555
C1A C2A 1_555 1_555
C2A C3A 1_555 1_555
C3A C4A 1_555 1_555
C4A C5A 1_555 1_555
C5A N1A 1_555 1_555
C6A N2A 1_555 1_555
C7A C6A 1_555 1_555
C8A C7A 1_555 1_555
C9A C8A 1_555 1_555
C10A N2A 1_555 1_555
C11A O1A 1_555 1_555
C12A O4A 1_555 1_555
C12_2 O3_2 1_555 1_555
C12A_2 O3A_2 1_555 1_555
C13A Pt1A 1_555 1_555
C14A Pt1A 1_555 1_555
H1A C1A 1_555 1_555
H2A C2A 1_555 1_555
H3A C4A 1_555 1_555
H4A C7A 1_555 1_555
H5A C9A 1_555 1_555
H6A C10A 1_555 1_555
O2 Sr1A 1_555 1_555
O4 Sr1_4 1_555 1_555
C5 C6 1_555 1_555
C9 C10 1_555 1_555
Sr1A O1A 1_555 1_555
Sr1_2 O2A_2 1_555 1_555
Sr1A_4 O2_2 1_555 1_555
O2A C11A 1_555 1_555
O4_2 C12_2 1_555 1_555
O4A_2 C12A_2 1_555 1_555
C3A C11A 1_555 1_555
C5A C6A 1_555 1_555
C8A C12A 1_555 1_555
C9A C10A 1_555 1_555

#END
