
#######################################################################
#
#                 Cambridge Crystallographic Data Centre
#                                CCDC 
#
#######################################################################
#
# If this CIF has been generated from an entry in the Cambridge 
# Structural Database, then it will include bibliographic, chemical, 
# crystal, experimental, refinement or atomic coordinate data resulting 
# from the CCDC's data processing and validation procedures.
#
#######################################################################

data_VAZROF
_symmetry_cell_setting           orthorhombic
_symmetry_space_group_name_H-M   'P c c a'
_symmetry_Int_Tables_number      54
_space_group_name_Hall           '-P 2a 2ac'
loop_
_symmetry_equiv_pos_site_id
_symmetry_equiv_pos_as_xyz
1 x,y,z
2 1/2-x,-y,z
3 1/2+x,-y,1/2-z
4 -x,y,1/2-z
5 -x,-y,-z
6 1/2+x,y,-z
7 1/2-x,y,1/2+z
8 x,-y,1/2+z
_cell_length_a                   24.451(7)
_cell_length_b                   11.479(3)
_cell_length_c                   16.299(4)
_cell_angle_alpha                90
_cell_angle_beta                 90
_cell_angle_gamma                90
_cell_volume                     4574.69
loop_
_atom_site_label
_atom_site_type_symbol
_atom_site_fract_x
_atom_site_fract_y
_atom_site_fract_z
Fe1 Fe 0.54572(2) 0.35544(5) 0.65355(4)
O1 O 0.47050(12) 0.3559(2) 0.59830(19)
O2 O 0.44002(15) 0.3558(3) 0.72401(18)
O3 O 0.09524(19) 0.3291(4) 0.4921(3)
O4 O 0.12880(12) 0.3580(3) 0.3700(2)
N1 N 0.54344(17) 0.5439(3) 0.6579(3)
C1 C 0.5092(2) 0.6038(4) 0.6046(3)
H1 H 0.4864 0.5627 0.5692
C2 C 0.5088(2) 0.7251(4) 0.6041(3)
H2 H 0.4859 0.7650 0.5683
C3 C 0.5429(2) 0.7865(4) 0.6572(3)
C4 C 0.5776(2) 0.7256(4) 0.7101(3)
H3 H 0.6006 0.7663 0.7452
C5 C 0.5778(2) 0.6051(4) 0.7106(3)
H4 H 0.6008 0.5651 0.7461
C6 C 0.5456(2) 0.9218(4) 0.6554(3)
C7 C 0.5038(2) 0.9830(4) 0.6158(3)
H5 H 0.4761 0.9428 0.5889
C8 C 0.5038(2) 1.1037(4) 0.6166(3)
H6 H 0.4759 1.1442 0.5904
N2 N 0.54515(16) 1.1648(3) 0.6561(2)
C9 C 0.5865(2) 1.1042(4) 0.6962(3)
H7 H 0.6139 1.1446 0.7239
C10 C 0.5869(2) 0.9831(4) 0.6950(3)
H8 H 0.6150 0.9428 0.7209
C11 C 0.4318(2) 0.3562(5) 0.6475(4)
C12 C 0.3595(3) 0.3531(5) 0.5352(4)
H9 H 0.3862 0.3526 0.4946
C13 C 0.3744(2) 0.3571(5) 0.6172(4)
C14 C 0.3345(3) 0.3582(5) 0.6766(4)
H10 H 0.3449 0.3611 0.7314
C15 C 0.2794(3) 0.3550(5) 0.6574(4)
H11 H 0.2530 0.3558 0.6984
C16 C 0.2648(3) 0.3507(5) 0.5755(4)
C17 C 0.3046(3) 0.3498(5) 0.5138(4)
C18 C 0.2888(3) 0.3458(5) 0.4317(4)
H12 H 0.3154 0.3445 0.3909
C19 C 0.2342(2) 0.3437(5) 0.4105(4)
H13 H 0.2241 0.3420 0.3554
C20 C 0.1940(3) 0.3441(5) 0.4711(4)
C21 C 0.2091(3) 0.3473(5) 0.5527(4)
H14 H 0.1823 0.3473 0.5931
C22 C 0.1320(3) 0.3471(5) 0.4478(4)
Fe1C Fe 0.45428(2) 0.35544(5) 0.84645(4)
Fe1E Fe 0.04572(2) 0.35544(5) 0.34645(4)
Fe1_2 Fe 0.54572(2) 1.35544(5) 0.65355(4)
O2C O 0.55998(15) 0.3558(3) 0.77599(18)
O4E O 0.62880(12) 0.3580(3) 0.6300(2)
N2_2 N 0.54515(16) 0.1648(3) 0.6561(2)
O5 O 0.6173(3) 0.1291(6) 0.4044(5)
C23 C 0.6489(6) -0.0460(10) 0.4610(8)
H15 H 0.6747 -0.0753 0.5002
H16 H 0.6564 -0.0793 0.4081
H17 H 0.6125 -0.0667 0.4777
C24 C 0.6537(7) 0.0843(12) 0.4560(9)
H18 H 0.6481 0.1175 0.5101
H19 H 0.6902 0.1050 0.4380
O6 O 0.7402(5) 0.0965(8) 0.2310(7)
loop_
_geom_bond_atom_site_label_1
_geom_bond_atom_site_label_2
_geom_bond_site_symmetry_1
_geom_bond_site_symmetry_2
Fe1 O1 1_555 1_555
O1 C11 1_555 1_555
O2 C11 1_555 1_555
O3 C22 1_555 1_555
O4 C22 1_555 1_555
N1 Fe1 1_555 1_555
C1 N1 1_555 1_555
H1 C1 1_555 1_555
C2 C1 1_555 1_555
H2 C2 1_555 1_555
C3 C2 1_555 1_555
C4 C3 1_555 1_555
H3 C4 1_555 1_555
C5 N1 1_555 1_555
H4 C5 1_555 1_555
C6 C3 1_555 1_555
C7 C6 1_555 1_555
H5 C7 1_555 1_555
C8 C7 1_555 1_555
H6 C8 1_555 1_555
N2 C8 1_555 1_555
C9 N2 1_555 1_555
H7 C9 1_555 1_555
C10 C6 1_555 1_555
H8 C10 1_555 1_555
C11 C13 1_555 1_555
C12 H9 1_555 1_555
C13 C12 1_555 1_555
C14 C13 1_555 1_555
H10 C14 1_555 1_555
C15 C14 1_555 1_555
H11 C15 1_555 1_555
C16 C15 1_555 1_555
C17 C12 1_555 1_555
C18 C17 1_555 1_555
H12 C18 1_555 1_555
C19 C18 1_555 1_555
H13 C19 1_555 1_555
C20 C19 1_555 1_555
C21 C16 1_555 1_555
H14 C21 1_555 1_555
C22 C20 1_555 1_555
O5 C24 1_555 1_555
C23 H15 1_555 1_555
H16 C23 1_555 1_555
H17 C23 1_555 1_555
C24 C23 1_555 1_555
H18 C24 1_555 1_555
H19 C24 1_555 1_555
Fe1C O2 1_555 1_555
Fe1E O4 1_555 1_555
Fe1_2 N2 1_555 1_555
O2C Fe1 1_555 1_555
O4E Fe1 1_555 1_555
N2_2 Fe1 1_555 1_555
C4 C5 1_555 1_555
C9 C10 1_555 1_555
C16 C17 1_555 1_555
C20 C21 1_555 1_555

#END
