
#######################################################################
#
#                 Cambridge Crystallographic Data Centre
#                                CCDC 
#
#######################################################################
#
# If this CIF has been generated from an entry in the Cambridge 
# Structural Database, then it will include bibliographic, chemical, 
# crystal, experimental, refinement or atomic coordinate data resulting 
# from the CCDC's data processing and validation procedures.
#
#######################################################################

data_VEDFER
_symmetry_cell_setting           orthorhombic
_symmetry_space_group_name_H-M   'P 21 21 21'
_symmetry_Int_Tables_number      19
_space_group_name_Hall           'P 2ac 2ab'
loop_
_symmetry_equiv_pos_site_id
_symmetry_equiv_pos_as_xyz
1 x,y,z
2 1/2-x,-y,1/2+z
3 1/2+x,1/2-y,-z
4 -x,1/2+y,1/2-z
_cell_length_a                   11.3503(3)
_cell_length_b                   13.1581(3)
_cell_length_c                   26.2130(6)
_cell_angle_alpha                90
_cell_angle_beta                 90
_cell_angle_gamma                90
_cell_volume                     3914.87
loop_
_atom_site_label
_atom_site_type_symbol
_atom_site_fract_x
_atom_site_fract_y
_atom_site_fract_z
Co1 Co 0.83904(6) 0.93919(6) 0.07945(3)
Co2 Co 1.09320(6) 1.05951(6) 0.13755(3)
O1 O 0.9788(3) 0.9362(3) 0.02941(14)
O2 O 1.1387(3) 0.9628(3) 0.07736(17)
O3 O 0.9209(3) 0.8493(3) 0.13423(15)
O4 O 1.0501(3) 0.9379(3) 0.18122(15)
O5 O 0.9093(3) 1.0741(3) 0.11411(14)
H1 H 0.8611 1.0913 0.1444
H2 H 0.9026 1.1311 0.0896
O6 O 0.6929(3) 0.9517(3) 0.12766(16)
O7 O 0.6351(4) 1.3140(3) -0.09427(17)
C1 C 0.6554(5) 1.0294(5) 0.1507(2)
N1 N 0.9385(4) 0.6560(4) 0.29797(19)
N2 N 0.2773(4) 1.0488(4) 0.15658(19)
C2 C 0.9685(5) 0.7905(4) 0.2164(2)
O8 O 0.7162(4) 1.0993(4) 0.1673(2)
C3 C 0.8999(6) 0.7042(5) 0.2116(2)
H3 H 0.8601 0.6899 0.1806
C4 C 0.5219(5) 1.0344(5) 0.1563(2)
O9 O 0.4618(4) 1.2658(4) -0.0620(2)
C5 C 0.6323(5) 1.1769(5) -0.0367(2)
C6 C 1.1520(5) 0.8467(4) 0.0091(2)
C7 C 1.1789(7) 0.7470(5) -0.0645(3)
H4 H 1.1581 0.7340 -0.0990
C8 C 0.8064(6) 1.0935(5) -0.0065(3)
H5 H 0.8896 1.0859 -0.0081
N3 N 1.2648(4) 0.6938(4) -0.0437(2)
N4 N 0.7471(4) 1.0337(3) 0.02399(19)
C9 C 0.9803(5) 0.8651(4) 0.1733(2)
C10 C 0.7532(6) 1.1687(5) -0.0372(3)
H6 H 0.7998 1.2126 -0.0577
C11 C 1.0862(5) 0.9231(4) 0.0416(2)
C12 C 0.4522(5) 0.9489(5) 0.1550(3)
H7 H 0.4872 0.8833 0.1535
C13 C 1.0232(6) 0.8065(5) 0.2617(2)
H8 H 1.0738 0.8634 0.2655
C14 C 0.5713(6) 1.2606(4) -0.0667(2)
C15 C 0.3321(6) 0.9589(5) 0.1557(3)
H9 H 0.2854 0.8990 0.1555
C16 C 0.8901(6) 0.6382(5) 0.2532(2)
H10 H 0.8462 0.5773 0.2490
C17 C 0.3441(6) 1.1302(5) 0.1587(3)
H11 H 0.3068 1.1948 0.1598
C18 C 1.2468(7) 0.7932(7) 0.0291(3)
H12 H 1.2751 0.8089 0.0623
C19 C 0.4661(5) 1.1268(5) 0.1593(3)
H13 H 0.5106 1.1878 0.1618
C20 C 0.6289(5) 1.0413(5) 0.0237(3)
H14 H 0.5843 0.9971 0.0449
C21 C 0.5696(6) 1.1113(5) -0.0064(3)
H15 H 0.4860 1.1138 -0.0060
C22 C 1.0066(6) 0.7418(5) 0.3021(3)
H16 H 1.0433 0.7568 0.3338
C23 C 1.1183(6) 0.8203(5) -0.0381(3)
H17 H 1.0521 0.8524 -0.0533
C24 C 1.2975(7) 0.7210(7) 0.0023(4)
H18 H 1.3622 0.6861 0.0172
Co1B Co 1.33904(6) 0.56081(6) -0.07945(3)
Co2B Co 0.59320(6) 1.44049(6) -0.13755(3)
Co2C Co 0.90680(6) 0.55951(6) 0.36245(3)
Co2_2 Co 0.09320(6) 1.05951(6) 0.13755(3)
O7B O 1.1351(4) 1.1860(3) 0.09427(17)
N1C N 1.0615(4) 1.1560(4) 0.20203(19)
N2_2 N 1.2773(4) 1.0488(4) 0.15658(19)
N3B N 0.7648(4) 0.8062(4) 0.0437(2)
loop_
_geom_bond_atom_site_label_1
_geom_bond_atom_site_label_2
_geom_bond_site_symmetry_1
_geom_bond_site_symmetry_2
Co1 O1 1_555 1_555
Co2 O2 1_555 1_555
O1 C11 1_555 1_555
O2 C11 1_555 1_555
O3 Co1 1_555 1_555
O4 Co2 1_555 1_555
O5 Co1 1_555 1_555
H1 O5 1_555 1_555
H2 O5 1_555 1_555
O6 Co1 1_555 1_555
O7 C14 1_555 1_555
C1 O6 1_555 1_555
N1 C16 1_555 1_555
N2 C15 1_555 1_555
C2 C3 1_555 1_555
O8 C1 1_555 1_555
C3 H3 1_555 1_555
C4 C1 1_555 1_555
O9 C14 1_555 1_555
C5 C10 1_555 1_555
C6 C11 1_555 1_555
C7 H4 1_555 1_555
C8 H5 1_555 1_555
N3 C7 1_555 1_555
N4 Co1 1_555 1_555
C9 O3 1_555 1_555
C10 C8 1_555 1_555
H6 C10 1_555 1_555
C12 C4 1_555 1_555
H7 C12 1_555 1_555
C13 C2 1_555 1_555
H8 C13 1_555 1_555
C14 C5 1_555 1_555
C15 C12 1_555 1_555
H9 C15 1_555 1_555
C16 C3 1_555 1_555
H10 C16 1_555 1_555
C17 N2 1_555 1_555
H11 C17 1_555 1_555
C18 C6 1_555 1_555
H12 C18 1_555 1_555
C19 C4 1_555 1_555
H13 C19 1_555 1_555
C20 N4 1_555 1_555
H14 C20 1_555 1_555
C21 C5 1_555 1_555
H15 C21 1_555 1_555
C22 N1 1_555 1_555
H16 C22 1_555 1_555
C23 C6 1_555 1_555
H17 C23 1_555 1_555
C24 N3 1_555 1_555
H18 C24 1_555 1_555
Co1B N3 1_555 1_555
Co2B O7 1_555 1_555
Co2C N1 1_555 1_555
Co2_2 N2 1_555 1_555
O7B Co2 1_555 1_555
N1C Co2 1_555 1_555
N2_2 Co2 1_555 1_555
N3B Co1 1_555 1_555
Co2 O5 1_555 1_555
O4 C9 1_555 1_555
C2 C9 1_555 1_555
C7 C23 1_555 1_555
C8 N4 1_555 1_555
C13 C22 1_555 1_555
C17 C19 1_555 1_555
C18 C24 1_555 1_555
C20 C21 1_555 1_555

#END
