
#######################################################################
#
#                 Cambridge Crystallographic Data Centre
#                                CCDC 
#
#######################################################################
#
# If this CIF has been generated from an entry in the Cambridge 
# Structural Database, then it will include bibliographic, chemical, 
# crystal, experimental, refinement or atomic coordinate data resulting 
# from the CCDC's data processing and validation procedures.
#
#######################################################################

data_VEDGAO
_symmetry_cell_setting           orthorhombic
_symmetry_space_group_name_H-M   'P 21 21 21'
_symmetry_Int_Tables_number      19
_space_group_name_Hall           'P 2ac 2ab'
loop_
_symmetry_equiv_pos_site_id
_symmetry_equiv_pos_as_xyz
1 x,y,z
2 1/2-x,-y,1/2+z
3 1/2+x,1/2-y,-z
4 -x,1/2+y,1/2-z
_cell_length_a                   11.2690(17)
_cell_length_b                   13.382(2)
_cell_length_c                   25.592(4)
_cell_angle_alpha                90
_cell_angle_beta                 90
_cell_angle_gamma                90
_cell_volume                     3859.32
loop_
_atom_site_label
_atom_site_type_symbol
_atom_site_fract_x
_atom_site_fract_y
_atom_site_fract_z
Co1 Co 0.08290(3) 0.05992(3) 0.363450(11)
Co2 Co -0.17142(3) -0.05968(3) 0.421140(12)
O1 O -0.03282(14) -0.06269(15) 0.47410(6)
O2 O 0.04476(15) -0.06183(15) 0.31889(7)
O3 O 0.68534(14) -0.04849(14) 0.36914(7)
O4 O -0.08461(16) -0.15008(13) 0.36764(7)
N1 N 0.26703(17) 0.04963(17) 0.34279(8)
O5 O 0.13003(15) -0.03362(14) 0.42530(7)
O6 O 0.12286(15) 0.18572(14) 0.40667(7)
O7 O -0.10105(13) 0.07331(13) 0.38693(6)
H1 H -0.1082 0.1287 0.4124
H2 H -0.1493 0.0909 0.3559
N2 N 0.23277(19) 0.46824(16) 0.52337(8)
C1 C 0.6476(2) 0.0284(2) 0.34567(10)
N3 N -0.04818(18) -0.34664(16) 0.20284(8)
O8 O -0.05366(17) 0.23236(15) 0.43875(8)
C2 C 0.2410(2) 0.3337(2) 0.46164(10)
H3 H 0.2877 0.2915 0.4400
C3 C 0.1165(2) 0.3231(2) 0.46368(10)
C4 C -0.0932(2) -0.29894(19) 0.29097(9)
H4 H -0.1324 -0.3131 0.3230
C5 C 0.5142(2) 0.0340(2) 0.33991(10)
C6 C 0.2932(2) 0.4068(2) 0.49200(10)
H5 H 0.3771 0.4138 0.4905
C7 C 0.0748(2) -0.07516(19) 0.46130(9)
C8 C 0.0564(2) 0.2402(2) 0.43440(9)
C9 C -0.1005(2) -0.3645(2) 0.24901(10)
H6 H -0.1444 -0.4245 0.2532
C10 C 0.1139(2) 0.4605(2) 0.52387(10)
H7 H 0.0697 0.5057 0.5449
C11 C 0.0304(2) -0.1957(2) 0.23831(10)
H8 H 0.0788 -0.1382 0.2338
C12 C 0.4431(2) -0.0502(2) 0.34143(10)
H9 H 0.4782 -0.1148 0.3416
C13 C -0.0271(2) -0.21230(19) 0.28488(10)
O9 O 0.70809(17) 0.09881(18) 0.32867(8)
N4 N 0.2542(2) -0.30912(18) 0.54497(8)
C14 C 0.4581(2) 0.1266(2) 0.33642(11)
H10 H 0.5034 0.1860 0.3322
C15 C 0.0531(2) 0.3896(2) 0.49510(11)
H11 H -0.0311 0.3861 0.4967
C16 C 0.3210(2) -0.0404(2) 0.34273(11)
H12 H 0.2735 -0.0990 0.3436
C17 C 0.1682(3) -0.2569(2) 0.56728(11)
H13 H 0.1468 -0.2729 0.6022
C18 C 0.1417(2) -0.1526(2) 0.49291(10)
C19 C -0.0225(2) -0.13447(19) 0.32789(9)
C20 C 0.2345(4) -0.2048(4) 0.47112(16)
H14 H 0.2618 -0.1883 0.4371
C21 C 0.1077(3) -0.1801(3) 0.54249(11)
H15 H 0.0439 -0.1471 0.5595
C22 C 0.3347(2) 0.1311(2) 0.33925(11)
H16 H 0.2973 0.1947 0.3386
C23 C 0.0170(2) -0.2640(2) 0.19783(10)
H17 H 0.0556 -0.2514 0.1655
C24 C 0.2867(4) -0.2791(4) 0.49800(17)
H18 H 0.3517 -0.3124 0.4820
Co1C Co -0.08290(3) -0.44008(3) 0.136550(11)
Co2_2 Co 0.82858(3) -0.05968(3) 0.421140(12)
Co2B Co 0.32858(3) 0.55968(3) 0.578860(12)
Co2B_2 Co 0.32858(3) -0.44032(3) 0.578860(12)
O3_2 O -0.31466(14) -0.04849(14) 0.36914(7)
N2B N -0.26723(19) 0.03176(16) 0.47663(8)
N3C N 0.04818(18) 0.15336(16) 0.29716(8)
N4B N -0.2458(2) -0.19088(18) 0.45503(8)
O10 O 0.1997(7) -0.9530(6) -0.3043(3)
H19 H 0.1524 -0.9174 -0.2870
C25 C 0.1242(9) -0.8502(9) -0.4300(4)
H20 H 0.0541 -0.8636 -0.4515
H21 H 0.1948 -0.8772 -0.4473
H22 H 0.1333 -0.7779 -0.4253
C26 C 0.1111(9) -0.8937(8) -0.3832(4)
H23 H 0.0759 -0.9608 -0.3883
H24 H 0.0546 -0.8538 -0.3622
C27 C 0.2266(9) -0.9045(9) -0.3528(4)
H25 H 0.2635 -0.8376 -0.3465
C28 C 0.3179(12) -0.9772(10) -0.3775(4)
H26 H 0.3919 -0.9752 -0.3575
H27 H 0.3336 -0.9570 -0.4137
H28 H 0.2858 -1.0452 -0.3771
loop_
_geom_bond_atom_site_label_1
_geom_bond_atom_site_label_2
_geom_bond_site_symmetry_1
_geom_bond_site_symmetry_2
Co1 O2 1_555 1_555
Co2 O1 1_555 1_555
O1 C7 1_555 1_555
O2 C19 1_555 1_555
O3 C1 1_555 1_555
O4 Co2 1_555 1_555
N1 Co1 1_555 1_555
O5 Co1 1_555 1_555
O6 Co1 1_555 1_555
O7 Co1 1_555 1_555
H1 O7 1_555 1_555
H2 O7 1_555 1_555
N2 C6 1_555 1_555
C1 C5 1_555 1_555
N3 C9 1_555 1_555
O8 C8 1_555 1_555
C2 H3 1_555 1_555
C3 C2 1_555 1_555
C4 H4 1_555 1_555
C5 C12 1_555 1_555
C6 C2 1_555 1_555
H5 C6 1_555 1_555
C7 O5 1_555 1_555
C8 O6 1_555 1_555
C9 C4 1_555 1_555
H6 C9 1_555 1_555
C10 N2 1_555 1_555
H7 C10 1_555 1_555
C11 H8 1_555 1_555
C12 H9 1_555 1_555
C13 C4 1_555 1_555
O9 C1 1_555 1_555
N4 C17 1_555 1_555
C14 C5 1_555 1_555
H10 C14 1_555 1_555
C15 C3 1_555 1_555
H11 C15 1_555 1_555
C16 N1 1_555 1_555
H12 C16 1_555 1_555
C17 H13 1_555 1_555
C18 C7 1_555 1_555
C19 O4 1_555 1_555
C20 C18 1_555 1_555
H14 C20 1_555 1_555
C21 C17 1_555 1_555
H15 C21 1_555 1_555
C22 N1 1_555 1_555
H16 C22 1_555 1_555
C23 N3 1_555 1_555
H17 C23 1_555 1_555
C24 N4 1_555 1_555
H18 C24 1_555 1_555
O10 H19 1_555 1_555
C25 H20 1_555 1_555
H21 C25 1_555 1_555
H22 C25 1_555 1_555
C26 C25 1_555 1_555
H23 C26 1_555 1_555
H24 C26 1_555 1_555
C27 O10 1_555 1_555
H25 C27 1_555 1_555
C28 C27 1_555 1_555
H26 C28 1_555 1_555
H27 C28 1_555 1_555
H28 C28 1_555 1_555
Co1C N3 1_555 1_555
Co2_2 O3 1_555 1_555
Co2B N2 1_555 1_555
Co2B_2 N4 1_555 1_555
O3_2 Co2 1_555 1_555
N2B Co2 1_555 1_555
N3C Co1 1_555 1_555
N4B Co2 1_555 1_555
Co2 O7 1_555 1_555
C3 C8 1_555 1_555
C10 C15 1_555 1_555
C11 C13 1_555 1_555
C11 C23 1_555 1_555
C12 C16 1_555 1_555
C13 C19 1_555 1_555
C14 C22 1_555 1_555
C18 C21 1_555 1_555
C20 C24 1_555 1_555
C26 C27 1_555 1_555

#END
