
#######################################################################
#
#                 Cambridge Crystallographic Data Centre
#                                CCDC 
#
#######################################################################
#
# If this CIF has been generated from an entry in the Cambridge 
# Structural Database, then it will include bibliographic, chemical, 
# crystal, experimental, refinement or atomic coordinate data resulting 
# from the CCDC's data processing and validation procedures.
#
#######################################################################

data_VEDGES
_symmetry_cell_setting           orthorhombic
_symmetry_space_group_name_H-M   'P 21 21 21'
_symmetry_Int_Tables_number      19
_space_group_name_Hall           'P 2ac 2ab'
loop_
_symmetry_equiv_pos_site_id
_symmetry_equiv_pos_as_xyz
1 x,y,z
2 1/2-x,-y,1/2+z
3 1/2+x,1/2-y,-z
4 -x,1/2+y,1/2-z
_cell_length_a                   11.4777(2)
_cell_length_b                   13.3164(3)
_cell_length_c                   26.0307(4)
_cell_angle_alpha                90
_cell_angle_beta                 90
_cell_angle_gamma                90
_cell_volume                     3978.57
loop_
_atom_site_label
_atom_site_type_symbol
_atom_site_fract_x
_atom_site_fract_y
_atom_site_fract_z
Co1 Co 0.65420(6) 0.55574(6) 0.07816(2)
Co2 Co 0.39778(6) 0.45003(6) 0.13961(2)
O1 O 0.5785(3) 0.4280(3) 0.11459(13)
H1 H 0.6264 0.4100 0.1449
H2 H 0.5811 0.3706 0.0904
O2 O 1.0137(4) 0.2203(4) -0.06060(19)
O3 O 0.7819(4) 0.3904(4) 0.1616(2)
O4 O 0.7980(3) 0.5429(3) 0.12680(16)
O5 O 0.4498(4) 0.5683(3) 0.18345(15)
O6 O 0.5145(3) 0.5661(3) 0.02878(14)
O7 O 0.8451(4) 0.1707(3) -0.09454(16)
O8 O 0.5789(4) 0.6509(3) 0.13384(15)
O9 O 0.3599(3) 0.5533(3) 0.08094(14)
N1 N 0.5696(4) 0.8495(4) 0.29677(18)
N2 N 0.2377(4) 0.8219(4) -0.04028(17)
N3 N 0.7369(4) 0.4549(4) 0.02264(17)
N4 N 1.2144(4) 0.4601(4) 0.15860(17)
C1 C 0.8530(5) 0.4422(5) 0.0237(2)
H4 H 0.8986 0.4850 0.0449
C2 C 0.6170(5) 0.8653(5) 0.2505(2)
H5 H 0.6624 0.9242 0.2454
C3 C 0.5055(6) 0.7658(5) 0.3033(2)
H6 H 0.4737 0.7516 0.3362
C4 C 1.1510(6) 0.3765(5) 0.1645(3)
H7 H 1.1908 0.3146 0.1692
C5 C 0.9086(5) 0.3686(5) -0.0050(2)
H8 H 0.9907 0.3612 -0.0027
C6 C 0.2791(6) 0.7373(5) 0.0384(2)
H9 H 0.2666 0.7316 0.0744
C7 C 0.9073(5) 0.2267(4) -0.0667(2)
C8 C 0.2243(6) 0.8112(5) 0.0109(2)
H10 H 0.1749 0.8568 0.0287
C9 C 0.5210(5) 0.6372(4) 0.1737(2)
C10 C 0.6758(5) 0.3956(5) -0.0090(2)
H11 H 0.5938 0.4049 -0.0108
C11 C 1.0305(5) 0.3756(5) 0.1640(3)
H12 H 0.9894 0.3146 0.1696
C12 C 0.3108(6) 0.7588(5) -0.0638(2)
H13 H 0.3222 0.7658 -0.0998
C13 C 0.5355(5) 0.7142(4) 0.2165(2)
C14 C 0.9698(5) 0.4645(5) 0.1553(2)
C15 C 0.3524(5) 0.6711(4) 0.0136(2)
C16 C 0.4848(6) 0.6995(5) 0.2630(2)
H14 H 0.4348 0.6435 0.2680
C17 C 0.8459(5) 0.3065(4) -0.0366(2)
C18 C 0.7261(5) 0.3209(5) -0.0393(2)
H15 H 0.6795 0.2807 -0.0613
C19 C 0.3701(5) 0.6845(5) -0.0385(2)
H16 H 0.4229 0.6425 -0.0566
C20 C 0.4137(5) 0.5891(4) 0.0442(2)
C21 C 0.6028(6) 0.7995(5) 0.2097(2)
H17 H 0.6387 0.8127 0.1775
C22 C 1.1560(5) 0.5462(5) 0.1522(2)
H18 H 1.1992 0.6068 0.1494
C23 C 1.0360(5) 0.5511(5) 0.1494(2)
H19 H 0.9987 0.6137 0.1436
C24 C 0.8384(5) 0.4664(5) 0.1479(2)
Co1B Co 0.15420(6) 0.94426(6) -0.07816(2)
Co2B Co 0.89778(6) 0.04997(6) -0.13961(2)
Co2C Co 0.60222(6) 0.95003(6) 0.36039(2)
Co2_2 Co 1.39778(6) 0.45003(6) 0.13961(2)
O7B O 0.3451(4) 0.3293(3) 0.09454(16)
N1C N 0.4304(4) 0.3495(4) 0.20323(18)
N2B N 0.7377(4) 0.6781(4) 0.04028(17)
N4_2 N 0.2144(4) 0.4601(4) 0.15860(17)
O10 O 0.2488(7) 0.3224(6) -0.1423(3)
H3 H 0.1775 0.3145 -0.1484
C25 C 0.3916(8) 0.3548(9) -0.0767(5)
H20 H 0.4348 0.2957 -0.0884
H21 H 0.4022 0.3629 -0.0395
H22 H 0.4208 0.4147 -0.0944
C26 C 0.2652(8) 0.3416(7) -0.0883(4)
H23 H 0.2367 0.2817 -0.0688
C27 C 0.1963(7) 0.4292(7) -0.0719(3)
C28 C 0.1971(7) 0.4520(8) -0.0204(4)
H24 H 0.2420 0.4118 0.0024
C29 C 0.1338(8) 0.5323(8) -0.0008(4)
H25 H 0.1372 0.5472 0.0349
C30 C 0.0650(10) 0.5914(8) -0.0333(5)
H26 H 0.0220 0.6469 -0.0203
C31 C 0.0614(10) 0.5669(9) -0.0846(5)
H27 H 0.0146 0.6057 -0.1072
C32 C 0.1261(9) 0.4850(8) -0.1045(4)
H28 H 0.1214 0.4684 -0.1399
loop_
_geom_bond_atom_site_label_1
_geom_bond_atom_site_label_2
_geom_bond_site_symmetry_1
_geom_bond_site_symmetry_2
Co1 O1 1_555 1_555
Co2 O1 1_555 1_555
O1 H1 1_555 1_555
H2 O1 1_555 1_555
O2 C7 1_555 1_555
O3 C24 1_555 1_555
O4 Co1 1_555 1_555
O5 Co2 1_555 1_555
O6 Co1 1_555 1_555
O7 C7 1_555 1_555
O8 Co1 1_555 1_555
O9 Co2 1_555 1_555
O10 H3 1_555 1_555
N1 C2 1_555 1_555
N2 C8 1_555 1_555
N3 Co1 1_555 1_555
N4 C4 1_555 1_555
C1 N3 1_555 1_555
H4 C1 1_555 1_555
C2 H5 1_555 1_555
C3 N1 1_555 1_555
H6 C3 1_555 1_555
C4 H7 1_555 1_555
C5 C1 1_555 1_555
H8 C5 1_555 1_555
C6 H9 1_555 1_555
C7 C17 1_555 1_555
C8 C6 1_555 1_555
H10 C8 1_555 1_555
C9 O5 1_555 1_555
C10 N3 1_555 1_555
H11 C10 1_555 1_555
C11 C4 1_555 1_555
H12 C11 1_555 1_555
C12 N2 1_555 1_555
H13 C12 1_555 1_555
C13 C9 1_555 1_555
C14 C11 1_555 1_555
C15 C6 1_555 1_555
C16 C3 1_555 1_555
H14 C16 1_555 1_555
C17 C5 1_555 1_555
C18 C10 1_555 1_555
H15 C18 1_555 1_555
C19 C12 1_555 1_555
H16 C19 1_555 1_555
C20 O6 1_555 1_555
C21 C2 1_555 1_555
H17 C21 1_555 1_555
C22 N4 1_555 1_555
H18 C22 1_555 1_555
C23 C14 1_555 1_555
H19 C23 1_555 1_555
C24 O4 1_555 1_555
C25 H20 1_555 1_555
H21 C25 1_555 1_555
H22 C25 1_555 1_555
C26 O10 1_555 1_555
H23 C26 1_555 1_555
C27 C26 1_555 1_555
C28 C27 1_555 1_555
H24 C28 1_555 1_555
C29 C28 1_555 1_555
H25 C29 1_555 1_555
C30 C29 1_555 1_555
H26 C30 1_555 1_555
C31 C30 1_555 1_555
H27 C31 1_555 1_555
C32 C27 1_555 1_555
H28 C32 1_555 1_555
Co1B N2 1_555 1_555
Co2B O7 1_555 1_555
Co2C N1 1_555 1_555
Co2_2 N4 1_555 1_555
O7B Co2 1_555 1_555
N1C Co2 1_555 1_555
N2B Co1 1_555 1_555
N4_2 Co2 1_555 1_555
O8 C9 1_555 1_555
O9 C20 1_555 1_555
C13 C16 1_555 1_555
C13 C21 1_555 1_555
C14 C24 1_555 1_555
C15 C19 1_555 1_555
C15 C20 1_555 1_555
C17 C18 1_555 1_555
C22 C23 1_555 1_555
C25 C26 1_555 1_555
C31 C32 1_555 1_555

#END
