
#######################################################################
#
#                 Cambridge Crystallographic Data Centre
#                                CCDC 
#
#######################################################################
#
# If this CIF has been generated from an entry in the Cambridge 
# Structural Database, then it will include bibliographic, chemical, 
# crystal, experimental, refinement or atomic coordinate data resulting 
# from the CCDC's data processing and validation procedures.
#
#######################################################################

data_VEGXUC
_symmetry_cell_setting           monoclinic
_symmetry_space_group_name_H-M   'P 21/c'
_symmetry_Int_Tables_number      14
_space_group_name_Hall           '-P 2ybc'
loop_
_symmetry_equiv_pos_site_id
_symmetry_equiv_pos_as_xyz
1 x,y,z
2 -x,1/2+y,1/2-z
3 -x,-y,-z
4 x,1/2-y,1/2+z
_cell_length_a                   7.085(2)
_cell_length_b                   31.766(7)
_cell_length_c                   16.404(4)
_cell_angle_alpha                90
_cell_angle_beta                 99.78(4)
_cell_angle_gamma                90
_cell_volume                     3638.27
loop_
_atom_site_label
_atom_site_type_symbol
_atom_site_fract_x
_atom_site_fract_y
_atom_site_fract_z
C1 C 0.69370 1.02384 0.35680
C2 C 0.75100 1.04730 0.28640
C3 C 0.83430 1.02596 0.22840
C4 C 0.89360 1.04790 0.16540
C5 C 0.88250 1.09170 0.16130
C6 C 0.80190 1.11274 0.22000
C7 C 0.73200 1.09071 0.28130
C8 C 0.96580 1.11321 0.09200
C9 C 0.92900 1.16117 0.08670
C10 C 1.18080 1.10688 0.11180
C11 C 0.87800 1.09518 0.00670
C12 C 0.97670 1.08775 -0.05650
C13 C 0.88650 1.07429 -0.13340
C14 C 0.69320 1.06918 -0.14860
C15 C 0.59440 1.07600 -0.08530
C16 C 0.68490 1.08861 -0.00790
C17 C 0.59850 1.05874 -0.23540
C18 C 1.03970 0.89734 0.51750
C19 C 0.93840 0.86355 0.55430
C20 C 0.79820 0.87323 0.59920
C21 C 0.69480 0.84153 0.62740
C22 C 0.72910 0.79966 0.61060
C23 C 0.87170 0.79002 0.56660
C24 C 0.97700 0.82167 0.53970
C25 C 0.60880 0.76321 0.63410
C26 C 0.48890 0.77610 0.69920
C27 C 0.47560 0.74990 0.55380
C28 C 0.73090 0.72642 0.67310
C29 C 0.89870 0.73596 0.72540
C30 C 1.00830 0.70435 0.76800
C31 C 0.94650 0.66298 0.76080
C32 C 0.78000 0.65323 0.70850
C33 C 0.67420 0.68470 0.66480
C34 C 1.05650 0.62940 0.81060
F1 F 1.01780 1.18152 0.15386
F2 F 0.74630 1.16933 0.08102
F3 F 0.98320 1.17819 0.02122
F4 F 1.24640 1.11516 0.19167
F5 F 1.27490 1.13156 0.06762
F6 F 1.22910 1.06743 0.09837
F7 F 0.35050 0.80292 0.66866
F8 F 0.59170 0.79466 0.76395
F9 F 0.40640 0.74302 0.72791
F10 F 0.33340 0.72645 0.56797
F11 F 0.56830 0.72834 0.50430
F12 F 0.40280 0.78352 0.51114
H1 H 0.84990 0.99700 0.23210
H2 H 0.94190 1.03330 0.12490
H3 H 0.79440 1.14190 0.21850
H4 H 0.67280 1.10500 0.31880
H5 H 0.43900 1.07750 -0.49600
H6 H 1.21000 1.00280 0.38600
H7 H 1.10520 1.09180 -0.04730
H8 H 0.95500 1.06870 -0.17490
H9 H 0.46580 1.07210 -0.09470
H10 H 0.61710 1.09270 0.03450
H11 H 0.77400 0.90110 0.61030
H12 H 0.60200 0.84820 0.65760
H13 H 0.89590 0.76210 0.55520
H14 H 1.07390 0.81490 0.51190
H15 H 0.93770 0.76380 0.73180
H16 H 1.12190 0.71090 0.80100
H17 H 0.73970 0.62550 0.70280
H18 H 0.56400 0.67790 0.62960
Ni1 Ni 0.74763 1.07068 -0.39854
Ni2 Ni 0.72646 0.92635 0.37486
Ni3 Ni 1.00000 1.00000 0.50000
Ni4 Ni 0.50000 1.00000 0.50000
O1 O 0.56040 1.03535 0.38861
O2 O 0.79950 0.99240 0.38344
O3 O 0.69760 1.04534 -0.28464
O4 O 0.42370 1.06543 -0.25272
O5 O 0.94760 0.93134 0.49724
O6 O 1.20040 0.89112 0.50357
O7 O 1.22950 0.63384 0.83220
O8 O 0.97370 0.59687 0.83087
O10 O 0.46720 1.06413 -0.45348
O11 O 1.21920 0.99233 0.43440
C1B C 1.30630 0.97616 0.64320
C2B C 1.24900 0.95270 0.71360
C3B C 1.16570 0.97404 0.77160
C4B C 1.10640 0.95210 0.83460
C5B C 1.11750 0.90830 0.83870
C6B C 1.19810 0.88726 0.78000
C7B C 1.26800 0.90929 0.71870
C8B C 1.03420 0.88679 0.90800
C9B C 1.07100 0.83883 0.91330
C10B C 0.81920 0.89312 0.88820
C11B C 1.12200 0.90482 0.99330
C12B C 1.02330 0.91225 1.05650
C13B C 1.11350 0.92571 1.13340
C14B C 1.30680 0.93082 1.14860
C15B C 1.40560 0.92400 1.08530
C16B C 1.31510 0.91139 1.00790
C17B C 1.40150 0.94126 1.23540
C18B C 0.96030 1.10266 0.48250
C19B C 1.06160 1.13645 0.44570
C20B C 1.20180 1.12677 0.40080
C21B C 1.30520 1.15847 0.37260
C22B C 1.27090 1.20034 0.38940
C23B C 1.12830 1.20998 0.43340
C24B C 1.02300 1.17833 0.46030
C25B C 1.39120 1.23679 0.36590
C26B C 1.51110 1.22390 0.30080
C27B C 1.52440 1.25010 0.44620
C28B C 1.26910 1.27358 0.32690
C29B C 1.10130 1.26404 0.27460
C30B C 0.99170 1.29565 0.23200
C31B C 1.05350 1.33702 0.23920
C32B C 1.22000 1.34677 0.29150
C33B C 1.32580 1.31530 0.33520
C34B C 0.94350 1.37060 0.18940
F1B F 0.98220 0.81848 0.84614
F2B F 1.25370 0.83067 0.91898
F3B F 1.01680 0.82181 0.97878
F4B F 0.75360 0.88484 0.80833
F5B F 0.72510 0.86844 0.93238
F6B F 0.77090 0.93257 0.90163
F7B F 1.64950 1.19708 0.33134
F8B F 1.40830 1.20534 0.23605
F9B F 1.59360 1.25698 0.27209
F10B F 1.66660 1.27355 0.43203
F11B F 1.43170 1.27166 0.49570
F12B F 1.59720 1.21648 0.48886
H1B H 1.15010 1.00300 0.76790
H2B H 1.05810 0.96670 0.87510
H3B H 1.20560 0.85810 0.78150
H4B H 1.32720 0.89500 0.68120
H5B H 0.56100 0.92250 0.49600
H5_2 H 0.43900 1.07750 0.50400
H5B_2 H 1.56100 0.92250 1.49600
H5_3 H 1.43900 1.07750 0.50400
H6B H 0.79000 0.99720 0.61400
H6B_2 H 0.79000 0.99720 -0.38600
H6_2 H 0.21000 1.00280 0.38600
H6_3 H 1.21000 1.00280 1.38600
H7B H 0.89480 0.90820 1.04730
H8B H 1.04500 0.93130 1.17490
H9B H 1.53420 0.92790 1.09470
H10B H 1.38290 0.90730 0.96550
H11B H 1.22600 1.09890 0.38970
H12B H 1.39800 1.15180 0.34240
H13B H 1.10410 1.23790 0.44480
H14B H 0.92610 1.18510 0.48810
H15B H 1.06230 1.23620 0.26820
H16B H 0.87810 1.28910 0.19900
H17B H 1.26030 1.37450 0.29720
H18B H 1.43600 1.32210 0.37040
Ni1B Ni 1.25237 0.92932 1.39854
Ni1B_2 Ni 1.25237 0.92932 0.39854
Ni1A Ni 1.25237 0.57068 0.89854
Ni1_2 Ni 0.74763 1.07068 0.60146
Ni1C Ni 0.74763 1.42932 0.10146
Ni1B_3 Ni 0.25237 0.92932 0.39854
Ni2B Ni 1.27354 1.07365 0.62514
Ni2B_2 Ni 0.27354 1.07365 -0.37486
Ni2C Ni 0.72646 0.57365 0.87486
Ni2_2 Ni 1.72646 0.92635 1.37486
Ni2A Ni 1.27354 1.42635 0.12514
Ni4_2 Ni 0.50000 1.00000 -0.50000
Ni4_3 Ni 1.50000 1.00000 0.50000
O1B O 1.43960 0.96465 0.61139
O1B_2 O 0.43960 0.96465 0.61139
O2B O 1.20050 1.00760 0.61656
O3B O 1.30240 0.95466 1.28464
O4B O 1.57630 0.93457 1.25272
O4B_2 O 0.57630 0.93457 0.25272
O4_2 O 1.42370 1.06543 0.74728
O5B O 1.05240 1.06866 0.50276
O6B O 0.79960 1.10888 0.49643
O6B_2 O 0.79960 1.10888 -0.50357
O6_2 O 1.20040 0.89112 1.50357
O7B O 0.77050 1.36616 0.16780
O8B O 1.02630 1.40313 0.16913
O8A O 1.02630 1.09687 -0.33087
O8C O 0.97370 0.90313 0.33087
O8C_2 O 0.97370 0.90313 1.33087
O8A_2 O 1.02630 1.09687 0.66913
O10B O 0.53280 0.93587 0.45348
O10_2 O 0.46720 1.06413 0.54652
O10B_2 O 1.53280 0.93587 1.45348
O10_3 O 1.46720 1.06413 0.54652
O11B O 0.78080 1.00767 0.56560
O11B_2 O 0.78080 1.00767 -0.43440
O11_2 O 0.21920 0.99233 0.43440
O11_3 O 1.21920 0.99233 1.43440
H19 H 0.48600 0.85300 0.36600
H20 H 0.65900 0.84330 0.34100
O9 O 0.62470 0.85859 0.37610
loop_
_geom_bond_atom_site_label_1
_geom_bond_atom_site_label_2
_geom_bond_site_symmetry_1
_geom_bond_site_symmetry_2
C1 C2 1_555 1_555
C2 C3 1_555 1_555
C3 C4 1_555 1_555
C4 C5 1_555 1_555
C5 C6 1_555 1_555
C6 C7 1_555 1_555
C7 C2 1_555 1_555
C8 C5 1_555 1_555
C9 C8 1_555 1_555
C10 C8 1_555 1_555
C11 C8 1_555 1_555
C12 C11 1_555 1_555
C13 C12 1_555 1_555
C14 C13 1_555 1_555
C15 C14 1_555 1_555
C16 C11 1_555 1_555
C17 C14 1_555 1_555
C18 C19 1_555 1_555
C19 C20 1_555 1_555
C20 C21 1_555 1_555
C21 C22 1_555 1_555
C22 C23 1_555 1_555
C23 C24 1_555 1_555
C24 C19 1_555 1_555
C25 C22 1_555 1_555
C26 C25 1_555 1_555
C27 C25 1_555 1_555
C28 C25 1_555 1_555
C29 C28 1_555 1_555
C30 C29 1_555 1_555
C31 C30 1_555 1_555
C32 C31 1_555 1_555
C33 C28 1_555 1_555
C34 C31 1_555 1_555
F1 C9 1_555 1_555
F2 C9 1_555 1_555
F3 C9 1_555 1_555
F4 C10 1_555 1_555
F5 C10 1_555 1_555
F6 C10 1_555 1_555
F7 C26 1_555 1_555
F8 C26 1_555 1_555
F9 C26 1_555 1_555
F10 C27 1_555 1_555
F11 C27 1_555 1_555
F12 C27 1_555 1_555
H1 C3 1_555 1_555
H2 C4 1_555 1_555
H3 C6 1_555 1_555
H4 C7 1_555 1_555
H5 O10 1_555 1_555
H6 O11 1_555 1_555
H7 C12 1_555 1_555
H8 C13 1_555 1_555
H9 C15 1_555 1_555
H10 C16 1_555 1_555
H11 C20 1_555 1_555
H12 C21 1_555 1_555
H13 C23 1_555 1_555
H14 C24 1_555 1_555
H15 C29 1_555 1_555
H16 C30 1_555 1_555
H17 C32 1_555 1_555
H18 C33 1_555 1_555
H19 O9 1_555 1_555
H20 O9 1_555 1_555
Ni1 O3 1_555 1_555
Ni2 O2 1_555 1_555
Ni3 O2 1_555 1_555
Ni4 O1 1_555 1_555
O1 C1 1_555 1_555
O2 C1 1_555 1_555
O3 C17 1_555 1_555
O4 C17 1_555 1_555
O5 C18 1_555 1_555
O6 C18 1_555 1_555
O7 C34 1_555 1_555
O8 C34 1_555 1_555
O10 Ni1 1_555 1_555
O11 Ni3 1_555 1_555
C1B C2B 1_555 1_555
C2B C3B 1_555 1_555
C3B C4B 1_555 1_555
C4B C5B 1_555 1_555
C5B C6B 1_555 1_555
C6B C7B 1_555 1_555
C7B C2B 1_555 1_555
C8B C5B 1_555 1_555
C9B C8B 1_555 1_555
C10B C8B 1_555 1_555
C11B C8B 1_555 1_555
C12B C11B 1_555 1_555
C13B C12B 1_555 1_555
C14B C13B 1_555 1_555
C15B C14B 1_555 1_555
C16B C11B 1_555 1_555
C17B C14B 1_555 1_555
C18B C19B 1_555 1_555
C19B C20B 1_555 1_555
C20B C21B 1_555 1_555
C21B C22B 1_555 1_555
C22B C23B 1_555 1_555
C23B C24B 1_555 1_555
C24B C19B 1_555 1_555
C25B C22B 1_555 1_555
C26B C25B 1_555 1_555
C27B C25B 1_555 1_555
C28B C25B 1_555 1_555
C29B C28B 1_555 1_555
C30B C29B 1_555 1_555
C31B C30B 1_555 1_555
C32B C31B 1_555 1_555
C33B C28B 1_555 1_555
C34B C31B 1_555 1_555
F1B C9B 1_555 1_555
F2B C9B 1_555 1_555
F3B C9B 1_555 1_555
F4B C10B 1_555 1_555
F5B C10B 1_555 1_555
F6B C10B 1_555 1_555
F7B C26B 1_555 1_555
F8B C26B 1_555 1_555
F9B C26B 1_555 1_555
F10B C27B 1_555 1_555
F11B C27B 1_555 1_555
F12B C27B 1_555 1_555
H1B C3B 1_555 1_555
H2B C4B 1_555 1_555
H3B C6B 1_555 1_555
H4B C7B 1_555 1_555
H5B O10B 1_555 1_555
H5_2 O10_2 1_555 1_555
H5B_2 O10B_2 1_555 1_555
H5_3 O10_3 1_555 1_555
H6B O11B 1_555 1_555
H6B_2 O11B_2 1_555 1_555
H6_2 O11_2 1_555 1_555
H6_3 O11_3 1_555 1_555
H7B C12B 1_555 1_555
H8B C13B 1_555 1_555
H9B C15B 1_555 1_555
H10B C16B 1_555 1_555
H11B C20B 1_555 1_555
H12B C21B 1_555 1_555
H13B C23B 1_555 1_555
H14B C24B 1_555 1_555
H15B C29B 1_555 1_555
H16B C30B 1_555 1_555
H17B C32B 1_555 1_555
H18B C33B 1_555 1_555
Ni1B O3B 1_555 1_555
Ni1B_2 O6 1_555 1_555
Ni1A O8 1_555 1_555
Ni1_2 O6B 1_555 1_555
Ni1C O8B 1_555 1_555
Ni1B_3 O10B 1_555 1_555
Ni2B O2B 1_555 1_555
Ni2B_2 O4 1_555 1_555
Ni2C O8 1_555 1_555
Ni2_2 O4B 1_555 1_555
Ni2A O8B 1_555 1_555
Ni4_2 O10 1_555 1_555
Ni4_3 O11 1_555 1_555
O1B C1B 1_555 1_555
O1B_2 Ni4 1_555 1_555
O2B Ni3 1_555 1_555
O3B C17B 1_555 1_555
O4B C17B 1_555 1_555
O4B_2 Ni2 1_555 1_555
O4_2 Ni2B 1_555 1_555
O5B Ni3 1_555 1_555
O6B C18B 1_555 1_555
O6B_2 Ni1 1_555 1_555
O6_2 Ni1B 1_555 1_555
O7B C34B 1_555 1_555
O8B C34B 1_555 1_555
O8A Ni1 1_555 1_555
O8C Ni2 1_555 1_555
O8C_2 Ni1B 1_555 1_555
O8A_2 Ni1_2 1_555 1_555
O10B Ni2 1_555 1_555
O10_2 Ni4 1_555 1_555
O10B_2 Ni1B 1_555 1_555
O10_3 Ni2B 1_555 1_555
O11B Ni3 1_555 1_555
O11B_2 Ni1 1_555 1_555
O11_2 Ni4 1_555 1_555
O11_3 Ni1B 1_555 1_555
C15 C16 1_555 1_555
C32 C33 1_555 1_555
Ni3 O5 1_555 1_555
Ni4 O10B 1_555 1_555
Ni4 O11B 1_555 1_555
O10 Ni2B_2 1_555 1_555
O11 Ni1B_2 1_555 1_555
C1B O2B 1_555 1_555
C15B C16B 1_555 1_555
C18B O5B 1_555 1_555
C32B C33B 1_555 1_555
Ni1B_2 O8C 1_555 1_555
Ni1_2 O10_2 1_555 1_555
Ni1_2 O11B 1_555 1_555
Ni1B_3 O11_2 1_555 1_555
Ni2B O8A_2 1_555 1_555
Ni2_2 O10B_2 1_555 1_555
Ni4_2 O11B_2 1_555 1_555
Ni4_3 O1B 1_555 1_555
Ni4_3 O10_3 1_555 1_555

#END
