
#######################################################################
#
#                 Cambridge Crystallographic Data Centre
#                                CCDC 
#
#######################################################################
#
# If this CIF has been generated from an entry in the Cambridge 
# Structural Database, then it will include bibliographic, chemical, 
# crystal, experimental, refinement or atomic coordinate data resulting 
# from the CCDC's data processing and validation procedures.
#
#######################################################################

data_VEHRIL
_symmetry_cell_setting           triclinic
_symmetry_space_group_name_H-M   'P -1'
_symmetry_Int_Tables_number      2
_space_group_name_Hall           '-P 1'
loop_
_symmetry_equiv_pos_site_id
_symmetry_equiv_pos_as_xyz
1 x,y,z
2 -x,-y,-z
_cell_length_a                   16.473(3)
_cell_length_b                   17.068(3)
_cell_length_c                   17.384(3)
_cell_angle_alpha                77.35(3)
_cell_angle_beta                 62.91(3)
_cell_angle_gamma                62.40(3)
_cell_volume                     3856.1
loop_
_atom_site_label
_atom_site_type_symbol
_atom_site_fract_x
_atom_site_fract_y
_atom_site_fract_z
O1 O 0.6384(6) 0.6480(5) 0.2787(5)
O2 O 1.2814(6) -0.2030(6) 0.3433(5)
O3 O 1.1191(6) -0.1285(5) 0.3649(5)
C1 C 1.2128(8) -0.1469(7) 0.3204(6)
C2 C 1.3558(9) -0.0774(8) 0.0969(7)
C3 C 1.3361(9) -0.1197(8) 0.1793(8)
C4 C 1.2711(10) -0.0123(8) 0.0812(8)
C5 C 1.2398(8) -0.0994(7) 0.2360(6)
N1 N 1.1573(7) -0.0378(6) 0.2220(6)
C6 C 1.1760(9) 0.0035(7) 0.1448(7)
Sm1 Sm 1.04052(4) 0.19324(3) -0.04268(4)
Sm2 Sm 0.98264(4) -0.02417(4) 0.32194(4)
O4 O 1.0916(9) 0.1183(7) 0.0702(7)
O5 O 0.9257(6) 0.3273(6) 0.0381(6)
C7 C 0.2459(9) 0.8648(8) 0.5431(7)
C8 C 0.8431(9) 0.3823(8) 0.0347(8)
Sm3 Sm 1.31609(4) -0.31549(3) 0.44538(3)
O15 O 0.4919(6) 0.6358(5) 0.3443(6)
O16 O 0.9281(7) 0.7010(5) 0.1551(5)
Sm4 Sm 0.77632(4) 0.51840(3) 0.19793(3)
N2 N 0.4034(6) 0.7776(5) 0.4345(5)
O26 O 0.8551(7) 0.6245(6) 0.1439(5)
N3 N 0.8794(7) 0.2828(5) -0.0654(5)
O27 O 0.9310(6) 0.1415(6) -0.2158(6)
O31 O 0.1925(6) 0.9315(7) 0.5913(6)
O33 O 0.7873(7) 0.4506(5) 0.0772(6)
O39 O 0.9992(6) 0.0704(6) 0.1912(6)
O43 O 0.7207(9) 0.4678(7) 0.3503(6)
N4 N 0.8392(6) 0.5493(6) 0.2940(5)
O48 O 0.7462(7) 0.4218(6) 0.4707(6)
O51 O 0.7203(7) 0.6222(6) 0.0914(6)
O54 O 1.0192(6) 0.1372(5) -0.1470(6)
O55 O 0.9550(7) 0.4448(8) 0.1040(9)
O58 O 1.1461(8) -0.2711(7) 0.4660(8)
O59 O 0.6258(6) 0.4941(6) 0.2403(7)
C9 C 0.8851(8) 0.6021(7) 0.2680(6)
C10 C 0.8234(8) 0.5127(7) 0.3729(6)
C11 C 0.7577(8) 0.4633(7) 0.4000(8)
C12 C 0.8926(8) 0.6457(7) 0.1810(7)
O60 O 1.3941(9) -0.3833(9) 0.5458(8)
C13 C 0.8152(7) 0.3580(6) -0.0244(6)
C14 C 0.8595(8) 0.2576(7) -0.1192(7)
C15 C 0.9112(8) 0.5768(8) 0.3967(7)
O61 O 0.8443(9) 0.3516(7) 0.2206(8)
C16 C 0.9432(9) 0.1718(7) -0.1652(7)
C17 C 0.7742(8) 0.3009(7) -0.1300(8)
C18 C 0.9238(9) 0.6157(8) 0.3182(7)
O62 O 0.8646(7) -0.0124(8) 0.2674(8)
C19 C 0.3941(10) 0.9077(8) 0.4735(7)
C20 C 0.4979(8) 0.7574(7) 0.3795(6)
C21 C 0.7025(9) 0.3805(7) -0.0865(7)
C22 C 0.7243(9) 0.4089(7) -0.0314(8)
O63 O 0.9439(8) -0.0330(9) 0.4823(6)
H1 H 0.9470 0.0087 0.4985
H2 H 0.9845 -0.0808 0.4958
O64 O 0.9873(8) 0.1033(7) 0.3622(8)
C23 C 0.5461(10) 0.8111(9) 0.3686(8)
O65 O 1.1465(9) 0.2468(8) -0.0236(8)
C24 C 0.4922(9) 0.8874(7) 0.4150(8)
C25 C 0.8566(9) 0.5233(8) 0.4272(8)
O66 O 0.9076(9) 0.1529(10) 0.0744(10)
H3 H 0.8978 0.1644 0.1238
H4 H 0.9236 0.0979 0.0735
C26 C 0.5479(8) 0.6740(7) 0.3301(6)
O67 O 1.3463(9) -0.4021(9) 0.3307(8)
H5 H 1.4082 -0.4303 0.2993
H6 H 1.3230 -0.4410 0.3499
C27 C 0.3514(8) 0.8501(7) 0.4830(6)
O68 O 0.9311(11) -0.1490(11) 0.3975(9)
H7 H 0.8736 -0.1408 0.4035
H8 H 0.9278 -0.1610 0.4487
C28 C 1.0843(12) 0.0686(9) 0.1342(8)
O69 O 1.2133(10) 0.1037(12) -0.1468(14)
O70 O 1.083(2) 0.0238(12) -0.029(2)
O72 O 0.2171(6) 0.8088(6) 0.5421(6)
H9 H 0.9703 0.4134 0.0632
H10 H 1.0063 0.4543 0.0903
H11 H 1.1285 -0.2241 0.4372
H12 H 1.0987 -0.2873 0.4849
H13 H 0.5815 0.5214 0.2866
H14 H 0.5960 0.4905 0.2126
H15 H 1.4447 -0.4316 0.5440
H16 H 1.4042 -0.3422 0.5550
H17 H 0.8537 0.3395 0.1711
H18 H 0.8628 0.3019 0.2452
H19 H 0.8968 -0.0607 0.2397
H20 H 0.8042 -0.0063 0.2943
H21 H 0.9256 0.1298 0.3941
H22 H 1.0079 0.1419 0.3315
H23 H 1.2102 0.2247 -0.0434
H24 H 1.1334 0.2909 -0.0572
H25 H 1.1320 -0.0270 -0.0327
H26 H 1.0840 0.0310 -0.0806
H33 H 0.7660 0.6296 0.0958
H34 H 0.6968 0.5941 0.1353
H35 H 1.2189 0.0584 -0.1659
H36 H 1.2704 0.1048 -0.1762
H37 H 0.9589 0.6530 0.2964
H38 H 0.7621 0.2789 -0.1675
H39 H 0.3561 0.9592 0.5079
H40 H 0.6420 0.4141 -0.0947
H41 H 0.6778 0.4621 -0.0003
H42 H 0.6146 0.7936 0.3314
H43 H 0.5219 0.9263 0.4073
H44 H 0.8439 0.4968 0.4821
H45 H 1.4228 -0.0919 0.0536
H46 H 1.3897 -0.1614 0.1932
H47 H 1.2799 0.0201 0.0275
H48 H 0.9385 0.5850 0.4299
Sm1A Sm 0.95948(4) 0.80676(3) 0.04268(4)
Sm2A Sm 1.01736(4) 0.02417(4) -0.32194(4)
Sm2A_2 Sm 0.01736(4) 1.02417(4) 0.67806(4)
Sm3_2 Sm 0.31609(4) 0.68451(3) 0.44538(3)
Sm3A Sm 0.68391(4) 0.31549(3) 0.55462(3)
O15_2 O 1.4919(6) -0.3642(5) 0.3443(6)
O16A O 1.0719(7) 0.2990(5) -0.1551(5)
N2_2 N 1.4034(6) -0.2224(5) 0.4345(5)
O27A O 1.0690(6) -0.1415(6) 0.2158(6)
O31A O 0.8075(6) 0.0685(7) 0.4087(6)
O48A O 1.2538(7) -0.4218(6) 0.5293(6)
O72_2 O 1.2171(6) -0.1912(6) 0.5421(6)
Mo1 Mo 0.32559(8) 0.16876(6) 0.11226(6)
Mo2 Mo 0.21754(8) 0.46583(6) 0.32643(7)
Mo3 Mo 0.11799(7) 0.31855(7) 0.37910(7)
Mo4 Mo 0.28295(8) 0.08549(7) 0.31479(7)
Mo5 Mo 0.55409(8) 0.10700(7) 0.32889(7)
Mo6 Mo 0.18640(8) 0.40221(7) 0.17579(7)
Mo7 Mo 0.45540(8) 0.31642(7) 0.02735(6)
Mo8 Mo 0.51840(8) 0.03380(6) 0.16625(7)
Mo9 Mo 0.31018(8) 0.18553(7) 0.46569(6)
O6 O 0.4546(6) 0.0974(5) 0.4332(5)
O7 O 0.4172(6) 0.2271(5) 0.0423(6)
O8 O 0.4082(7) 0.0006(5) 0.2568(6)
O9 O 0.4535(6) 0.0602(6) 0.0935(5)
O10 O 0.3093(7) 0.1062(6) 0.3986(6)
O11 O 0.5384(6) 0.0466(6) 0.2663(5)
O12 O 0.1154(7) 0.4317(5) 0.3990(6)
O13 O 0.0836(6) 0.3762(6) 0.2865(6)
O14 O 0.2243(7) 0.2801(6) 0.1514(6)
Si1 Si 0.37557(19) 0.25025(16) 0.24667(16)
Mo10 Mo 0.42805(8) 0.32004(7) 0.38932(7)
Mo11 Mo 0.47899(8) 0.40521(7) 0.16660(7)
Mo12 Mo 0.63028(8) 0.19401(7) 0.10611(7)
O17 O 0.4560(6) 0.2811(5) 0.1654(5)
O18 O 0.2193(7) 0.0220(6) 0.3673(6)
O19 O 0.4732(6) 0.4099(5) 0.0606(5)
O20 O 0.4052(6) 0.2255(5) 0.3286(5)
O21 O 0.5173(8) 0.4847(6) 0.1536(7)
O22 O 0.2636(6) 0.1078(6) 0.2065(5)
O23 O 0.3445(7) 0.2666(6) 0.4867(6)
O24 O 0.3427(6) 0.4605(6) 0.2273(5)
O25 O 0.3771(6) 0.1645(5) 0.2191(5)
O28 O 0.4401(7) 0.3756(6) 0.4491(6)
O29 O 0.4868(6) 0.3570(5) 0.2775(6)
O30 O 0.2635(6) 0.3305(5) 0.2738(5)
O32 O 0.6193(7) 0.1577(6) 0.2160(6)
O34 O 0.5399(7) 0.2116(6) 0.3773(6)
O35 O 0.5883(6) 0.1027(6) 0.1083(5)
O36 O 0.3079(6) 0.3909(5) 0.0930(6)
O37 O 0.6584(6) 0.0327(6) 0.3419(6)
O38 O 0.2973(7) 0.4054(6) 0.3857(5)
O40 O 0.4668(8) 0.3519(6) -0.0732(6)
O41 O 0.6154(6) 0.3056(6) 0.1185(6)
O42 O 0.1701(6) 0.5698(5) 0.3574(6)
O44 O 0.3037(7) 0.1511(6) 0.0346(6)
O45 O 0.1092(7) 0.4586(6) 0.1250(6)
O46 O 0.1702(7) 0.2069(6) 0.3433(6)
O47 O 0.7542(6) 0.1434(6) 0.0472(7)
O49 O 0.1986(7) 0.2677(5) 0.4477(6)
O50 O 0.5888(7) 0.2427(6) 0.0073(6)
O52 O 0.1671(7) 0.4919(6) 0.2352(6)
O53 O 0.2605(8) 0.1476(7) 0.5651(6)
O56 O 0.6081(8) -0.0685(6) 0.1366(6)
O57 O 0.0044(6) 0.3330(6) 0.4580(6)
O71 O 0.4261(10) 0.2170(8) 0.8605(9)
H27 H 0.3699 0.2555 0.8928
H28 H 0.4170 0.1705 0.8678
O73 O 0.274(2) 0.741(2) 0.7444(17)
H29 H 0.2637 0.7004 0.7359
H30 H 0.3249 0.7414 0.6992
O74 O 0.9617(10) 0.7703(10) 0.7572(11)
H31 H 0.9110 0.7586 0.7753
H32 H 1.0033 0.7270 0.7741
loop_
_geom_bond_atom_site_label_1
_geom_bond_atom_site_label_2
_geom_bond_site_symmetry_1
_geom_bond_site_symmetry_2
O1 Sm4 1_555 1_555
O2 C1 1_555 1_555
O3 C1 1_555 1_555
C1 C5 1_555 1_555
C2 C3 1_555 1_555
C3 C5 1_555 1_555
C4 C2 1_555 1_555
C5 N1 1_555 1_555
N1 C6 1_555 1_555
C6 C4 1_555 1_555
Sm1 O4 1_555 1_555
Sm2 O3 1_555 1_555
O4 C28 1_555 1_555
O5 Sm1 1_555 1_555
C7 O31 1_555 1_555
C8 O5 1_555 1_555
Mo1 O7 1_555 1_555
Mo2 O12 1_555 1_555
Mo3 O12 1_555 1_555
Mo4 O8 1_555 1_555
Mo5 O6 1_555 1_555
Mo6 O13 1_555 1_555
Mo7 O7 1_555 1_555
Mo8 O8 1_555 1_555
Mo9 O6 1_555 1_555
O9 Mo1 1_555 1_555
O10 Mo4 1_555 1_555
O11 Mo5 1_555 1_555
O13 Mo3 1_555 1_555
O14 Mo1 1_555 1_555
Sm3 O2 1_555 1_555
O15 C26 1_555 1_555
O16 C12 1_555 1_555
Si1 O17 1_555 1_555
Sm4 O26 1_555 1_555
Mo10 O20 1_555 1_555
Mo11 O17 1_555 1_555
Mo12 O17 1_555 1_555
O17 Mo7 1_555 1_555
O18 Mo4 1_555 1_555
O19 Mo7 1_555 1_555
O20 Mo5 1_555 1_555
O21 Mo11 1_555 1_555
O22 Mo1 1_555 1_555
O23 Mo9 1_555 1_555
O24 Mo2 1_555 1_555
O25 Mo1 1_555 1_555
N2 C20 1_555 1_555
O26 C12 1_555 1_555
N3 Sm1 1_555 1_555
O27 C16 1_555 1_555
O28 Mo10 1_555 1_555
O29 Mo10 1_555 1_555
O30 Mo2 1_555 1_555
O31 Sm2A_2 1_555 1_555
O32 Mo5 1_555 1_555
O33 C8 1_555 1_555
O34 Mo5 1_555 1_555
O35 Mo8 1_555 1_555
O36 Mo6 1_555 1_555
O37 Mo5 1_555 1_555
O38 Mo2 1_555 1_555
O39 Sm2 1_555 1_555
O40 Mo7 1_555 1_555
O41 Mo11 1_555 1_555
O42 Mo2 1_555 1_555
O43 Sm4 1_555 1_555
O44 Mo1 1_555 1_555
O45 Mo6 1_555 1_555
N4 Sm4 1_555 1_555
O46 Mo3 1_555 1_555
O47 Mo12 1_555 1_555
O48 C11 1_555 1_555
O49 Mo3 1_555 1_555
O50 Mo7 1_555 1_555
O51 Sm4 1_555 1_555
O52 Mo2 1_555 1_555
O53 Mo9 1_555 1_555
O54 Sm1 1_555 1_555
O55 Sm4 1_555 1_555
O56 Mo8 1_555 1_555
O57 Mo3 1_555 1_555
O58 Sm3 1_555 1_555
O59 Sm4 1_555 1_555
C9 N4 1_555 1_555
C10 N4 1_555 1_555
C11 O43 1_555 1_555
C12 C9 1_555 1_555
O60 Sm3 1_555 1_555
C13 C8 1_555 1_555
C14 N3 1_555 1_555
C15 C18 1_555 1_555
O61 Sm4 1_555 1_555
C16 O54 1_555 1_555
C17 C14 1_555 1_555
C18 C9 1_555 1_555
O62 Sm2 1_555 1_555
C19 C24 1_555 1_555
C20 C23 1_555 1_555
C21 C17 1_555 1_555
C22 C13 1_555 1_555
O63 Sm2 1_555 1_555
H1 O63 1_555 1_555
H2 O63 1_555 1_555
O64 Sm2 1_555 1_555
C23 C24 1_555 1_555
O65 Sm1 1_555 1_555
C24 H43 1_555 1_555
C25 C10 1_555 1_555
O66 Sm1 1_555 1_555
H3 O66 1_555 1_555
H4 O66 1_555 1_555
C26 O1 1_555 1_555
O67 Sm3 1_555 1_555
H5 O67 1_555 1_555
H6 O67 1_555 1_555
C27 C7 1_555 1_555
O68 Sm2 1_555 1_555
H7 O68 1_555 1_555
H8 O68 1_555 1_555
C28 C6 1_555 1_555
O69 Sm1 1_555 1_555
O70 Sm1 1_555 1_555
O71 H27 1_555 1_555
O72 C7 1_555 1_555
O73 H29 1_555 1_555
O74 H31 1_555 1_555
H9 O55 1_555 1_555
H10 O55 1_555 1_555
H11 O58 1_555 1_555
H12 O58 1_555 1_555
H13 O59 1_555 1_555
H14 O59 1_555 1_555
H15 O60 1_555 1_555
H16 O60 1_555 1_555
H17 O61 1_555 1_555
H18 O61 1_555 1_555
H19 O62 1_555 1_555
H20 O62 1_555 1_555
H21 O64 1_555 1_555
H22 O64 1_555 1_555
H23 O65 1_555 1_555
H24 O65 1_555 1_555
H25 O70 1_555 1_555
H26 O70 1_555 1_555
H28 O71 1_555 1_555
H30 O73 1_555 1_555
H32 O74 1_555 1_555
H33 O51 1_555 1_555
H34 O51 1_555 1_555
H35 O69 1_555 1_555
H36 O69 1_555 1_555
H37 C18 1_555 1_555
H38 C17 1_555 1_555
H39 C19 1_555 1_555
H40 C21 1_555 1_555
H41 C22 1_555 1_555
H42 C23 1_555 1_555
H44 C25 1_555 1_555
H45 C2 1_555 1_555
H46 C3 1_555 1_555
H47 C4 1_555 1_555
H48 C15 1_555 1_555
Sm1A O16 1_555 1_555
Sm2A O27 1_555 1_555
Sm3_2 O15 1_555 1_555
Sm3A O48 1_555 1_555
O15_2 Sm3 1_555 1_555
O16A Sm1 1_555 1_555
N2_2 Sm3 1_555 1_555
O27A Sm2 1_555 1_555
O31A Sm2 1_555 1_555
O48A Sm3 1_555 1_555
O72_2 Sm3 1_555 1_555
N1 Sm2 1_555 1_555
Mo3 O30 1_555 1_555
Mo4 O22 1_555 1_555
Mo4 O25 1_555 1_555
Mo4 O46 1_555 1_555
Mo6 O14 1_555 1_555
Mo6 O30 1_555 1_555
Mo6 O52 1_555 1_555
Mo7 O36 1_555 1_555
Mo8 O9 1_555 1_555
Mo8 O11 1_555 1_555
Mo8 O25 1_555 1_555
Mo9 O10 1_555 1_555
Mo9 O20 1_555 1_555
Mo9 O49 1_555 1_555
Si1 O20 1_555 1_555
Si1 O25 1_555 1_555
Si1 O30 1_555 1_555
Sm4 O33 1_555 1_555
Mo10 O23 1_555 1_555
Mo10 O34 1_555 1_555
Mo10 O38 1_555 1_555
Mo11 O19 1_555 1_555
Mo11 O24 1_555 1_555
Mo11 O29 1_555 1_555
Mo12 O32 1_555 1_555
Mo12 O35 1_555 1_555
Mo12 O41 1_555 1_555
Mo12 O50 1_555 1_555
N2 C27 1_555 1_555
N2 Sm3_2 1_555 1_555
N3 C13 1_555 1_555
O39 C28 1_555 1_555
C10 C11 1_555 1_555
C14 C16 1_555 1_555
C15 C25 1_555 1_555
C19 C27 1_555 1_555
C20 C26 1_555 1_555
C21 C22 1_555 1_555
O72 Sm3_2 1_555 1_555

#END
