
#######################################################################
#
#                 Cambridge Crystallographic Data Centre
#                                CCDC 
#
#######################################################################
#
# If this CIF has been generated from an entry in the Cambridge 
# Structural Database, then it will include bibliographic, chemical, 
# crystal, experimental, refinement or atomic coordinate data resulting 
# from the CCDC's data processing and validation procedures.
#
#######################################################################

data_VEWKUF
_symmetry_cell_setting           monoclinic
_symmetry_space_group_name_H-M   'P 21'
_symmetry_Int_Tables_number      4
_space_group_name_Hall           'P 2yb'
loop_
_symmetry_equiv_pos_site_id
_symmetry_equiv_pos_as_xyz
1 x,y,z
2 -x,1/2+y,-z
_cell_length_a                   20.6536(3)
_cell_length_b                   33.4974(5)
_cell_length_c                   20.7926(3)
_cell_angle_alpha                90
_cell_angle_beta                 118.6190(10)
_cell_angle_gamma                90
_cell_volume                     12627.7
loop_
_atom_site_label
_atom_site_type_symbol
_atom_site_fract_x
_atom_site_fract_y
_atom_site_fract_z
Zn4 Zn 0.69720(5) -0.14971(3) 0.33633(5)
O17 O 0.6999(3) -0.09254(15) 0.3384(3)
O18 O 0.5829(5) -0.0884(3) 0.3232(5)
O19 O 1.1965(3) 0.33764(18) 0.6237(3)
O20 O 0.2880(4) 0.3510(2) 0.5321(4)
O21 O 0.4528(4) 0.3585(2) -0.2087(3)
O22 O 0.3472(3) 0.33088(17) -0.2333(3)
O23 O 0.3609(4) 0.3283(2) 0.6232(4)
O24 O 1.2266(5) 0.2805(3) 0.6159(4)
C107 C 0.6416(7) -0.0743(4) 0.3193(6)
C108 C 0.6420(6) -0.0289(3) 0.3263(5)
C109 C 0.5775(5) -0.0083(3) 0.2951(5)
C110 C 0.5773(5) 0.0332(3) 0.2897(5)
C111 C 0.6407(5) 0.0541(3) 0.3225(5)
C112 C 0.7115(7) 0.0326(4) 0.3686(7)
C113 C 0.7071(7) -0.0096(4) 0.3590(6)
C114 C 0.6401(4) 0.0983(2) 0.3247(4)
C115 C 0.5892(5) 0.1196(3) 0.2643(4)
C116 C 0.5902(5) 0.1618(3) 0.2634(5)
C117 C 0.6392(4) 0.1820(2) 0.3216(4)
C118 C 0.6843(5) 0.1608(3) 0.3857(5)
C119 C 0.6866(5) 0.1212(3) 0.3894(5)
C120 C 0.6416(4) 0.2294(2) 0.3290(4)
C121 C 0.5893(4) 0.2434(2) 0.3605(4)
C122 C 0.5615(4) 0.2160(2) 0.3935(4)
C123 C 0.5160(6) 0.2316(3) 0.4233(5)
C124 C 0.5049(5) 0.2725(3) 0.4238(4)
C125 C 0.5310(4) 0.2983(2) 0.3885(4)
C126 C 0.5741(4) 0.2831(2) 0.3598(4)
C127 C 0.7184(5) 0.2423(2) 0.3728(4)
C128 C 0.7752(5) 0.2232(2) 0.3614(4)
C129 C 0.8462(5) 0.2345(2) 0.3998(4)
C130 C 0.8699(5) 0.2629(3) 0.4542(5)
C131 C 0.8212(5) 0.2812(3) 0.4712(5)
C132 C 0.7451(5) 0.2686(2) 0.4293(4)
C133 C 0.4604(5) 0.2881(3) 0.4554(4)
C134 C 0.4102(5) 0.3174(3) 0.4239(5)
C135 C 0.3664(6) 0.3329(3) 0.4563(5)
C136 C 0.3781(6) 0.3167(3) 0.5217(6)
C137 C 0.4274(5) 0.2871(3) 0.5552(5)
C138 C 0.4732(7) 0.2699(4) 0.5243(7)
C139 C 0.3401(6) 0.3355(3) 0.5637(6)
C140 C 0.4519(5) 0.3209(2) -0.1062(4)
C141 C 0.6056(4) 0.2457(2) 0.2505(4)
C142 C 0.6510(5) 0.2656(3) 0.2190(5)
C143 C 0.6159(5) 0.2788(3) 0.1492(5)
C144 C 0.5417(5) 0.2769(2) 0.1078(4)
C145 C 0.4963(5) 0.2633(3) 0.1374(4)
C146 C 0.5283(5) 0.2487(3) 0.2029(4)
C147 C 0.9484(6) 0.2769(3) 0.4936(6)
C148 C 1.0068(7) 0.2441(4) 0.5135(6)
C149 C 1.0791(7) 0.2544(4) 0.5486(6)
C150 C 1.1019(7) 0.2917(4) 0.5686(6)
C151 C 1.0521(7) 0.3195(4) 0.5617(6)
C152 C 0.9712(7) 0.3127(4) 0.5229(6)
C153 C 0.4078(8) 0.3375(4) -0.1975(7)
C154 C 0.4045(6) 0.2971(3) -0.0936(5)
C155 C 0.4386(6) 0.2799(3) -0.0205(5)
C156 C 0.5070(6) 0.2923(3) 0.0289(5)
C157 C 0.5456(6) 0.3204(3) 0.0096(6)
C158 C 0.5111(7) 0.3333(3) -0.0646(6)
C159 C 1.1791(6) 0.3034(3) 0.6052(5)
Zn4A Zn 0.30280(5) 0.35029(3) -0.33633(5)
Zn4A_2 Zn 0.30280(5) 0.35029(3) 0.66367(5)
Zn4A_3 Zn 1.30280(5) 0.35029(3) 0.66367(5)
O19A O 0.8035(3) -0.16236(18) 0.3763(3)
O22A O 0.6528(3) -0.16912(17) 0.2333(3)
O23A O 0.6391(4) -0.1717(2) 0.3768(4)
Zn1 Zn 0.34864(5) 0.99806(3) 1.19185(5)
Zn2 Zn 0.15203(5) 1.06097(3) 0.80375(5)
Zn3 Zn 0.25273(7) 1.02997(4) 0.99479(7)
O1 O -0.3491(3) 0.55453(14) 0.8016(2)
O2 O -0.2489(2) 0.55690(14) 0.9145(2)
O3 O 0.7546(3) 0.58920(14) 1.1583(3)
O4 O 0.7394(2) 0.58354(13) 1.0439(2)
O5 O -0.1406(3) 0.53394(15) 1.0635(2)
O6 O -0.0921(3) 0.57962(15) 1.1547(3)
O7 O -0.5872(3) 0.98212(15) 1.1513(3)
O8 O -0.6361(3) 1.02491(15) 1.0603(2)
O9 O 0.2577(3) 1.00243(14) 0.9121(2)
O10 O 0.1624(3) 1.00391(17) 0.7992(3)
O11 O 0.2571(3) 0.96799(14) 1.1505(2)
O12 O 0.2426(3) 0.97435(14) 1.0357(2)
O13 O -0.1047(3) 0.58094(18) 0.2946(3)
O14 O -0.5916(3) 0.97756(16) 0.2912(3)
O15 O -0.6731(4) 1.00147(19) 0.3185(3)
O16 O -0.0135(4) 0.5354(3) 0.3319(4)
C1 C 0.2096(4) 0.9865(2) 0.8559(4)
C2 C 0.2088(4) 0.9409(2) 0.8556(4)
C3 C 0.1495(5) 0.9200(3) 0.7996(4)
C4 C 0.1455(4) 0.8809(3) 0.8010(4)
C5 C 0.2015(4) 0.8578(2) 0.8555(4)
C6 C 0.2570(4) 0.8774(2) 0.9102(4)
C7 C 0.2617(4) 0.9199(2) 0.9099(4)
C8 C 0.7151(4) 0.5917(2) 1.0890(4)
C9 C 0.6396(4) 0.6075(2) 1.0583(4)
C10 C 0.6125(5) 0.6133(3) 1.1062(5)
C11 C 0.5319(5) 0.6252(3) 1.0719(5)
C12 C 0.4947(4) 0.6353(2) 0.9998(4)
C13 C 0.5265(4) 0.6307(2) 0.9567(4)
C14 C 0.5986(5) 0.6165(2) 0.9855(4)
C15 C -0.2994(4) 0.5754(2) 0.8592(4)
C16 C -0.3052(4) 0.6172(2) 0.8583(4)
C17 C -0.2446(5) 0.6414(3) 0.9128(4)
C18 C -0.2463(5) 0.6815(3) 0.9135(4)
C19 C -0.3109(4) 0.7020(2) 0.8568(4)
C20 C -0.3679(5) 0.6797(2) 0.8072(4)
C21 C -0.3630(4) 0.6365(2) 0.8065(4)
C22 C 0.2199(4) 0.9646(2) 1.0806(4)
C23 C 0.1445(4) 0.9486(2) 1.0504(4)
C24 C 0.1084(5) 0.9426(2) 1.0946(4)
C25 C 0.0395(5) 0.9282(3) 1.0679(4)
C26 C -0.0032(4) 0.9216(2) 0.9904(4)
C27 C 0.0317(5) 0.9249(2) 0.9467(4)
C28 C 0.1051(4) 0.9384(2) 0.9749(4)
C29 C -0.0797(4) 0.9096(2) 0.9569(4)
C30 C -0.1249(5) 0.9258(3) 0.9843(4)
C31 C -0.2014(4) 0.9148(2) 0.9502(4)
C32 C -0.2311(4) 0.88941(19) 0.8897(3)
C33 C -0.1863(5) 0.8712(2) 0.8664(4)
C34 C -0.1120(5) 0.8814(3) 0.9013(4)
C35 C 0.1954(4) 0.8139(2) 0.8545(4)
C36 C 0.1647(5) 0.7901(3) 0.7897(4)
C37 C 0.1557(5) 0.7522(3) 0.7886(5)
C38 C 0.1851(4) 0.7290(2) 0.8543(3)
C39 C 0.2209(5) 0.7506(3) 0.9207(4)
C40 C 0.2231(4) 0.7923(2) 0.9211(4)
C41 C 0.1466(4) 0.6666(2) 0.7783(4)
C42 C 0.0766(5) 0.6690(3) 0.7381(5)
C43 C 0.0371(6) 0.6542(3) 0.6625(5)
C44 C 0.0789(5) 0.6354(3) 0.6349(5)
C45 C 0.1527(5) 0.6304(3) 0.6787(5)
C46 C 0.1887(4) 0.6451(2) 0.7505(4)
C47 C 0.2655(4) 0.6693(2) 0.9006(4)
C48 C 0.3154(5) 0.6870(2) 0.8767(4)
C49 C 0.2930(5) 0.6459(2) 0.9571(4)
C50 C -0.3131(4) 0.8772(2) 0.8506(4)
C51 C -0.3524(4) 0.8942(2) 0.8908(4)
C52 C -0.3674(5) 0.9361(2) 0.8878(4)
C53 C -0.4029(4) 0.9522(2) 0.9241(4)
C54 C -0.4248(4) 0.9307(2) 0.9635(4)
C55 C -0.4128(5) 0.8878(3) 0.9702(5)
C56 C -0.3747(4) 0.8719(2) 0.9362(4)
C57 C -0.3540(4) 0.8954(2) 0.7730(4)
C58 C -0.3224(5) 0.9121(3) 0.7390(4)
C59 C -0.3625(5) 0.9266(3) 0.6670(5)
C60 C -0.4395(5) 0.9238(2) 0.6281(4)
C61 C -0.4744(4) 0.9057(2) 0.6640(4)
C62 C -0.4334(4) 0.8894(2) 0.7336(4)
C63 C -0.4841(4) 0.9407(2) 0.5561(4)
C64 C -0.4527(5) 0.9403(3) 0.5054(5)
C65 C -0.4987(4) 0.9558(2) 0.4332(4)
C66 C -0.5676(4) 0.9692(2) 0.4151(4)
C67 C -0.5955(5) 0.9703(2) 0.4616(4)
C68 C -0.5517(5) 0.9551(2) 0.5331(4)
C69 C -0.3130(4) 0.7465(2) 0.8564(4)
C70 C -0.2706(4) 0.7724(2) 0.9194(4)
C71 C -0.3543(4) 0.7669(2) 0.7906(4)
C72 C 0.4180(4) 0.6498(2) 0.9702(4)
C73 C 0.3913(5) 0.6771(2) 0.9114(4)
C74 C 0.3673(5) 0.6336(3) 0.9929(4)
C75 C 0.1832(4) 0.6830(2) 0.8556(4)
C76 C 0.1420(4) 0.6658(2) 0.8948(4)
C77 C 0.1296(4) 0.6258(2) 0.8916(4)
C78 C 0.0927(5) 0.6078(2) 0.9252(4)
C79 C 0.0625(4) 0.6317(2) 0.9592(4)
C80 C 0.0717(5) 0.6713(3) 0.9589(4)
C81 C 0.1081(4) 0.6904(2) 0.9241(4)
C82 C 0.0242(4) 0.6142(2) 0.9979(4)
C83 C 0.0238(5) 0.6320(3) 1.0570(5)
C84 C -0.4668(4) 0.9489(2) 0.9994(4)
C85 C -0.4586(4) 0.9352(2) 1.0663(4)
C86 C -0.3158(4) 0.8317(2) 0.8515(4)
C87 C -0.3545(4) 0.8093(2) 0.7891(4)
C88 C -0.2742(4) 0.8089(2) 0.9182(4)
C89 C -0.5920(4) 0.9975(2) 1.0950(4)
C90 C -0.4960(4) 0.9496(2) 1.0973(4)
C91 C -0.5458(4) 0.9822(2) 1.0635(4)
C92 C -0.5551(5) 0.9972(3) 0.9970(5)
C93 C -0.5141(5) 0.9797(2) 0.9674(4)
C94 C -0.1000(4) 0.5613(2) 1.0956(4)
C95 C -0.0174(5) 0.6165(3) 1.0890(5)
C96 C -0.0576(4) 0.5814(2) 1.0626(3)
C97 C -0.0582(4) 0.5619(3) 1.0001(4)
C98 C -0.0161(5) 0.5778(3) 0.9706(4)
C99 C 0.0463(4) 0.6155(2) 0.5634(3)
C100 C 0.0793(4) 0.5819(3) 0.5523(4)
C101 C 0.0510(5) 0.5654(2) 0.4827(5)
C102 C -0.0104(5) 0.5824(3) 0.4242(4)
C103 C -0.0433(4) 0.6159(3) 0.4353(4)
C104 C -0.0150(5) 0.6325(2) 0.5049(4)
C105 C -0.6168(5) 0.9829(2) 0.3304(4)
C106 C -0.0486(8) 0.5670(4) 0.3435(7)
Zn1_2 Zn -0.65136(5) 0.99806(3) 0.19185(5)
Zn1_3 Zn -0.65136(5) 0.99806(3) 1.19185(5)
Zn1A Zn -0.34864(5) 0.49806(3) 0.80815(5)
Zn2A Zn -0.15203(5) 0.56097(3) 0.19625(5)
Zn2A_2 Zn -0.15203(5) 0.56097(3) 1.19625(5)
Zn2A_3 Zn 0.84797(5) 0.56097(3) 1.19625(5)
Zn3_2 Zn -0.74727(7) 1.02997(4) 0.99479(7)
Zn3A Zn -0.25273(7) 0.52997(4) 1.00521(7)
Zn3A_2 Zn 0.74727(7) 0.52997(4) 1.00521(7)
O1A O 0.3491(3) 1.05453(14) 1.1984(2)
O2A O 0.2489(2) 1.05690(14) 1.0855(2)
O3A O 0.2454(3) 1.08920(14) 0.8417(3)
O4A O 0.2606(2) 1.08354(13) 0.9561(2)
O5A O 0.1406(3) 1.03394(15) 0.9365(2)
O6A O 0.0921(3) 1.07962(15) 0.8453(3)
O7_2 O 0.4128(3) 0.98212(15) 1.1513(3)
O8_2 O 0.3639(3) 1.02491(15) 1.0603(2)
O13A O 0.1047(3) 1.08094(18) 0.7054(3)
O14_2 O 0.4084(3) 0.97756(16) 1.2912(3)
loop_
_geom_bond_atom_site_label_1
_geom_bond_atom_site_label_2
_geom_bond_site_symmetry_1
_geom_bond_site_symmetry_2
Zn1 O11 1_555 1_555
Zn2 O10 1_555 1_555
Zn3 O9 1_555 1_555
O1 C15 1_555 1_555
O2 C15 1_555 1_555
O3 C8 1_555 1_555
O4 C8 1_555 1_555
O5 C94 1_555 1_555
O6 C94 1_555 1_555
O7 C89 1_555 1_555
O8 C89 1_555 1_555
O9 C1 1_555 1_555
O10 C1 1_555 1_555
O11 C22 1_555 1_555
O12 Zn3 1_555 1_555
O13 C106 1_555 1_555
O14 C105 1_555 1_555
O15 C105 1_555 1_555
O16 C106 1_555 1_555
C1 C2 1_555 1_555
C2 C3 1_555 1_555
C3 C4 1_555 1_555
C4 C5 1_555 1_555
C5 C6 1_555 1_555
C6 C7 1_555 1_555
C7 C2 1_555 1_555
C8 C9 1_555 1_555
C9 C10 1_555 1_555
C10 C11 1_555 1_555
C11 C12 1_555 1_555
C12 C13 1_555 1_555
C13 C14 1_555 1_555
C14 C9 1_555 1_555
C15 C16 1_555 1_555
C16 C17 1_555 1_555
C17 C18 1_555 1_555
C18 C19 1_555 1_555
C19 C20 1_555 1_555
C20 C21 1_555 1_555
C21 C16 1_555 1_555
C22 O12 1_555 1_555
C23 C22 1_555 1_555
C24 C23 1_555 1_555
C25 C24 1_555 1_555
C26 C25 1_555 1_555
C27 C26 1_555 1_555
C28 C23 1_555 1_555
C29 C26 1_555 1_555
C30 C29 1_555 1_555
C31 C30 1_555 1_555
C32 C31 1_555 1_555
C33 C32 1_555 1_555
C34 C29 1_555 1_555
C35 C5 1_555 1_555
C36 C35 1_555 1_555
C37 C36 1_555 1_555
C38 C37 1_555 1_555
C39 C38 1_555 1_555
C40 C35 1_555 1_555
C41 C42 1_555 1_555
C42 C43 1_555 1_555
C43 C44 1_555 1_555
C44 C45 1_555 1_555
C45 C46 1_555 1_555
C46 C41 1_555 1_555
C47 C48 1_555 1_555
C48 C73 1_555 1_555
C49 C47 1_555 1_555
C50 C32 1_555 1_555
C51 C50 1_555 1_555
C52 C51 1_555 1_555
C53 C52 1_555 1_555
C54 C53 1_555 1_555
C55 C54 1_555 1_555
C56 C51 1_555 1_555
C57 C50 1_555 1_555
C58 C57 1_555 1_555
C59 C58 1_555 1_555
C60 C59 1_555 1_555
C61 C60 1_555 1_555
C62 C57 1_555 1_555
C63 C60 1_555 1_555
C64 C63 1_555 1_555
C65 C64 1_555 1_555
C66 C65 1_555 1_555
C67 C66 1_555 1_555
C68 C63 1_555 1_555
C69 C19 1_555 1_555
C70 C69 1_555 1_555
C71 C69 1_555 1_555
C72 C12 1_555 1_555
C73 C72 1_555 1_555
C74 C49 1_555 1_555
C75 C38 1_555 1_555
C76 C75 1_555 1_555
C77 C76 1_555 1_555
C78 C77 1_555 1_555
C79 C78 1_555 1_555
C80 C79 1_555 1_555
C81 C76 1_555 1_555
C82 C79 1_555 1_555
C83 C82 1_555 1_555
C84 C54 1_555 1_555
C85 C84 1_555 1_555
C86 C50 1_555 1_555
C87 C71 1_555 1_555
C88 C70 1_555 1_555
C89 C91 1_555 1_555
C90 C85 1_555 1_555
C91 C90 1_555 1_555
C92 C91 1_555 1_555
C93 C84 1_555 1_555
C94 C96 1_555 1_555
C95 C83 1_555 1_555
C96 C95 1_555 1_555
C97 C96 1_555 1_555
C98 C82 1_555 1_555
C99 C44 1_555 1_555
C100 C99 1_555 1_555
C101 C100 1_555 1_555
C102 C101 1_555 1_555
C103 C102 1_555 1_555
C104 C99 1_555 1_555
C105 C66 1_555 1_555
C106 C102 1_555 1_555
Zn4 O17 1_555 1_555
O17 C107 1_555 1_555
O18 C107 1_555 1_555
O19 C159 1_555 1_555
O20 C139 1_555 1_555
O21 C153 1_555 1_555
O22 C153 1_555 1_555
O23 C139 1_555 1_555
O24 C159 1_555 1_555
C107 C108 1_555 1_555
C108 C109 1_555 1_555
C109 C110 1_555 1_555
C110 C111 1_555 1_555
C111 C112 1_555 1_555
C112 C113 1_555 1_555
C113 C108 1_555 1_555
C114 C111 1_555 1_555
C115 C114 1_555 1_555
C116 C115 1_555 1_555
C117 C116 1_555 1_555
C118 C117 1_555 1_555
C119 C114 1_555 1_555
C120 C117 1_555 1_555
C121 C120 1_555 1_555
C122 C121 1_555 1_555
C123 C122 1_555 1_555
C124 C123 1_555 1_555
C125 C124 1_555 1_555
C126 C121 1_555 1_555
C127 C120 1_555 1_555
C128 C127 1_555 1_555
C129 C128 1_555 1_555
C130 C129 1_555 1_555
C131 C130 1_555 1_555
C132 C127 1_555 1_555
C133 C124 1_555 1_555
C134 C133 1_555 1_555
C135 C134 1_555 1_555
C136 C135 1_555 1_555
C137 C136 1_555 1_555
C138 C133 1_555 1_555
C139 C136 1_555 1_555
C140 C153 1_555 1_555
C141 C120 1_555 1_555
C142 C141 1_555 1_555
C143 C142 1_555 1_555
C144 C143 1_555 1_555
C145 C144 1_555 1_555
C146 C141 1_555 1_555
C147 C130 1_555 1_555
C148 C147 1_555 1_555
C149 C148 1_555 1_555
C150 C149 1_555 1_555
C151 C150 1_555 1_555
C152 C147 1_555 1_555
C154 C140 1_555 1_555
C155 C154 1_555 1_555
C156 C144 1_555 1_555
C157 C156 1_555 1_555
C158 C140 1_555 1_555
C159 C150 1_555 1_555
Zn1_2 O14 1_555 1_555
Zn1_3 O7 1_555 1_555
Zn1A O1 1_555 1_555
Zn2A O13 1_555 1_555
Zn2A_2 O6 1_555 1_555
Zn2A_3 O3 1_555 1_555
Zn3_2 O8 1_555 1_555
Zn3A O2 1_555 1_555
Zn3A_2 O4 1_555 1_555
O1A Zn1 1_555 1_555
O2A Zn3 1_555 1_555
O3A Zn2 1_555 1_555
O4A Zn3 1_555 1_555
O5A Zn3 1_555 1_555
O6A Zn2 1_555 1_555
O7_2 Zn1 1_555 1_555
O8_2 Zn3 1_555 1_555
O13A Zn2 1_555 1_555
O14_2 Zn1 1_555 1_555
Zn4A O22 1_555 1_555
Zn4A_2 O23 1_555 1_555
Zn4A_3 O19 1_555 1_555
O19A Zn4 1_555 1_555
O22A Zn4 1_555 1_555
O23A Zn4 1_555 1_555
O5 Zn3A 1_555 1_555
C27 C28 1_555 1_555
C33 C34 1_555 1_555
C39 C40 1_555 1_555
C41 C75 1_555 1_555
C47 C75 1_555 1_555
C55 C56 1_555 1_555
C61 C62 1_555 1_555
C67 C68 1_555 1_555
C72 C74 1_555 1_555
C80 C81 1_555 1_555
C86 C87 1_555 1_555
C86 C88 1_555 1_555
C92 C93 1_555 1_555
C97 C98 1_555 1_555
C103 C104 1_555 1_555
C118 C119 1_555 1_555
C125 C126 1_555 1_555
C131 C132 1_555 1_555
C137 C138 1_555 1_555
C145 C146 1_555 1_555
C151 C152 1_555 1_555
C155 C156 1_555 1_555
C157 C158 1_555 1_555

#END
