
#######################################################################
#
#                 Cambridge Crystallographic Data Centre
#                                CCDC 
#
#######################################################################
#
# If this CIF has been generated from an entry in the Cambridge 
# Structural Database, then it will include bibliographic, chemical, 
# crystal, experimental, refinement or atomic coordinate data resulting 
# from the CCDC's data processing and validation procedures.
#
#######################################################################

data_VEWLAM
_symmetry_cell_setting           monoclinic
_symmetry_space_group_name_H-M   'P 21'
_symmetry_Int_Tables_number      4
_space_group_name_Hall           'P 2yb'
loop_
_symmetry_equiv_pos_site_id
_symmetry_equiv_pos_as_xyz
1 x,y,z
2 -x,1/2+y,-z
_cell_length_a                   19.3772(8)
_cell_length_b                   34.3744(10)
_cell_length_c                   20.7308(7)
_cell_angle_alpha                90
_cell_angle_beta                 115.432(2)
_cell_angle_gamma                90
_cell_volume                     12470.3
loop_
_atom_site_label
_atom_site_type_symbol
_atom_site_fract_x
_atom_site_fract_y
_atom_site_fract_z
C1 C 0.8177(6) 0.8157(3) 1.1786(5)
C2 C 0.7800(5) 0.7940(3) 1.2133(5)
C3 C 0.8488(6) 0.7964(3) 1.1380(6)
C4 C 0.9432(7) 0.6220(3) 0.9933(6)
C5 C 0.8890(8) 0.6068(4) 0.9258(7)
C6 C 0.9228(8) 0.5908(4) 0.8796(7)
Co1 Co 0.28392(8) 0.42953(5) 0.66044(8)
Co2 Co 0.14226(9) 0.55636(5) 0.80860(9)
Co3 Co 0.24989(9) 0.51614(5) 0.72077(8)
O1 O -0.3001(4) 0.87289(18) 0.3283(3)
O2 O -0.6894(4) 0.45872(18) -0.2425(3)
O3 O -0.5771(3) 0.42965(18) -0.2183(3)
O4 O -0.4208(4) 0.87240(18) 0.3227(3)
O5 O 0.1669(3) 0.4252(2) 0.6027(3)
O6 O -0.6305(3) 0.45794(17) 0.6408(3)
O7 O -0.7197(4) 0.4317(2) 0.5451(3)
O8 O 1.0964(4) 0.5815(2) 1.7121(4)
O9 O 0.2072(4) 0.4855(2) 0.6251(3)
O10 O 1.1871(4) 0.56596(19) 1.6734(3)
O11 O 0.3398(4) 0.53040(19) 0.6903(4)
O12 O 0.8372(4) 0.9982(2) 1.2502(4)
O13 O 0.2495(4) 0.5761(2) 0.8636(4)
O14 O 1.1075(5) 0.5866(2) 0.8722(4)
O15 O 0.3167(4) 0.5460(2) 0.8113(4)
C7 C 0.3721(6) 0.6166(3) 0.9539(6)
C8 C 0.3793(6) 0.5855(3) 0.9107(6)
C9 C 0.4491(6) 0.5748(3) 0.9112(5)
C10 C 0.5134(6) 0.6202(3) 1.0072(5)
C11 C 0.5155(5) 0.5912(3) 0.9607(5)
C12 C 0.4431(7) 0.6323(3) 1.0033(6)
C13 C 0.3018(7) 0.5673(3) 0.8557(6)
C14 C 0.6660(6) 0.6976(3) 1.1074(5)
C15 C 0.7306(5) 0.6730(3) 1.1411(5)
C16 C 0.5867(5) 0.6386(3) 1.0594(5)
C17 C 0.7212(5) 0.6308(3) 1.1370(5)
C18 C 0.5932(5) 0.6803(3) 1.0665(5)
C19 C 0.6496(6) 0.6151(3) 1.0940(5)
C20 C 0.8108(5) 0.6904(3) 1.1739(5)
C21 C 0.8237(5) 0.6587(3) 1.2953(5)
C22 C 0.8576(5) 0.6773(3) 1.2582(5)
C23 C 0.9309(6) 0.6913(3) 1.2896(6)
C24 C 0.8683(5) 0.6476(3) 1.3665(5)
C25 C 1.0842(6) 0.6079(3) 1.6052(5)
C26 C 1.0665(6) 0.6319(3) 1.4880(5)
C27 C 0.9786(5) 0.6795(3) 1.3631(5)
C28 C 1.0128(6) 0.6227(3) 1.5913(6)
C29 C 0.9428(6) 0.6581(3) 1.3997(5)
C30 C 1.1159(6) 0.6132(3) 1.5561(6)
C31 C 0.9641(6) 0.6398(3) 1.5235(6)
C32 C 0.9927(6) 0.6440(3) 1.4717(5)
C33 C 0.8488(6) 0.6727(3) 1.1298(6)
C34 C 0.8406(6) 0.6610(3) 1.0091(6)
C35 C 0.9164(6) 0.6472(3) 1.1565(6)
C36 C 0.9081(6) 0.6382(3) 1.0383(6)
C37 C 0.8113(6) 0.6765(3) 1.0544(6)
C38 C 0.9456(6) 0.6303(3) 1.1106(6)
O16 O 0.9995(6) 0.5589(3) 0.8041(6)
C39 C 1.0537(9) 0.6062(5) 0.9674(9)
C40 C 1.0033(8) 0.5928(4) 0.8995(7)
C41 C 1.0495(10) 0.5772(4) 0.8553(8)
O17 O 0.8580(4) 1.0023(2) 1.1537(4)
C42 C 0.1543(6) 0.4595(4) 0.5976(6)
C43 C -0.2995(5) 0.5473(3) 0.3464(5)
C44 C -0.1529(5) 0.5158(3) 0.4237(5)
C45 C -0.2136(6) 0.5020(3) 0.4368(5)
C46 C -0.2907(6) 0.5164(3) 0.3949(5)
C47 C -0.2439(6) 0.5591(3) 0.3307(5)
C48 C -0.1648(6) 0.5453(3) 0.3684(6)
C49 C -0.4121(5) 0.5456(3) 0.2275(5)
C50 C -0.4038(6) 0.5026(3) 0.1324(5)
C51 C -0.3705(6) 0.5204(3) 0.2017(6)
C52 C -0.4814(6) 0.5131(3) 0.0852(6)
C53 C -0.5284(6) 0.5395(3) 0.1071(6)
C54 C -0.4924(6) 0.5541(3) 0.1777(6)
C55 C -0.3740(5) 0.6055(3) 0.3010(4)
C56 C -0.4014(5) 0.6715(3) 0.2475(5)
C57 C -0.3591(5) 0.6886(3) 0.3101(5)
C58 C -0.3242(5) 0.6242(3) 0.3652(5)
C59 C -0.4097(5) 0.6301(3) 0.2412(5)
C60 C -0.3204(5) 0.6653(3) 0.3714(5)
C61 C -0.3784(5) 0.5624(3) 0.3040(5)
C62 C -0.5060(5) 0.4744(3) -0.0934(5)
C63 C -0.5862(6) 0.4671(3) -0.1238(5)
C64 C -0.6324(5) 0.4728(3) -0.0927(5)
C65 C -0.5178(6) 0.4950(3) 0.0115(5)
C66 C -0.4728(5) 0.4903(3) -0.0242(5)
C67 C -0.5963(6) 0.4881(3) -0.0221(5)
C68 C -0.4341(5) 0.5516(3) 0.3369(5)
C69 C -0.5229(6) 0.5219(4) 0.4023(6)
C70 C -0.5116(6) 0.4990(3) 0.3551(6)
C71 C -0.4661(6) 0.5115(3) 0.3228(6)
C72 C -0.4509(5) 0.5742(3) 0.3809(5)
C73 C -0.4953(6) 0.5621(3) 0.4138(6)
C74 C -0.6281(5) 0.4737(3) 0.5283(5)
C75 C -0.5702(5) 0.4982(3) 0.5624(5)
C76 C -0.5634(7) 0.5062(3) 0.4482(6)
C77 C -0.6571(6) 0.4650(3) 0.4559(6)
C78 C -0.5354(6) 0.5126(3) 0.5225(6)
C79 C -0.6298(6) 0.4817(3) 0.4098(6)
C80 C -0.3605(6) 0.8111(3) 0.3231(5)
C81 C -0.2881(6) 0.7925(3) 0.3494(5)
C82 C -0.3547(6) 0.7314(3) 0.3181(5)
C83 C -0.4300(7) 0.7941(4) 0.2970(6)
C84 C -0.2870(6) 0.7517(3) 0.3486(5)
C85 C 0.0763(6) 0.4751(3) 0.5497(5)
C86 C 0.0630(6) 0.5141(4) 0.5339(6)
C87 C -0.0716(5) 0.5014(3) 0.4672(5)
C88 C -0.0130(6) 0.5250(3) 0.4873(5)
C89 C 0.0156(7) 0.4480(3) 0.5282(6)
C90 C -0.0612(6) 0.4626(3) 0.4870(5)
C91 C -0.6628(7) 0.4535(3) 0.5720(6)
C92 C -0.3599(6) 0.8573(3) 0.3242(5)
C93 C 1.1317(6) 0.5822(3) 1.6726(6)
C94 C 0.7811(6) 0.7539(3) 1.2119(5)
C95 C 0.8123(5) 0.7350(3) 1.1721(5)
C96 C 0.8493(5) 0.7530(3) 1.1357(5)
C97 C 0.8435(7) 0.9837(4) 1.1987(7)
C98 C 0.8221(5) 0.8592(3) 1.1821(5)
C99 C 0.8214(6) 0.9228(4) 1.1280(6)
C100 C 0.8127(5) 0.8808(3) 1.1197(5)
C101 C 0.8413(5) 0.9191(3) 1.2488(6)
C102 C 0.8334(5) 0.9385(3) 1.1909(6)
C103 C -0.6186(6) 0.4502(3) -0.2004(5)
C104 C 1.0195(9) 0.6219(4) 1.0124(7)
C105 C 0.8334(6) 0.8766(4) 1.2454(6)
C106 C -0.4251(8) 0.7516(4) 0.2929(7)
C107 C -1.1285(9) 0.3723(5) -0.1352(8)
C108 C -1.1294(8) 0.3407(5) -0.0900(8)
C109 C -1.0655(11) 0.3851(5) -0.1421(9)
Co4 Co -0.52931(8) 0.42362(4) -0.28715(8)
Co5 Co -0.35004(9) 0.40875(5) -0.23564(9)
O18 O -0.5260(4) -0.02302(18) 0.2529(3)
O19 O -0.6454(4) -0.03147(19) 0.2400(3)
O20 O -0.4314(3) 0.39184(18) -0.2064(4)
O21 O -0.4849(3) 0.41748(19) 0.6404(3)
O22 O -0.3787(4) 0.3832(2) 0.6707(4)
C110 C -0.4444(8) 0.3943(4) 0.6302(6)
O23 O -0.3538(5) 0.4205(3) -0.1061(4)
C111 C -0.4090(9) 0.3973(4) -0.1389(8)
C112 C -0.5586(7) 0.3219(3) 0.0171(6)
C113 C -0.5243(6) 0.3265(3) 0.0896(6)
C114 C -0.6389(5) 0.2909(3) 0.0910(5)
C115 C -0.6291(5) 0.3013(3) -0.0206(5)
C116 C -0.6658(5) 0.2873(3) 0.0143(5)
C117 C -0.5661(7) 0.3130(3) 0.1246(6)
C118 C -0.5157(7) 0.3434(4) -0.0259(7)
C119 C -0.4988(7) 0.3540(4) -0.1311(6)
C120 C -0.4180(8) 0.3910(4) -0.0267(8)
C121 C -0.5387(8) 0.3298(4) -0.0944(8)
C122 C -0.4479(6) 0.3787(3) -0.1004(6)
C123 C -0.6506(5) 0.2930(3) 0.2082(5)
C124 C -0.5462(6) 0.2934(3) 0.3276(6)
C125 C -0.5781(6) 0.2772(3) 0.2580(6)
C126 C -0.5841(6) 0.3210(3) 0.3465(5)
C127 C -0.6548(6) 0.3321(3) 0.3042(6)
C128 C -0.6863(6) 0.3191(3) 0.2332(6)
C129 C -0.6826(5) 0.2767(3) 0.1301(5)
C130 C -0.5499(5) 0.3357(2) 0.4243(3)
C131 C -0.4755(4) 0.32557(19) 0.4708(4)
C132 C -0.4401(3) 0.3433(2) 0.5373(4)
C133 C -0.4790(5) 0.3713(2) 0.5573(3)
C134 C -0.5533(5) 0.3815(2) 0.5109(5)
C135 C -0.5887(3) 0.3637(3) 0.4444(4)
C136 C -0.6529(5) 0.1517(3) 0.1635(5)
C137 C -0.6378(5) 0.2092(3) 0.1064(5)
C138 C -0.6769(5) 0.2313(3) 0.1352(5)
C139 C -0.6285(5) 0.1670(3) 0.1211(5)
C140 C -0.6917(6) 0.1758(4) 0.1976(6)
C141 C -0.7060(5) 0.2151(3) 0.1822(5)
C142 C -0.5570(5) 0.0514(3) 0.2071(5)
C143 C -0.6091(6) 0.0293(3) 0.2233(5)
C144 C -0.6764(6) 0.0452(3) 0.2207(5)
C145 C -0.6362(5) 0.1094(3) 0.1864(5)
C146 C -0.5696(5) 0.0921(3) 0.1876(5)
C147 C -0.6888(6) 0.0858(3) 0.2023(6)
C148 C -0.7638(6) 0.2905(3) 0.0859(5)
C149 C -0.7744(5) 0.3300(3) 0.0707(5)
C150 C -0.8511(6) 0.3452(3) 0.0291(5)
C151 C -0.9108(6) 0.3206(3) 0.0039(5)
C152 C -0.9018(6) 0.2824(4) 0.0171(6)
C153 C -0.8273(6) 0.2639(3) 0.0594(5)
C154 C -0.9918(8) 0.3356(4) -0.0482(7)
C155 C -0.9891(9) 0.3657(5) -0.0916(8)
C156 C -0.5921(6) -0.0127(3) 0.2386(5)
C157 C -0.4596(7) 0.3702(4) 0.0063(7)
C158 C -1.0526(9) 0.3198(4) -0.0367(8)
O24 O -1.2547(5) 0.3787(3) -0.1671(4)
C159 C -1.2214(8) 0.3962(4) -0.1840(8)
O25 O -1.2097(7) 0.4129(4) -0.2255(8)
Co1_2 Co -0.71608(8) 0.42953(5) -0.33956(8)
Co1_3 Co -0.71608(8) 0.42953(5) 0.66044(8)
Co1A Co -0.28392(8) 0.92953(5) 0.33956(8)
Co2_2 Co 1.14226(9) 0.55636(5) 0.80860(9)
Co2_3 Co 1.14226(9) 0.55636(5) 1.80860(9)
Co2A Co 0.85774(9) 1.05636(5) 1.19140(9)
Co3_2 Co -0.75011(9) 0.51614(5) -0.27923(8)
Co3_3 Co 1.24989(9) 0.51614(5) 1.72077(8)
Co3A Co 0.75011(9) 1.01614(5) 1.27923(8)
O1A O 0.3001(4) 0.37289(18) 0.6717(3)
O2_2 O 0.3106(4) 0.45872(18) 0.7575(3)
O4A O -0.5792(4) 0.37240(18) -0.3227(3)
O6_2 O -0.6305(3) 0.45794(17) -0.3592(3)
O6_3 O 0.3695(3) 0.45794(17) 0.6408(3)
O7_2 O 0.2803(4) 0.4317(2) 0.5451(3)
O8_2 O 0.0964(4) 0.5815(2) 0.7121(4)
O10_2 O 0.1871(4) 0.56596(19) 0.6734(3)
O12A O 0.1628(4) 0.4982(2) 0.7498(4)
O14_2 O 0.1075(5) 0.5866(2) 0.8722(4)
O17A O 0.1420(4) 0.5023(2) 0.8463(4)
Co4_2 Co -0.52931(8) 0.42362(4) 0.71285(8)
Co4A Co -0.47069(8) -0.07638(4) 0.28715(8)
Co4A_2 Co -0.47069(8) 0.92362(4) 0.28715(8)
Co5_2 Co -1.35004(9) 0.40875(5) -0.23564(9)
Co5_3 Co -0.35004(9) 0.40875(5) 0.76436(9)
Co5A Co -0.64996(9) -0.09125(5) 0.23564(9)
O18A O -0.4740(4) 0.47698(18) -0.2529(3)
O19A O -0.3546(4) 0.46853(19) -0.2400(3)
O21_2 O -0.4849(3) 0.41748(19) -0.3596(3)
O22_2 O -0.3787(4) 0.3832(2) -0.3293(4)
O24_2 O -0.2547(5) 0.3787(3) -0.1671(4)
loop_
_geom_bond_atom_site_label_1
_geom_bond_atom_site_label_2
_geom_bond_site_symmetry_1
_geom_bond_site_symmetry_2
C1 C2 1_555 1_555
C2 C94 1_555 1_555
C3 C1 1_555 1_555
C4 C5 1_555 1_555
C5 C6 1_555 1_555
C6 C40 1_555 1_555
Co1 O5 1_555 1_555
Co2 O13 1_555 1_555
Co3 O9 1_555 1_555
O1 C92 1_555 1_555
O2 C103 1_555 1_555
O3 C103 1_555 1_555
O4 C92 1_555 1_555
O5 C42 1_555 1_555
O6 C91 1_555 1_555
O7 C91 1_555 1_555
O8 C93 1_555 1_555
O9 Co1 1_555 1_555
O10 C93 1_555 1_555
O11 Co3 1_555 1_555
O12 C97 1_555 1_555
O13 C13 1_555 1_555
O14 C41 1_555 1_555
O15 Co3 1_555 1_555
C7 C8 1_555 1_555
C8 C9 1_555 1_555
C9 C11 1_555 1_555
C10 C11 1_555 1_555
C12 C7 1_555 1_555
C13 O15 1_555 1_555
C14 C15 1_555 1_555
C15 C17 1_555 1_555
C16 C10 1_555 1_555
C17 C19 1_555 1_555
C18 C14 1_555 1_555
C19 C16 1_555 1_555
C20 C15 1_555 1_555
C21 C22 1_555 1_555
C22 C20 1_555 1_555
C23 C22 1_555 1_555
C24 C21 1_555 1_555
C25 C28 1_555 1_555
C26 C30 1_555 1_555
C27 C23 1_555 1_555
C28 C31 1_555 1_555
C29 C24 1_555 1_555
C30 C25 1_555 1_555
C31 C32 1_555 1_555
C32 C26 1_555 1_555
C33 C20 1_555 1_555
C34 C36 1_555 1_555
C35 C33 1_555 1_555
C36 C4 1_555 1_555
C37 C33 1_555 1_555
C38 C35 1_555 1_555
O16 C41 1_555 1_555
C39 C40 1_555 1_555
C40 C41 1_555 1_555
O17 C97 1_555 1_555
C42 O9 1_555 1_555
C43 C46 1_555 1_555
C44 C45 1_555 1_555
C45 C46 1_555 1_555
C47 C43 1_555 1_555
C48 C44 1_555 1_555
C49 C51 1_555 1_555
C50 C51 1_555 1_555
C52 C50 1_555 1_555
C53 C52 1_555 1_555
C54 C49 1_555 1_555
C55 C58 1_555 1_555
C56 C57 1_555 1_555
C57 C60 1_555 1_555
C58 C60 1_555 1_555
C59 C55 1_555 1_555
C61 C43 1_555 1_555
C62 C63 1_555 1_555
C63 C64 1_555 1_555
C64 C67 1_555 1_555
C65 C52 1_555 1_555
C66 C62 1_555 1_555
C67 C65 1_555 1_555
C68 C61 1_555 1_555
C69 C70 1_555 1_555
C70 C71 1_555 1_555
C71 C68 1_555 1_555
C72 C68 1_555 1_555
C73 C69 1_555 1_555
C74 C75 1_555 1_555
C75 C78 1_555 1_555
C76 C69 1_555 1_555
C77 C74 1_555 1_555
C78 C76 1_555 1_555
C79 C76 1_555 1_555
C80 C81 1_555 1_555
C81 C84 1_555 1_555
C82 C57 1_555 1_555
C83 C80 1_555 1_555
C84 C82 1_555 1_555
C85 C42 1_555 1_555
C86 C85 1_555 1_555
C87 C44 1_555 1_555
C88 C86 1_555 1_555
C89 C85 1_555 1_555
C90 C87 1_555 1_555
C91 C74 1_555 1_555
C92 C80 1_555 1_555
C93 C25 1_555 1_555
C94 C95 1_555 1_555
C95 C20 1_555 1_555
C96 C3 1_555 1_555
C97 C102 1_555 1_555
C98 C1 1_555 1_555
C99 C100 1_555 1_555
C100 C98 1_555 1_555
C101 C102 1_555 1_555
C102 C99 1_555 1_555
C103 C63 1_555 1_555
C104 C4 1_555 1_555
C105 C98 1_555 1_555
C106 C82 1_555 1_555
C107 C108 1_555 1_555
C108 C158 1_555 1_555
C109 C107 1_555 1_555
Co4 O3 1_555 1_555
Co5 O20 1_555 1_555
O18 C156 1_555 1_555
O19 C156 1_555 1_555
O20 Co4 1_555 1_555
O21 C110 1_555 1_555
O22 C110 1_555 1_555
C110 C133 1_555 1_555
O23 C111 1_555 1_555
C111 O20 1_555 1_555
C112 C113 1_555 1_555
C113 C117 1_555 1_555
C114 C116 1_555 1_555
C115 C112 1_555 1_555
C116 C115 1_555 1_555
C117 C114 1_555 1_555
C118 C112 1_555 1_555
C119 C121 1_555 1_555
C120 C122 1_555 1_555
C121 C118 1_555 1_555
C122 C111 1_555 1_555
C123 C125 1_555 1_555
C124 C125 1_555 1_555
C126 C124 1_555 1_555
C127 C126 1_555 1_555
C128 C123 1_555 1_555
C129 C114 1_555 1_555
C130 C126 1_555 1_555
C131 C130 1_555 1_555
C132 C131 1_555 1_555
C133 C132 1_555 1_555
C134 C133 1_555 1_555
C135 C130 1_555 1_555
C136 C139 1_555 1_555
C137 C138 1_555 1_555
C138 C129 1_555 1_555
C139 C137 1_555 1_555
C140 C136 1_555 1_555
C141 C138 1_555 1_555
C142 C143 1_555 1_555
C143 C144 1_555 1_555
C144 C147 1_555 1_555
C145 C136 1_555 1_555
C146 C142 1_555 1_555
C147 C145 1_555 1_555
C148 C129 1_555 1_555
C149 C148 1_555 1_555
C150 C149 1_555 1_555
C151 C150 1_555 1_555
C152 C151 1_555 1_555
C153 C148 1_555 1_555
C154 C151 1_555 1_555
C155 C109 1_555 1_555
C156 C143 1_555 1_555
C157 C118 1_555 1_555
C158 C154 1_555 1_555
O24 C159 1_555 1_555
C159 C107 1_555 1_555
O25 C159 1_555 1_555
Co1_2 O2 1_555 1_555
Co1_3 O6 1_555 1_555
Co1A O1 1_555 1_555
Co2_2 O14 1_555 1_555
Co2_3 O8 1_555 1_555
Co2A O17 1_555 1_555
Co3_2 O2 1_555 1_555
Co3_3 O10 1_555 1_555
Co3A O12 1_555 1_555
O1A Co1 1_555 1_555
O2_2 Co1 1_555 1_555
O4A Co4 1_555 1_555
O6_2 Co4 1_555 1_555
O6_3 Co1 1_555 1_555
O7_2 Co1 1_555 1_555
O8_2 Co2 1_555 1_555
O10_2 Co3 1_555 1_555
O12A Co3 1_555 1_555
O14_2 Co2 1_555 1_555
O17A Co2 1_555 1_555
Co4_2 O6 1_555 1_555
Co4A O18 1_555 1_555
Co4A_2 O4 1_555 1_555
Co5_2 O24 1_555 1_555
Co5_3 O22 1_555 1_555
Co5A O19 1_555 1_555
O18A Co4 1_555 1_555
O19A Co5 1_555 1_555
O21_2 Co4 1_555 1_555
O22_2 Co5 1_555 1_555
O24_2 Co5 1_555 1_555
Co3 O2_2 1_555 1_555
O7 Co1_3 1_555 1_555
C8 C13 1_555 1_555
C10 C12 1_555 1_555
C16 C18 1_555 1_555
C27 C29 1_555 1_555
C29 C32 1_555 1_555
C34 C37 1_555 1_555
C36 C38 1_555 1_555
C39 C104 1_555 1_555
C47 C48 1_555 1_555
C49 C61 1_555 1_555
C53 C54 1_555 1_555
C55 C61 1_555 1_555
C56 C59 1_555 1_555
C65 C66 1_555 1_555
C72 C73 1_555 1_555
C77 C79 1_555 1_555
C83 C106 1_555 1_555
C87 C88 1_555 1_555
C89 C90 1_555 1_555
C95 C96 1_555 1_555
C101 C105 1_555 1_555
O21 Co4_2 1_555 1_555
C119 C122 1_555 1_555
C120 C157 1_555 1_555
C123 C129 1_555 1_555
C127 C128 1_555 1_555
C134 C135 1_555 1_555
C140 C141 1_555 1_555
C145 C146 1_555 1_555
C152 C153 1_555 1_555
C154 C155 1_555 1_555
Co1_2 O6_2 1_555 1_555

#END
