
#######################################################################
#
#                 Cambridge Crystallographic Data Centre
#                                CCDC 
#
#######################################################################
#
# If this CIF has been generated from an entry in the Cambridge 
# Structural Database, then it will include bibliographic, chemical, 
# crystal, experimental, refinement or atomic coordinate data resulting 
# from the CCDC's data processing and validation procedures.
#
#######################################################################

data_VIFBOD
_symmetry_cell_setting           triclinic
_symmetry_space_group_name_H-M   'P -1'
_symmetry_Int_Tables_number      2
_space_group_name_Hall           '-P 1'
loop_
_symmetry_equiv_pos_site_id
_symmetry_equiv_pos_as_xyz
1 x,y,z
2 -x,-y,-z
_cell_length_a                   10.2850(2)
_cell_length_b                   11.5717(3)
_cell_length_c                   13.5114(4)
_cell_angle_alpha                85.5810(10)
_cell_angle_beta                 69.2090(10)
_cell_angle_gamma                63.7550(10)
_cell_volume                     1342.23
loop_
_atom_site_label
_atom_site_type_symbol
_atom_site_fract_x
_atom_site_fract_y
_atom_site_fract_z
Tm1 Tm 0.555394(13) 0.275444(12) 0.320310(9)
Tm2 Tm 0.531178(14) -0.203020(12) 0.309302(10)
O1 O 0.3929(3) -0.0151(2) 0.43527(19)
O2 O 0.6196(3) -0.0462(2) 0.23173(18)
O3 O -0.4007(3) 0.5186(2) 0.5740(2)
O4 O -0.2848(3) 0.3024(3) 0.3885(2)
O5 O 0.7003(3) -0.2797(2) 0.13883(19)
O6 O -0.2967(3) 0.5668(3) 0.6720(2)
O7 O 0.6995(3) 0.0622(2) 0.3577(2)
O8 O 0.2716(3) 0.2253(3) 0.6345(2)
O9 O 0.5144(3) 0.1650(2) 0.2120(2)
O10 O 0.5806(4) 0.4223(3) 0.1940(3)
O11 O 0.8682(3) -0.2463(4) -0.0030(3)
C1 C 0.1382(3) 0.2472(3) 0.5187(2)
O12 O 0.6529(3) -0.4222(3) 0.3256(2)
C2 C -0.1345(3) 0.2776(3) 0.4921(2)
O13 O 0.7992(3) 0.1776(3) 0.1801(2)
O14 O 0.3005(3) -0.0124(2) 0.3103(2)
O15 O -0.3617(3) 0.2454(3) 0.5516(2)
O16 O 0.3913(3) 0.2356(3) 0.4637(2)
C3 C 0.5567(3) 0.0487(3) 0.1840(2)
C4 C 0.1428(3) 0.1563(3) 0.4522(2)
C5 C -0.1397(3) 0.3719(3) 0.5543(2)
C6 C 0.0067(3) 0.1720(3) 0.4407(3)
H1 H 0.0105 0.1106 0.3978
C7 C 0.2778(3) 0.2342(3) 0.5389(2)
C8 C 0.5280(3) 0.0214(3) 0.0892(2)
C9 C 0.4200(4) 0.1223(3) 0.0540(2)
H2 H 0.3654 0.2039 0.0913
C10 C -0.0031(3) 0.3548(3) 0.5677(2)
H3 H -0.0070 0.4167 0.6102
C11 C 0.7344(4) -0.2166(3) 0.0602(3)
C12 C 0.6068(3) -0.1028(3) 0.0350(2)
C13 C -0.2737(3) 0.2783(3) 0.4780(2)
C14 C -0.2873(3) 0.4919(3) 0.6034(3)
C15 C 0.2881(3) 0.0377(3) 0.3954(2)
O17 O 0.4028(4) -0.2726(4) 0.2275(3)
O2A O 0.3804(3) 0.0462(2) -0.23173(18)
O5A O 0.2997(3) 0.2797(2) -0.13883(19)
O9A O 0.4856(3) -0.1650(2) -0.2120(2)
O11A O 0.1318(3) 0.2463(4) 0.0030(3)
C3A C 0.4433(3) -0.0487(3) -0.1840(2)
C8A C 0.4720(3) -0.0214(3) -0.0892(2)
C9A C 0.5800(4) -0.1223(3) -0.0540(2)
H2A H 0.6346 -0.2039 -0.0913
C11A C 0.2656(4) 0.2166(3) -0.0602(3)
C12A C 0.3932(3) 0.1028(3) -0.0350(2)
Tm1A Tm -0.555394(13) -0.275444(12) 0.679690(9)
Tm2A Tm -0.531178(14) 0.203020(12) 0.690698(10)
O1A O -0.3929(3) 0.0151(2) 0.56473(19)
O3A O 0.4007(3) -0.5186(2) 0.4260(2)
O4A O 0.2848(3) -0.3024(3) 0.6115(2)
O6A O 0.2967(3) -0.5668(3) 0.3280(2)
O7A O -0.6995(3) -0.0622(2) 0.6423(2)
O8A O -0.2716(3) -0.2253(3) 0.3655(2)
O10A O -0.5806(4) -0.4223(3) 0.8060(3)
C1A C -0.1382(3) -0.2472(3) 0.4813(2)
O12A O -0.6529(3) 0.4222(3) 0.6744(2)
C2A C 0.1345(3) -0.2776(3) 0.5079(2)
O13A O -0.7992(3) -0.1776(3) 0.8199(2)
O14A O -0.3005(3) 0.0124(2) 0.6897(2)
O15A O 0.3617(3) -0.2454(3) 0.4484(2)
O16A O -0.3913(3) -0.2356(3) 0.5363(2)
C4A C -0.1428(3) -0.1563(3) 0.5478(2)
C5A C 0.1397(3) -0.3719(3) 0.4457(2)
C6A C -0.0067(3) -0.1720(3) 0.5593(3)
H1A H -0.0105 -0.1106 0.6022
C7A C -0.2778(3) -0.2342(3) 0.4611(2)
C10A C 0.0031(3) -0.3548(3) 0.4323(2)
H3A H 0.0070 -0.4167 0.3898
C13A C 0.2737(3) -0.2783(3) 0.5220(2)
C14A C 0.2873(3) -0.4919(3) 0.3966(3)
C15A C -0.2881(3) -0.0377(3) 0.6046(2)
O17A O -0.4028(4) 0.2726(4) 0.7725(3)
Tm1_2 Tm -0.444606(13) 0.275444(12) 0.320310(9)
Tm1_3 Tm 0.555394(13) -0.724556(12) 0.320310(9)
Tm1A_2 Tm -0.555394(13) 0.724556(12) 0.679690(9)
Tm1A_3 Tm 0.444606(13) -0.275444(12) -0.320310(9)
Tm1A_4 Tm 0.444606(13) -0.275444(12) 0.679690(9)
Tm2_2 Tm -0.468822(14) -0.203020(12) 0.309302(10)
Tm2A_2 Tm 0.468822(14) 0.203020(12) -0.309302(10)
Tm2A_3 Tm 0.468822(14) 0.203020(12) 0.690698(10)
O2A_2 O -0.6196(3) 0.0462(2) 0.76827(18)
O3_2 O -0.4007(3) -0.4814(2) 0.5740(2)
O3A_2 O 0.4007(3) 0.4814(2) 0.4260(2)
O4_2 O 0.7152(3) 0.3024(3) 0.3885(2)
O4A_2 O -0.7152(3) -0.3024(3) 0.6115(2)
O5A_2 O -0.7003(3) 0.2797(2) 0.86117(19)
O6_2 O -0.2967(3) -0.4332(3) 0.6720(2)
O6A_2 O 0.2967(3) 0.4332(3) 0.3280(2)
O8_2 O -0.7284(3) 0.2253(3) 0.6345(2)
O8A_2 O 0.7284(3) -0.2253(3) 0.3655(2)
O9A_2 O -0.5144(3) -0.1650(2) 0.7880(2)
O18 O 0.9571(5) 0.4140(5) 0.2607(5)
O19 O 0.0039(5) 0.7139(6) 0.1717(4)
O20 O 0.0999(6) 0.0951(8) 0.1713(5)
O21 O 0.0799(8) 0.8704(7) 0.2790(6)
O22 O 0.8144(8) 0.1566(8) 0.9757(4)
O23 O 0.2264(6) 0.4470(5) 0.1487(4)
O24 O 0.4808(6) 0.6329(5) 0.0229(3)
O25 O 0.8281(4) 0.4518(3) 0.0585(3)
loop_
_geom_bond_atom_site_label_1
_geom_bond_atom_site_label_2
_geom_bond_site_symmetry_1
_geom_bond_site_symmetry_2
Tm1 O7 1_555 1_555
Tm2 O1 1_555 1_555
O1 C15 1_555 1_555
O2 Tm2 1_555 1_555
O3 C14 1_555 1_555
O4 C13 1_555 1_555
O5 Tm2 1_555 1_555
O6 C14 1_555 1_555
O8 C7 1_555 1_555
O9 Tm1 1_555 1_555
O10 Tm1 1_555 1_555
O11 C11 1_555 1_555
C1 C4 1_555 1_555
O12 Tm2 1_555 1_555
C2 C5 1_555 1_555
O13 Tm1 1_555 1_555
O14 Tm2 1_555 1_555
O15 C13 1_555 1_555
O16 Tm1 1_555 1_555
C3 O2 1_555 1_555
C4 C6 1_555 1_555
C5 C10 1_555 1_555
C6 C2 1_555 1_555
H1 C6 1_555 1_555
C7 C1 1_555 1_555
C8 C3 1_555 1_555
C9 C8 1_555 1_555
H2 C9 1_555 1_555
C10 C1 1_555 1_555
H3 C10 1_555 1_555
C11 O5 1_555 1_555
C12 C8 1_555 1_555
C13 C2 1_555 1_555
C14 C5 1_555 1_555
C15 O14 1_555 1_555
O17 Tm2 1_555 1_555
O2A C3A 1_555 1_555
O5A C11A 1_555 1_555
O9A C3A 1_555 1_555
O11A C11A 1_555 1_555
C3A C8A 1_555 1_555
C8A C9A 1_555 1_555
C9A C12 1_555 1_555
H2A C9A 1_555 1_555
C11A C12A 1_555 1_555
C12A C9 1_555 1_555
Tm1A O7A 1_555 1_555
Tm2A O15 1_555 1_555
O1A Tm2A 1_555 1_555
O3A C14A 1_555 1_555
O4A C13A 1_555 1_555
O6A C14A 1_555 1_555
O8A C7A 1_555 1_555
O10A Tm1A 1_555 1_555
C1A C4A 1_555 1_555
O12A Tm2A 1_555 1_555
C2A C5A 1_555 1_555
O13A Tm1A 1_555 1_555
O14A Tm2A 1_555 1_555
O15A Tm2 1_555 1_555
O16A Tm1A 1_555 1_555
C4A C6A 1_555 1_555
C5A C10A 1_555 1_555
C6A C2A 1_555 1_555
H1A C6A 1_555 1_555
C7A C1A 1_555 1_555
C10A C1A 1_555 1_555
H3A C10A 1_555 1_555
C13A C2A 1_555 1_555
C14A C5A 1_555 1_555
C15A O1A 1_555 1_555
O17A Tm2A 1_555 1_555
Tm1_2 O4 1_555 1_555
Tm1_3 O3A 1_555 1_555
Tm1A_2 O3 1_555 1_555
Tm1A_3 O9A 1_555 1_555
Tm1A_4 O4A 1_555 1_555
Tm2_2 O8A 1_555 1_555
Tm2A_2 O2A 1_555 1_555
Tm2A_3 O8 1_555 1_555
O2A_2 Tm2A 1_555 1_555
O3_2 Tm1A 1_555 1_555
O3A_2 Tm1 1_555 1_555
O4_2 Tm1 1_555 1_555
O4A_2 Tm1A 1_555 1_555
O5A_2 Tm2A 1_555 1_555
O6_2 Tm1A 1_555 1_555
O6A_2 Tm1 1_555 1_555
O8_2 Tm2A 1_555 1_555
O8A_2 Tm2 1_555 1_555
O9A_2 Tm1A 1_555 1_555
O6 Tm1A_2 1_555 1_555
O9 C3 1_555 1_555
O16 C7 1_555 1_555
C4 C15 1_555 1_555
C11 C12 1_555 1_555
O5A Tm2A_2 1_555 1_555
C8A C12A 1_555 1_555
O6A Tm1_3 1_555 1_555
O14A C15A 1_555 1_555
O15A C13A 1_555 1_555
O16A C7A 1_555 1_555
C4A C15A 1_555 1_555

#END
