
#######################################################################
#
#                 Cambridge Crystallographic Data Centre
#                                CCDC 
#
#######################################################################
#
# If this CIF has been generated from an entry in the Cambridge 
# Structural Database, then it will include bibliographic, chemical, 
# crystal, experimental, refinement or atomic coordinate data resulting 
# from the CCDC's data processing and validation procedures.
#
#######################################################################

data_VIPZAX
_symmetry_cell_setting           monoclinic
_symmetry_space_group_name_H-M   'P 21/n'
_symmetry_Int_Tables_number      14
_space_group_name_Hall           '-P 2yn'
loop_
_symmetry_equiv_pos_site_id
_symmetry_equiv_pos_as_xyz
1 x,y,z
2 1/2-x,1/2+y,1/2-z
3 -x,-y,-z
4 1/2+x,1/2-y,1/2+z
_cell_length_a                   12.857(3)
_cell_length_b                   8.1939(16)
_cell_length_c                   17.789(4)
_cell_angle_alpha                90
_cell_angle_beta                 99.86(3)
_cell_angle_gamma                90
_cell_volume                     1846.37
loop_
_atom_site_label
_atom_site_type_symbol
_atom_site_fract_x
_atom_site_fract_y
_atom_site_fract_z
C1 C 0.2286(4) 1.0691(5) 0.7421(2)
C2 C 0.3011(3) 1.0593(5) 0.8184(2)
C3 C 0.2931(3) 1.1018(5) 0.8929(2)
C4 C 0.2090(3) 1.1740(6) 0.9328(2)
C5 C 0.9348(4) 0.8180(6) 0.6607(3)
H1 H 0.9931 0.8155 0.6361
C6 C 0.9433(4) 0.8874(6) 0.7315(3)
H2 H 1.0073 0.9319 0.7550
C7 C 0.8554(4) 0.8912(6) 0.7685(3)
H3 H 0.8608 0.9348 0.8173
C8 C 0.7602(3) 0.8287(5) 0.7309(2)
C9 C 0.7556(3) 0.7591(5) 0.6598(2)
H4 H 0.6923 0.7157 0.6346
C10 C 0.6600(3) 0.8385(5) 0.7660(2)
Mn1 Mn 0.61589(5) 0.91507(8) 0.93533(3)
Mn2 Mn 0.41626(5) 0.85653(8) 0.71130(4)
N1 N 0.3981(3) 0.9899(4) 0.82011(19)
N2 N 0.4469(3) 0.9888(5) 0.89286(19)
N3 N 0.3847(3) 1.0552(4) 0.93778(19)
N4 N 0.8422(3) 0.7534(4) 0.6264(2)
O1 O 0.2599(3) 0.9883(4) 0.68837(17)
O2 O 0.1450(2) 1.1470(4) 0.73452(17)
O3 O 0.1256(2) 1.2300(4) 0.89512(17)
O4 O 0.2288(2) 1.1709(4) 1.00492(17)
O5 O 0.8367(3) 0.6785(4) 0.55721(17)
O6 O 0.5773(2) 0.7817(4) 0.72723(18)
O7 O 0.6684(3) 0.9080(4) 0.82972(18)
O8 O 0.4713(3) 1.0695(5) 0.6520(2)
H5 H 0.5299 1.0472 0.6383
H6 H 0.4173 1.0995 0.6206
O9 O 0.5670(3) 0.6608(4) 0.9339(2)
H7 H 0.5945 0.5925 0.9675
H8 H 0.5102 0.6248 0.9463
Mn1A Mn 0.88411(5) 0.41507(8) 0.56467(3)
Mn1B Mn 0.38411(5) 1.08493(8) 1.06467(3)
Mn2A Mn 0.08374(5) 1.35653(8) 0.78870(4)
N3B N 0.6153(3) 0.9448(4) 1.06222(19)
O2A O 0.3550(2) 0.6470(4) 0.76548(17)
O3A O 0.3744(2) 0.7300(4) 0.60488(17)
O4B O 0.7712(2) 0.8291(4) 0.99508(17)
O5A O 0.6633(3) 1.1785(4) 0.94279(17)
O10 O 0.1247(5) 0.4495(7) 0.0599(4)
H9 H 0.1810 0.4118 0.0862
H10 H 0.1435 0.3691 0.0352
O11 O 0.1361(3) 0.0638(4) 0.5501(2)
H11 H 0.1951 0.0303 0.5407
H12 H 0.1566 0.1131 0.5132
O12 O 0.8669(5) 0.2343(9) 0.0349(4)
O13? O 0.9697(9) 0.0265(19) 0.9566(7)
loop_
_geom_bond_atom_site_label_1
_geom_bond_atom_site_label_2
_geom_bond_site_symmetry_1
_geom_bond_site_symmetry_2
C1 C2 1_555 1_555
C2 C3 1_555 1_555
C3 C4 1_555 1_555
C4 O3 1_555 1_555
C5 H1 1_555 1_555
C6 C5 1_555 1_555
H2 C6 1_555 1_555
C7 C6 1_555 1_555
H3 C7 1_555 1_555
C8 C7 1_555 1_555
C9 C8 1_555 1_555
H4 C9 1_555 1_555
C10 C8 1_555 1_555
Mn1 N2 1_555 1_555
Mn2 N1 1_555 1_555
N1 C2 1_555 1_555
N2 N1 1_555 1_555
N3 C3 1_555 1_555
N4 C5 1_555 1_555
O1 C1 1_555 1_555
O2 C1 1_555 1_555
O3 Mn2A 1_555 1_555
O4 C4 1_555 1_555
O5 N4 1_555 1_555
O6 C10 1_555 1_555
O7 C10 1_555 1_555
O8 Mn2 1_555 1_555
H5 O8 1_555 1_555
H6 O8 1_555 1_555
O9 Mn1 1_555 1_555
H7 O9 1_555 1_555
H8 O9 1_555 1_555
O10 H9 1_555 1_555
H10 O10 1_555 1_555
O11 H11 1_555 1_555
H12 O11 1_555 1_555
Mn1A O5 1_555 1_555
Mn1B N3 1_555 1_555
Mn2A O2 1_555 1_555
N3B Mn1 1_555 1_555
O2A Mn2 1_555 1_555
O3A Mn2 1_555 1_555
O4B Mn1 1_555 1_555
O5A Mn1 1_555 1_555
C9 N4 1_555 1_555
Mn1 O7 1_555 1_555
Mn2 O1 1_555 1_555
Mn2 O6 1_555 1_555
N2 N3 1_555 1_555
O4 Mn1B 1_555 1_555

#END
