
#######################################################################
#
#                 Cambridge Crystallographic Data Centre
#                                CCDC 
#
#######################################################################
#
# If this CIF has been generated from an entry in the Cambridge 
# Structural Database, then it will include bibliographic, chemical, 
# crystal, experimental, refinement or atomic coordinate data resulting 
# from the CCDC's data processing and validation procedures.
#
#######################################################################

data_VIQQUJ
_symmetry_cell_setting           orthorhombic
_symmetry_space_group_name_H-M   'P b c n'
_symmetry_Int_Tables_number      60
_space_group_name_Hall           '-P 2n 2ab'
loop_
_symmetry_equiv_pos_site_id
_symmetry_equiv_pos_as_xyz
1 x,y,z
2 1/2-x,1/2-y,1/2+z
3 -x,y,1/2-z
4 1/2+x,1/2-y,-z
5 -x,-y,-z
6 1/2+x,1/2+y,1/2-z
7 x,-y,1/2+z
8 1/2-x,1/2+y,z
_cell_length_a                   18.707(3)
_cell_length_b                   10.1820(14)
_cell_length_c                   20.353(3)
_cell_angle_alpha                90
_cell_angle_beta                 90
_cell_angle_gamma                90
_cell_volume                     3876.73
loop_
_atom_site_label
_atom_site_type_symbol
_atom_site_fract_x
_atom_site_fract_y
_atom_site_fract_z
C3 C 0.57841(15) 0.6224(3) 0.43932(13)
C4 C 0.61453(15) 0.7404(3) 0.41151(13)
C5 C 0.58594(15) 0.8645(3) 0.42217(14)
H5 H 0.5461 0.8743 0.4490
C6 C 0.61630(15) 0.9727(3) 0.39322(13)
C7 C 0.67682(16) 0.9599(3) 0.35374(14)
H6 H 0.6975 1.0337 0.3346
C8 C 0.70610(16) 0.8358(3) 0.34317(14)
C9 C 0.67462(16) 0.7263(3) 0.37109(14)
H7 H 0.6934 0.6432 0.3630
C10 C 0.58766(15) 1.1081(3) 0.40525(13)
C11 C 0.77333(16) 0.8885(3) 0.24599(14)
C12 C 0.91571(16) 0.9627(3) 0.12178(15)
H8 H 0.9241 1.0272 0.0904
C13 C 0.85544(15) 0.9703(3) 0.16169(14)
H9 H 0.8234 1.0393 0.1565
C14 C 0.84305(15) 0.8756(3) 0.20905(14)
C15 C 0.89126(16) 0.7720(3) 0.21630(15)
H10 H 0.8836 0.7078 0.2480
C16 C 0.95082(16) 0.7657(3) 0.17576(15)
H11 H 0.9830 0.6967 0.1805
C17 C 0.25193(17) 0.8943(3) 0.48569(16)
H12 H 0.2537 0.8089 0.5056
H13 H 0.2136 0.8971 0.4544
H14 H 0.2441 0.9595 0.5190
C18 C 0.33397(17) 1.0516(3) 0.42140(16)
H15 H 0.3443 1.1146 0.4552
H16 H 0.2922 1.0788 0.3976
H17 H 0.3738 1.0458 0.3918
C19 C 0.37601(18) 0.8245(3) 0.45104(15)
H18 H 0.4194 0.8464 0.4316
N2 N 0.76784(13) 0.8227(2) 0.30326(12)
H19 H 0.8021 0.7723 0.3157
N3 N 0.96302(13) 0.8600(3) 0.12865(12)
N4 N 0.32083(14) 0.9212(3) 0.45169(12)
Ni1 Ni 0.450823(18) 0.66328(3) 0.551426(16)
O2 O 0.60166(10) 0.51163(19) 0.42456(10)
O3 O 0.52552(11) 0.63889(19) 0.47548(10)
O4 O 0.53322(10) 1.11926(19) 0.44064(8)
O5 O 0.61750(10) 1.20601(18) 0.38105(8)
O6 O 0.72645(11) 0.9547(2) 0.22332(10)
O7 O 0.36963(12) 0.7134(2) 0.47478(10)
N3A N 0.53698(13) 0.6400(3) 0.62865(12)
Ni1A Ni 1.049177(18) 0.83672(3) 0.051426(16)
Ni1D Ni 0.549177(18) 0.33672(3) 0.448574(16)
Ni1D_2 Ni 0.549177(18) 1.33672(3) 0.448574(16)
O2D O 0.39834(10) 0.48837(19) 0.57544(10)
O4D O 0.46678(10) 0.88074(19) 0.55936(8)
O5D O 0.38250(10) 0.79399(18) 0.61895(8)
O1 O -0.0606(2) 0.4816(5) 0.2490(2)
C1 C 0.06780(19) 0.2201(4) 0.26323(16)
H1 H 0.0941 0.2103 0.2230
H2 H 0.0565 0.1350 0.2807
H3 H 0.0962 0.2678 0.2945
C2 C 0.0000 0.4338(5) 0.2500
H4 H 0.0428 0.4858 0.2508
N1 N 0.0000 0.2939(4) 0.2500
O1B O 0.0606(2) 0.4816(5) 0.2510(2)
C1B C -0.06780(19) 0.2201(4) 0.23677(16)
H1B H -0.0941 0.2103 0.2770
H2B H -0.0565 0.1350 0.2193
H3B H -0.0962 0.2678 0.2055
H4B H -0.0428 0.4858 0.2492
loop_
_geom_bond_atom_site_label_1
_geom_bond_atom_site_label_2
_geom_bond_site_symmetry_1
_geom_bond_site_symmetry_2
O1 C2 1_555 1_555
C1 H1 1_555 1_555
H2 C1 1_555 1_555
H3 C1 1_555 1_555
C2 H4 1_555 1_555
N1 C1 1_555 1_555
C3 C4 1_555 1_555
C4 C5 1_555 1_555
C5 H5 1_555 1_555
C6 C5 1_555 1_555
C7 C6 1_555 1_555
H6 C7 1_555 1_555
C8 C7 1_555 1_555
C9 C4 1_555 1_555
H7 C9 1_555 1_555
C10 C6 1_555 1_555
C11 C14 1_555 1_555
C12 H8 1_555 1_555
C13 C12 1_555 1_555
H9 C13 1_555 1_555
C14 C13 1_555 1_555
C15 C14 1_555 1_555
H10 C15 1_555 1_555
C16 C15 1_555 1_555
H11 C16 1_555 1_555
C17 H12 1_555 1_555
H13 C17 1_555 1_555
H14 C17 1_555 1_555
C18 H15 1_555 1_555
H16 C18 1_555 1_555
H17 C18 1_555 1_555
C19 H18 1_555 1_555
N2 C8 1_555 1_555
H19 N2 1_555 1_555
N3 C12 1_555 1_555
N4 C17 1_555 1_555
Ni1 O3 1_555 1_555
O2 C3 1_555 1_555
O3 C3 1_555 1_555
O4 C10 1_555 1_555
O5 C10 1_555 1_555
O6 C11 1_555 1_555
O7 C19 1_555 1_555
O1B C2 1_555 1_555
C1B N1 1_555 1_555
H1B C1B 1_555 1_555
H2B C1B 1_555 1_555
H3B C1B 1_555 1_555
H4B C2 1_555 1_555
N3A Ni1 1_555 1_555
Ni1A N3 1_555 1_555
Ni1D O2 1_555 1_555
Ni1D_2 O4 1_555 1_555
O2D Ni1 1_555 1_555
O4D Ni1 1_555 1_555
O5D Ni1 1_555 1_555
C2 N1 1_555 1_555
C8 C9 1_555 1_555
C11 N2 1_555 1_555
C16 N3 1_555 1_555
C18 N4 1_555 1_555
C19 N4 1_555 1_555
Ni1 O7 1_555 1_555
O5 Ni1D_2 1_555 1_555

#END
