
#######################################################################
#
#                 Cambridge Crystallographic Data Centre
#                                CCDC 
#
#######################################################################
#
# If this CIF has been generated from an entry in the Cambridge 
# Structural Database, then it will include bibliographic, chemical, 
# crystal, experimental, refinement or atomic coordinate data resulting 
# from the CCDC's data processing and validation procedures.
#
#######################################################################

data_VIRCAB
_symmetry_cell_setting           triclinic
_symmetry_space_group_name_H-M   'P -1'
_symmetry_Int_Tables_number      2
_space_group_name_Hall           '-P 1'
loop_
_symmetry_equiv_pos_site_id
_symmetry_equiv_pos_as_xyz
1 x,y,z
2 -x,-y,-z
_cell_length_a                   9.113(2)
_cell_length_b                   9.368(2)
_cell_length_c                   12.430(4)
_cell_angle_alpha                100.362(5)
_cell_angle_beta                 102.570(5)
_cell_angle_gamma                115.681(5)
_cell_volume                     886.911
loop_
_atom_site_label
_atom_site_type_symbol
_atom_site_fract_x
_atom_site_fract_y
_atom_site_fract_z
Ce1 Ce -0.22732(3) 0.01887(3) 0.01785(2)
O1 O -0.2751(7) 0.0439(8) -0.4437(5)
O2 O 0.2929(7) 0.3313(7) -0.4021(5)
O3 O -0.0972(7) 0.3917(6) -0.6545(4)
O4 O -0.1008(7) 0.2254(7) -0.0863(5)
O5 O 0.0843(8) 0.1347(7) -0.0720(5)
O6 O 0.2634(6) 0.1559(6) -0.8283(4)
O7 O 0.0524(6) 0.2143(6) -0.8216(4)
O8 O -0.2827(6) -0.0059(6) -0.7932(4)
O9 O -0.5199(7) -0.0201(7) -0.8966(4)
O10 O -0.2144(6) 0.2936(6) 0.1058(4)
O11 O -0.4700(6) -0.2908(6) -0.0247(5)
N1 N 0.0102(7) 0.1867(8) -0.4193(5)
N2 N 0.0933(7) 0.3319(7) -0.5488(5)
N3 N -0.1943(7) 0.2079(7) -0.5557(5)
C1 C -0.1609(9) 0.1382(9) -0.4717(6)
C2 C 0.1433(9) 0.2863(9) -0.4528(6)
C3 C -0.0681(9) 0.3153(9) -0.5915(6)
C4 C 0.0512(8) 0.1482(8) -0.3105(6)
H1 H -0.0409 0.0405 -0.3163
H2 H 0.1570 0.1424 -0.2979
C5 C 0.0727(10) 0.2822(9) -0.2078(6)
H3 H 0.0049 0.3327 -0.2351
H4 H 0.1930 0.3687 -0.1748
C6 C 0.0159(8) 0.2107(8) -0.1147(5)
C7 C 0.2333(8) 0.4303(8) -0.5912(5)
H5 H 0.1906 0.4794 -0.6436
H6 H 0.3284 0.5207 -0.5256
C8 C 0.3008(8) 0.3311(9) -0.6529(6)
H7 H 0.4154 0.4086 -0.6507
H8 H 0.3136 0.2591 -0.6089
C9 C 0.1947(8) 0.2234(8) -0.7786(5)
C10 C -0.3759(8) 0.1651(9) -0.6078(5)
H9 H -0.4264 0.1694 -0.5470
H10 H -0.3793 0.2470 -0.6446
C11 C -0.4844(9) -0.0103(10) -0.6985(6)
H11 H -0.6053 -0.0401 -0.7222
H12 H -0.4725 -0.0913 -0.6639
C12 C -0.4268(8) -0.0152(8) -0.8033(5)
Ce1A Ce 0.22732(3) -0.01887(3) -0.01785(2)
Ce1A_2 Ce 0.22732(3) -0.01887(3) -1.01785(2)
Ce1_2 Ce -0.22732(3) 0.01887(3) -0.98215(2)
Ce1A_3 Ce -0.77268(3) -0.01887(3) -1.01785(2)
O5A O -0.0843(8) -0.1347(7) 0.0720(5)
O6A O -0.2634(6) -0.1559(6) -0.1717(4)
O7_2 O 0.0524(6) 0.2143(6) 0.1784(4)
O8_2 O -0.2827(6) -0.0059(6) 0.2068(4)
O9A O -0.4801(7) 0.0201(7) -0.1034(4)
O12 O -0.4861(7) -0.5701(7) -0.1578(5)
O13 O -0.1889(8) -0.5521(8) -0.1548(7)
loop_
_geom_bond_atom_site_label_1
_geom_bond_atom_site_label_2
_geom_bond_site_symmetry_1
_geom_bond_site_symmetry_2
Ce1 O4 1_555 1_555
O1 C1 1_555 1_555
O2 C2 1_555 1_555
O3 C3 1_555 1_555
O4 C6 1_555 1_555
O5 C6 1_555 1_555
O6 C9 1_555 1_555
O7 C9 1_555 1_555
O8 C12 1_555 1_555
O9 C12 1_555 1_555
O10 Ce1 1_555 1_555
O11 Ce1 1_555 1_555
N1 C1 1_555 1_555
N2 C2 1_555 1_555
N3 C1 1_555 1_555
C2 N1 1_555 1_555
C3 N2 1_555 1_555
C4 N1 1_555 1_555
H1 C4 1_555 1_555
H2 C4 1_555 1_555
C5 C4 1_555 1_555
H3 C5 1_555 1_555
H4 C5 1_555 1_555
C6 C5 1_555 1_555
C7 N2 1_555 1_555
H5 C7 1_555 1_555
H6 C7 1_555 1_555
C8 C7 1_555 1_555
H7 C8 1_555 1_555
H8 C8 1_555 1_555
C9 C8 1_555 1_555
C10 N3 1_555 1_555
H9 C10 1_555 1_555
H10 C10 1_555 1_555
C11 C10 1_555 1_555
H11 C11 1_555 1_555
H12 C11 1_555 1_555
C12 C11 1_555 1_555
Ce1A O5 1_555 1_555
Ce1A_2 O6 1_555 1_555
Ce1_2 O7 1_555 1_555
Ce1A_3 O9 1_555 1_555
O5A Ce1 1_555 1_555
O6A Ce1 1_555 1_555
O7_2 Ce1 1_555 1_555
O8_2 Ce1 1_555 1_555
O9A Ce1 1_555 1_555
O8 Ce1_2 1_555 1_555
N3 C3 1_555 1_555

#END
