
#######################################################################
#
#                 Cambridge Crystallographic Data Centre
#                                CCDC 
#
#######################################################################
#
# If this CIF has been generated from an entry in the Cambridge 
# Structural Database, then it will include bibliographic, chemical, 
# crystal, experimental, refinement or atomic coordinate data resulting 
# from the CCDC's data processing and validation procedures.
#
#######################################################################

data_VISTOG
_symmetry_cell_setting           monoclinic
_symmetry_space_group_name_H-M   'P 21/a'
_symmetry_Int_Tables_number      14
_space_group_name_Hall           '-P 2yab'
loop_
_symmetry_equiv_pos_site_id
_symmetry_equiv_pos_as_xyz
1 x,y,z
2 1/2-x,1/2+y,-z
3 -x,-y,-z
4 1/2+x,1/2-y,z
_cell_length_a                   11.358(2)
_cell_length_b                   12.619(2)
_cell_length_c                   12.366(2)
_cell_angle_alpha                90
_cell_angle_beta                 104.05(1)
_cell_angle_gamma                90
_cell_volume                     1719.35
loop_
_atom_site_label
_atom_site_type_symbol
_atom_site_fract_x
_atom_site_fract_y
_atom_site_fract_z
Cd1 Cd 0.48450(2) -0.37133(2) -0.05598(2)
Cd2 Cd 0.69118(2) 0.02326(2) -0.12996(2)
Cd3 Cd 0.26400(2) -0.24401(2) -0.48972(2)
N1 N 0.3276(2) -0.3429(2) -0.3228(2)
C1 C 0.3818(2) -0.3615(2) -0.2341(2)
N2 N 0.7579(2) 0.1370(2) -0.3512(2)
C2 C 0.7403(2) 0.0938(2) -0.2753(2)
N3 N 0.4637(2) -0.2573(2) -0.4900(2)
C3 C 0.5663(2) -0.2592(2) -0.4862(2)
N4 N 0.6168(2) -0.2271(2) -0.0874(2)
C4 C 0.6449(2) -0.1428(2) -0.1002(2)
N5 N 0.3823(2) -0.1700(2) 0.0672(2)
C5 C 0.4201(2) -0.2477(2) 0.0441(2)
O1 O 0.3718(1) -0.5112(1) 0.0030(1)
H1 H 0.3514(2) -0.4872(2) 0.0910(2)
N6 N 0.4455(2) 0.0196(1) -0.2410(2)
N7 N 0.2813(2) 0.1084(1) -0.3739(1)
N8 N 0.2933(2) -0.0855(1) -0.3712(2)
N9 N 0.2387(2) 0.0105(1) -0.2166(2)
C6 C 0.4229(2) -0.0766(2) -0.3106(2)
C7 C 0.3701(2) 0.0149(2) -0.1610(2)
C8 C 0.2615(2) 0.0105(2) -0.4405(2)
C9 C 0.2085(2) 0.1027(2) -0.2904(2)
C10 C 0.2194(2) -0.0850(2) -0.2868(2)
C11 C 0.4115(2) 0.1116(2) -0.3124(2)
H2 H 0.4780(2) -0.0737(2) -0.3705(2)
H3 H 0.4476(2) -0.1453(2) -0.2578(2)
H4 H 0.3941(2) -0.0550(2) -0.1100(2)
H5 H 0.3872(2) 0.0846(2) -0.1088(2)
H6 H 0.1669(2) 0.0061(2) -0.4841(2)
H7 H 0.3168(2) 0.0132(2) -0.5002(2)
H8 H 0.1137(2) 0.0981(2) -0.3333(2)
H9 H 0.2242(2) 0.1737(2) -0.2401(2)
H10 H 0.2435(2) -0.1536(2) -0.2338(2)
H11 H 0.1247(2) -0.0893(2) -0.3297(2)
H12 H 0.4272(2) 0.1822(2) -0.2615(2)
H13 H 0.4669(2) 0.1139(2) -0.3720(2)
Cd1B Cd 0.51550(2) -0.62867(2) 0.05598(2)
Cd2C Cd 0.19118(2) -0.52326(2) -0.12996(2)
O1B O 0.6282(1) -0.4888(1) -0.0030(1)
Cd1C Cd 0.98450(2) -0.12867(2) -0.05598(2)
N5B N 0.6177(2) 0.1700(2) -0.0672(2)
O1C O 0.8718(1) 0.0112(1) 0.0030(1)
N2B N 0.2421(2) -0.1370(2) -0.6488(2)
C3C C 0.0663(2) -0.2408(2) -0.4862(2)
N7A N 0.2187(2) -0.3916(1) -0.6261(1)
Cd3B Cd 0.73600(2) 0.24401(2) -0.51028(2)
Cd3C Cd 0.76400(2) -0.25599(2) -0.48972(2)
Cd2B Cd 0.30882(2) -0.02326(2) 0.12996(2)
Cd3A Cd 0.23600(2) 0.25599(2) -0.51028(2)
H1B H 0.6486(2) -0.5128(2) -0.0910(2)
H1C H 0.8514(2) -0.0128(2) 0.0910(2)
loop_
_geom_bond_atom_site_label_1
_geom_bond_atom_site_label_2
_geom_bond_site_symmetry_1
_geom_bond_site_symmetry_2
Cd1 C1 1_555 1_555
Cd2 C2 1_555 1_555
Cd3 N1 1_555 1_555
N1 C1 1_555 1_555
N2 C2 1_555 1_555
N3 Cd3 1_555 1_555
C3 N3 1_555 1_555
N4 Cd1 1_555 1_555
C4 Cd2 1_555 1_555
N5 C5 1_555 1_555
C5 Cd1 1_555 1_555
O1 Cd1 1_555 1_555
H1 O1 1_555 1_555
N6 Cd2 1_555 1_555
N7 C8 1_555 1_555
N8 Cd3 1_555 1_555
N9 C7 1_555 1_555
C6 N6 1_555 1_555
C7 N6 1_555 1_555
C8 N8 1_555 1_555
C9 N7 1_555 1_555
C10 N8 1_555 1_555
C11 N6 1_555 1_555
H2 C6 1_555 1_555
H3 C6 1_555 1_555
H4 C7 1_555 1_555
H5 C7 1_555 1_555
H6 C8 1_555 1_555
H7 C8 1_555 1_555
H8 C9 1_555 1_555
H9 C9 1_555 1_555
H10 C10 1_555 1_555
H11 C10 1_555 1_555
H12 C11 1_555 1_555
H13 C11 1_555 1_555
Cd1B Cd1 1_555 1_555
Cd2C Cd1 1_555 1_555
O1B Cd1 1_555 1_555
Cd1C Cd2 1_555 1_555
N5B Cd2 1_555 1_555
O1C Cd2 1_555 1_555
N2B Cd3 1_555 1_555
C3C Cd3 1_555 1_555
N7A Cd3 1_555 1_555
Cd3B N2 1_555 1_555
Cd3C C3 1_555 1_555
Cd2B N5 1_555 1_555
Cd3A N7 1_555 1_555
H1B O1B 1_555 1_555
H1C O1C 1_555 1_555
N4 C4 1_555 1_555
O1 Cd1B 1_555 1_555
O1 Cd2C 1_555 1_555
N7 C11 1_555 1_555
N8 C6 1_555 1_555
N9 C9 1_555 1_555
N9 C10 1_555 1_555
Cd1B O1B 1_555 1_555
Cd1C O1C 1_555 1_555

#END
