
#######################################################################
#
#                 Cambridge Crystallographic Data Centre
#                                CCDC 
#
#######################################################################
#
# If this CIF has been generated from an entry in the Cambridge 
# Structural Database, then it will include bibliographic, chemical, 
# crystal, experimental, refinement or atomic coordinate data resulting 
# from the CCDC's data processing and validation procedures.
#
#######################################################################

data_VISTUM
_symmetry_cell_setting           orthorhombic
_symmetry_space_group_name_H-M   'C m c m'
_symmetry_Int_Tables_number      63
_space_group_name_Hall           '-C 2n 2'
loop_
_symmetry_equiv_pos_site_id
_symmetry_equiv_pos_as_xyz
1 x,y,z
2 1/2+x,1/2+y,z
3 -x,y,z
4 1/2-x,1/2+y,z
5 x,-y,1/2+z
6 1/2+x,1/2-y,1/2+z
7 -x,-y,1/2+z
8 1/2-x,1/2-y,1/2+z
9 -x,-y,-z
10 1/2-x,1/2-y,-z
11 x,-y,-z
12 1/2+x,1/2-y,-z
13 -x,y,1/2-z
14 1/2-x,1/2+y,1/2-z
15 x,y,1/2-z
16 1/2+x,1/2+y,1/2-z
_cell_length_a                   21.274(4)
_cell_length_b                   7.782(1)
_cell_length_c                   13.272(5)
_cell_angle_alpha                90
_cell_angle_beta                 90
_cell_angle_gamma                90
_cell_volume                     2197.24
loop_
_atom_site_label
_atom_site_type_symbol
_atom_site_fract_x
_atom_site_fract_y
_atom_site_fract_z
Cd1 Cd 0.34236(2) 0.37797(4) -0.2500
Cd2 Cd 0.5000 0.00000 0.0000
C1 C 0.2851 0.6081(6) -0.2500
N1 N 0.2463(3) 0.7086(7) -0.2500
C2 C 0.3928(2) 0.2554(5) -0.1211(2)
N2 N 0.4246(2) 0.1774(4) -0.0703(2)
N3 N 0.5000 0.1766(4) 0.1568(3)
N4 N 0.4423(2) 0.3978(4) 0.2500
C3 C 0.5000 0.5027(6) 0.2500
C4 C 0.4436(1) 0.2877(4) 0.1600(2)
C5 C 0.5000 0.0715(6) 0.2500
H1 H 0.5000 0.5828(12) 0.1836(4)
H2 H 0.4468(8) 0.3536(14) 0.0886(5)
H3 H 0.4001(4) 0.2159(14) 0.1631(12)
H4 H 0.5415(3) -0.0086(12) 0.2500
N4B N 0.5577(2) 0.3978(4) 0.2500
C4B C 0.5564(1) 0.2877(4) 0.1600(2)
N3L N 0.5000 0.1766(4) 0.3432(3)
C4L C 0.5564(1) 0.2877(4) 0.3400(2)
H2L H 0.5532(8) 0.3536(14) 0.4114(5)
H3L H 0.5999(4) 0.2159(14) 0.3369(12)
C4N C 0.4436(1) 0.2877(4) 0.3400(2)
H2N H 0.4468(8) 0.3536(14) 0.4114(5)
H3N H 0.4001(4) 0.2159(14) 0.3369(12)
H4B H 0.4585(3) -0.0086(12) 0.2500
H2B H 0.5532(8) 0.3536(14) 0.0886(5)
H3B H 0.5999(4) 0.2159(14) 0.1631(12)
H1L H 0.5000 0.5828(12) 0.3164(4)
C2B C 0.6072(2) 0.2554(5) -0.1211(2)
N2B N 0.5754(2) 0.1774(4) -0.0703(2)
C2H C 0.6072(2) -0.2554(5) 0.1211(2)
N2H N 0.5754(2) -0.1774(4) 0.0703(2)
C2J C 0.3928(2) -0.2554(5) 0.1211(2)
N2J N 0.4246(2) -0.1774(4) 0.0703(2)
Cd1B Cd 0.65764(2) 0.37797(4) -0.2500
C1C C 0.2149 0.1081(6) -0.2500
N1C N 0.2537(3) 0.2086(7) -0.2500
C2N C 0.3928(2) 0.2554(5) -0.3789(2)
N4D N 0.4423(2) 0.6022(4) -0.2500
N3H N 0.5000 -0.1766(4) -0.1568(3)
Cd1C Cd 0.15764(2) 0.87797(4) -0.2500
Cd1D Cd 0.34236(2) 0.62203(4) 0.2500
Cd1F Cd 0.65764(2) 0.62203(4) 0.2500
Cd2D Cd 0.5000 0.00000 0.5000
Cd1F_2 Cd 0.65764(2) -0.37797(4) 0.2500
Cd1D_2 Cd 0.34236(2) -0.37797(4) 0.2500
C1B C 0.7149 0.6081(6) -0.2500
N1A N 0.7463(3) 0.2086(7) -0.2500
C2L C 0.6072(2) 0.2554(5) -0.3789(2)
N4F N 0.5577(2) 0.6022(4) -0.2500
Cd1C_2 Cd 0.15764(2) -0.12203(4) -0.2500
loop_
_geom_bond_atom_site_label_1
_geom_bond_atom_site_label_2
_geom_bond_site_symmetry_1
_geom_bond_site_symmetry_2
Cd1 C1 1_555 1_555
Cd2 N2 1_555 1_555
C1 N1 1_555 1_555
N1 Cd1C 1_555 1_555
C2 Cd1 1_555 1_555
N2 C2 1_555 1_555
N3 Cd2 1_555 1_555
N4 C3 1_555 1_555
C3 H1 1_555 1_555
C4 N3 1_555 1_555
C5 N3 1_555 1_555
H2 C4 1_555 1_555
H3 C4 1_555 1_555
H4 C5 1_555 1_555
N4B C3 1_555 1_555
C4B N3 1_555 1_555
N3L C5 1_555 1_555
C4L N4B 1_555 1_555
H2L C4L 1_555 1_555
H3L C4L 1_555 1_555
C4N N4 1_555 1_555
H2N C4N 1_555 1_555
H3N C4N 1_555 1_555
H4B C5 1_555 1_555
H2B C4B 1_555 1_555
H3B C4B 1_555 1_555
H1L C3 1_555 1_555
C2B N2B 1_555 1_555
N2B Cd2 1_555 1_555
C2H N2H 1_555 1_555
N2H Cd2 1_555 1_555
C2J N2J 1_555 1_555
N2J Cd2 1_555 1_555
Cd1B C2B 1_555 1_555
C1C N1C 1_555 1_555
N1C Cd1 1_555 1_555
C2N Cd1 1_555 1_555
N4D Cd1 1_555 1_555
N3H Cd2 1_555 1_555
Cd1D N4 1_555 1_555
Cd1F N4B 1_555 1_555
Cd2D N3L 1_555 1_555
Cd1F_2 C2H 1_555 1_555
Cd1D_2 C2J 1_555 1_555
C1B Cd1B 1_555 1_555
N1A Cd1B 1_555 1_555
C2L Cd1B 1_555 1_555
N4F Cd1B 1_555 1_555
Cd1C_2 C1C 1_555 1_555
N4 C4 1_555 1_555
N4B C4B 1_555 1_555
N3L C4L 1_555 1_555
N3L C4N 1_555 1_555

#END
