
#######################################################################
#
#                 Cambridge Crystallographic Data Centre
#                                CCDC 
#
#######################################################################
#
# If this CIF has been generated from an entry in the Cambridge 
# Structural Database, then it will include bibliographic, chemical, 
# crystal, experimental, refinement or atomic coordinate data resulting 
# from the CCDC's data processing and validation procedures.
#
#######################################################################

data_VITHIR
_symmetry_cell_setting           rhombohedral
_symmetry_space_group_name_H-M   'R -3 c'
_symmetry_Int_Tables_number      167
_space_group_name_Hall           '-R 3 2"c'
loop_
_symmetry_equiv_pos_site_id
_symmetry_equiv_pos_as_xyz
1 x,y,z
2 -y,x-y,z
3 -x+y,-x,z
4 y,x,1/2-z
5 x-y,-y,1/2-z
6 -x,-x+y,1/2-z
7 2/3+x,1/3+y,1/3+z
8 2/3-y,1/3+x-y,1/3+z
9 2/3-x+y,1/3-x,1/3+z
10 2/3+y,1/3+x,5/6-z
11 2/3+x-y,1/3-y,5/6-z
12 2/3-x,1/3-x+y,5/6-z
13 1/3+x,2/3+y,2/3+z
14 1/3-y,2/3+x-y,2/3+z
15 1/3-x+y,2/3-x,2/3+z
16 1/3+y,2/3+x,1/6-z
17 1/3+x-y,2/3-y,1/6-z
18 1/3-x,2/3-x+y,1/6-z
19 -x,-y,-z
20 y,-x+y,-z
21 x-y,x,-z
22 -y,-x,1/2+z
23 -x+y,y,1/2+z
24 x,x-y,1/2+z
25 1/3-x,2/3-y,2/3-z
26 1/3+y,2/3-x+y,2/3-z
27 1/3+x-y,2/3+x,2/3-z
28 1/3-y,2/3-x,1/6+z
29 1/3-x+y,2/3+y,1/6+z
30 1/3+x,2/3+x-y,1/6+z
31 2/3-x,1/3-y,1/3-z
32 2/3+y,1/3-x+y,1/3-z
33 2/3+x-y,1/3+x,1/3-z
34 2/3-y,1/3-x,5/6+z
35 2/3-x+y,1/3+y,5/6+z
36 2/3+x,1/3+x-y,5/6+z
_cell_length_a                   20.5333(3)
_cell_length_b                   20.5333(3)
_cell_length_c                   50.8055(15)
_cell_angle_alpha                90
_cell_angle_beta                 90
_cell_angle_gamma                120
_cell_volume                     18550.6
loop_
_atom_site_label
_atom_site_type_symbol
_atom_site_fract_x
_atom_site_fract_y
_atom_site_fract_z
Cd1 Cd 0.81705(2) 0.6667 0.4167
O1 O 0.89033(16) 0.79479(16) 0.40765(6)
O2 O 0.80989(17) 0.83639(17) 0.40465(7)
N1 N 0.7385(2) 0.6511(2) 0.38125(8)
N2 N 0.7309(2) 0.7110(2) 0.37510(9)
H1 H 0.7434 0.7486 0.3854
N3 N 0.6492(3) 0.5655(3) 0.27426(9)
H2 H 0.6600 0.5525 0.2595
N4 N 0.5820(2) 0.5600(2) 0.27944(8)
C1 C 0.5235(3) 0.5869(4) 0.31684(11)
H3 H 0.5378 0.6084 0.3341
H4 H 0.4812 0.5369 0.3182
H5 H 0.5100 0.6172 0.3063
C2 C 0.5873(2) 0.5844(3) 0.30437(8)
C3 C 0.6592(3) 0.6062(3) 0.31458(9)
C4 C 0.6974(3) 0.5938(3) 0.29476(11)
C5 C 0.7753(4) 0.6057(6) 0.29333(15)
H6 H 0.8056 0.6479 0.2822
H7 H 0.7736 0.5615 0.2862
H8 H 0.7968 0.6152 0.3107
C6 C 0.6891(3) 0.6365(3) 0.34119(10)
C7 C 0.7018(3) 0.7048(3) 0.35124(10)
C8 C 0.6909(6) 0.7652(4) 0.33960(17)
H9 H 0.7188 0.8106 0.3496
H10 H 0.6384 0.7500 0.3400
H11 H 0.7084 0.7739 0.3217
C9 C 0.7137(3) 0.5325(3) 0.35976(11)
H12 H 0.7627 0.5415 0.3647
H13 H 0.7021 0.5122 0.3423
H14 H 0.6769 0.4973 0.3718
C10 C 0.7129(3) 0.6061(3) 0.36059(10)
C11 C 0.8751(3) 0.8470(2) 0.40665(9)
C12 C 0.9395(2) 0.9262(2) 0.40762(9)
C13 C 0.9274(3) 0.9868(3) 0.40779(9)
H15 H 0.8783 0.9780 0.4080
O1A O 1.20521(16) 1.09554(23) 0.40765(6)
O2A O 1.16361(17) 0.97350(24) 0.40465(7)
C11A C 1.1530(2) 1.0281(4) 0.40665(9)
C12A C 1.0738(2) 1.0133(3) 0.40762(9)
C13A C 1.0132(3) 0.9406(4) 0.40779(9)
H15A H 1.0220 0.9003 0.4080
O1B O 0.90446(23) 1.10967(16) 0.40765(6)
O2B O 1.02650(24) 1.19011(17) 0.40465(7)
C11B C 0.9719(4) 1.1249(3) 0.40665(9)
C12B C 0.9867(3) 1.0605(2) 0.40762(9)
C13B C 1.0594(4) 1.0726(3) 0.40779(9)
H15B H 1.0997 1.1217 0.4080
Cd1A Cd 1.3333 1.15035(2) 0.4167
N1A N 1.3489(2) 1.0874(3) 0.38125(8)
N2A N 1.2890(2) 1.0199(3) 0.37510(9)
H1A H 1.2514 0.9948 0.3854
N3A N 1.4345(3) 1.0837(4) 0.27426(9)
H2A H 1.4475 1.1075 0.2595
N4A N 1.4400(2) 1.0220(3) 0.27944(8)
C1A C 1.4131(4) 0.9366(5) 0.31684(11)
H3A H 1.3916 0.9294 0.3341
H4A H 1.4631 0.9443 0.3182
H5A H 1.3828 0.8928 0.3063
C2A C 1.4156(3) 1.0029(4) 0.30437(8)
C3A C 1.3938(3) 1.0530(4) 0.31458(9)
C4A C 1.4062(3) 1.1036(4) 0.29476(11)
C5A C 1.3943(6) 1.1696(7) 0.29333(15)
H6A H 1.3521 1.1577 0.2822
H7A H 1.4385 1.2121 0.2862
H8A H 1.3848 1.1816 0.3107
C6A C 1.3635(3) 1.0526(4) 0.34119(10)
C7A C 1.2952(3) 0.9970(4) 0.35124(10)
C8A C 1.2348(4) 0.9257(7) 0.33960(17)
H9A H 1.1894 0.9082 0.3496
H10A H 1.2500 0.8884 0.3400
H11A H 1.2261 0.9345 0.3217
C9A C 1.4675(3) 1.1812(4) 0.35976(11)
H12A H 1.4585 1.2212 0.3647
H13A H 1.4878 1.1899 0.3423
H14A H 1.5027 1.1796 0.3718
C10A C 1.3939(3) 1.1068(4) 0.36059(10)
Cd1B Cd 0.84965(2) 1.18295(2) 0.4167
N1B N 0.9126(3) 1.2615(2) 0.38125(8)
N2B N 0.9801(3) 1.2691(2) 0.37510(9)
H1B H 1.0052 1.2566 0.3854
N3B N 0.9163(4) 1.3508(3) 0.27426(9)
H2B H 0.8925 1.3400 0.2595
N4B N 0.9780(3) 1.4180(2) 0.27944(8)
C1B C 1.0634(5) 1.4765(3) 0.31684(11)
H3B H 1.0706 1.4622 0.3341
H4B H 1.0557 1.5188 0.3182
H5B H 1.1072 1.4900 0.3063
C2B C 0.9971(4) 1.4127(2) 0.30437(8)
C3B C 0.9470(4) 1.3408(3) 0.31458(9)
C4B C 0.8964(4) 1.3026(3) 0.29476(11)
C5B C 0.8304(7) 1.2247(4) 0.29333(15)
H6B H 0.8423 1.1944 0.2822
H7B H 0.7879 1.2264 0.2862
H8B H 0.8184 1.2032 0.3107
C6B C 0.9474(4) 1.3109(3) 0.34119(10)
C7B C 1.0030(4) 1.2982(3) 0.35124(10)
C8B C 1.0743(7) 1.3091(6) 0.33960(17)
H9B H 1.0918 1.2812 0.3496
H10B H 1.1116 1.3616 0.3400
H11B H 1.0655 1.2916 0.3217
C9B C 0.8188(4) 1.2863(3) 0.35976(11)
H12B H 0.7788 1.2373 0.3647
H13B H 0.8101 1.2979 0.3423
H14B H 0.8204 1.3231 0.3718
C10B C 0.8932(4) 1.2871(3) 0.36059(10)
N1X N 0.5948(2) 1.0156(2) 0.28542(8)
N2X N 0.6024(2) 0.9557(2) 0.29157(9)
H1X H 0.5899 0.9181 0.2813
N3X N 0.6841(3) 1.1012(3) 0.39241(9)
H2X H 0.6733 1.1142 0.4072
N4X N 0.7513(2) 1.1067(2) 0.38723(8)
C1X C 0.8098(3) 1.0798(4) 0.34983(11)
H3X H 0.7955 1.0583 0.3326
H4X H 0.8521 1.1298 0.3485
H5X H 0.8233 1.0495 0.3604
C2X C 0.7460(2) 1.0823(3) 0.36230(8)
C3X C 0.6741(3) 1.0605(3) 0.35209(9)
C4X C 0.6359(3) 1.0729(3) 0.37191(11)
C5X C 0.5580(4) 1.0610(6) 0.37334(15)
H6X H 0.5277 1.0188 0.3845
H7X H 0.5597 1.1052 0.3805
H8X H 0.5365 1.0515 0.3560
C6X C 0.6442(3) 1.0302(3) 0.32548(10)
C7X C 0.6315(3) 0.9619(3) 0.31543(10)
C8X C 0.6424(6) 0.9015(4) 0.32707(17)
H9X H 0.6145 0.8561 0.3171
H10X H 0.6949 0.9167 0.3267
H11X H 0.6249 0.8928 0.3450
C9X C 0.6196(3) 1.1342(3) 0.30691(11)
H12X H 0.5706 1.1252 0.3020
H13X H 0.6312 1.1545 0.3244
H14X H 0.6564 1.1694 0.2949
C10X C 0.6204(3) 1.0606(3) 0.30608(10)
N1J N 0.7541(3) 0.6822(2) 0.45208(8)
N2J N 0.6866(3) 0.6223(2) 0.45823(9)
H1J H 0.6615 0.5847 0.4479
N3J N 0.7504(4) 0.7678(3) 0.55907(9)
H2J H 0.7742 0.7808 0.5738
N4J N 0.6887(3) 0.7733(2) 0.55389(8)
C1J C 0.6033(5) 0.7464(4) 0.51649(11)
H3J H 0.5961 0.7249 0.4992
H4J H 0.6110 0.7964 0.5151
H5J H 0.5595 0.7161 0.5270
C2J C 0.6696(4) 0.7489(3) 0.52896(8)
C3J C 0.7197(4) 0.7271(3) 0.51875(9)
C4J C 0.7703(4) 0.7395(3) 0.53857(11)
C5J C 0.8363(7) 0.7276(6) 0.54000(15)
H6J H 0.8244 0.6854 0.5511
H7J H 0.8788 0.7718 0.5471
H8J H 0.8483 0.7181 0.5226
C6J C 0.7193(4) 0.6968(3) 0.49214(10)
C7J C 0.6637(4) 0.6285(3) 0.48209(10)
C8J C 0.5924(7) 0.5681(4) 0.49373(17)
H9J H 0.5749 0.5227 0.4837
H10J H 0.5551 0.5833 0.4933
H11J H 0.6012 0.5594 0.5116
C9J C 0.8479(4) 0.8008(3) 0.47357(11)
H12J H 0.8879 0.7918 0.4686
H13J H 0.8566 0.8211 0.4910
H14J H 0.8463 0.8360 0.4615
C10J C 0.7735(4) 0.7272(3) 0.47274(10)
N1Y N 0.9844(2) 0.5793(3) 0.28542(8)
N2Y N 1.0443(2) 0.6468(3) 0.29157(9)
H1Y H 1.0819 0.6719 0.2813
N3Y N 0.8988(3) 0.5830(4) 0.39241(9)
H2Y H 0.8858 0.5592 0.4072
N4Y N 0.8933(2) 0.6447(3) 0.38723(8)
C1Y C 0.9202(4) 0.7301(5) 0.34983(11)
H3Y H 0.9417 0.7373 0.3326
H4Y H 0.8702 0.7224 0.3485
H5Y H 0.9505 0.7739 0.3604
C2Y C 0.9177(3) 0.6638(4) 0.36230(8)
C3Y C 0.9395(3) 0.6137(4) 0.35209(9)
C4Y C 0.9271(3) 0.5631(4) 0.37191(11)
C5Y C 0.9390(6) 0.4971(7) 0.37334(15)
H6Y H 0.9812 0.5090 0.3845
H7Y H 0.8948 0.4546 0.3805
H8Y H 0.9485 0.4851 0.3560
C6Y C 0.9698(3) 0.6141(4) 0.32548(10)
C7Y C 1.0381(3) 0.6697(4) 0.31543(10)
C8Y C 1.0985(4) 0.7410(7) 0.32707(17)
H9Y H 1.1439 0.7585 0.3171
H10Y H 1.0833 0.7783 0.3267
H11Y H 1.1072 0.7322 0.3450
C9Y C 0.8658(3) 0.4855(4) 0.30691(11)
H12Y H 0.8748 0.4455 0.3020
H13Y H 0.8455 0.4768 0.3244
H14Y H 0.8306 0.4871 0.2949
C10Y C 0.9394(3) 0.5599(4) 0.30608(10)
O1J O 0.76221(23) 0.53854(16) 0.42568(6)
O2J O 0.64017(24) 0.49694(17) 0.42868(7)
C11J C 0.6948(4) 0.4863(2) 0.42668(9)
C12J C 0.6800(3) 0.4071(2) 0.42571(9)
C13J C 0.6073(4) 0.3465(3) 0.42554(9)
H15J H 0.5670 0.3553 0.4253
O1K O 0.77634(16) 0.23779(23) 0.42568(6)
O2K O 0.85678(17) 0.35983(24) 0.42868(7)
C11K C 0.7916(3) 0.3052(4) 0.42668(9)
C12K C 0.7272(2) 0.3200(3) 0.42571(9)
C13K C 0.7393(3) 0.3927(4) 0.42554(9)
H15K H 0.7884 0.4330 0.4253
O1I O 0.46146(16) 0.22366(16) 0.42568(6)
O2I O 0.50306(17) 0.14322(17) 0.42868(7)
C11I C 0.5137(2) 0.2084(3) 0.42668(9)
C12I C 0.5929(2) 0.2728(2) 0.42571(9)
C13I C 0.6535(3) 0.2607(3) 0.42554(9)
H15I H 0.6447 0.2116 0.4253
Cd1A_2 Cd 0.3333 0.15035(2) 0.4167
Cd1B_2 Cd 0.84965(2) 0.18295(2) 0.4167
Cd1S Cd 0.6667 0.84965(2) 0.5833
Cd1GA Cd 1.0000 0.51628(2) 0.2500
Cd1GA_2 Cd 1.0000 1.51628(2) 0.2500
Cd1HA Cd 0.51632(2) 1.0000 0.2500
Cd1HA_2 Cd 1.51632(2) 1.0000 0.2500
Cd1IA Cd 0.48372(2) 0.48368(2) 0.2500
O1I_2 O 1.46146(16) 1.22366(16) 0.42568(6)
O1K_2 O 0.77634(16) 1.23779(23) 0.42568(6)
N1I N 1.3178(2) 1.0718(2) 0.45208(8)
N1K N 0.9282(2) 1.2459(3) 0.45208(8)
N4Z N 1.3553(3) 1.2487(2) 0.38723(8)
N4AA N 0.7733(2) 1.0847(2) 0.44611(8)
N4BA N 1.3113(3) 1.2267(2) 0.44611(8)
N4CA N 0.9153(2) 0.6887(3) 0.44611(8)
loop_
_geom_bond_atom_site_label_1
_geom_bond_atom_site_label_2
_geom_bond_site_symmetry_1
_geom_bond_site_symmetry_2
Cd1 O1 1_555 1_555
O1 C11 1_555 1_555
O2 C11 1_555 1_555
N1 Cd1 1_555 1_555
N2 N1 1_555 1_555
H1 N2 1_555 1_555
N3 H2 1_555 1_555
N4 N3 1_555 1_555
C1 H3 1_555 1_555
H4 C1 1_555 1_555
H5 C1 1_555 1_555
C2 N4 1_555 1_555
C3 C2 1_555 1_555
C4 N3 1_555 1_555
C5 C4 1_555 1_555
H6 C5 1_555 1_555
H7 C5 1_555 1_555
H8 C5 1_555 1_555
C6 C3 1_555 1_555
C7 N2 1_555 1_555
C8 C7 1_555 1_555
H9 C8 1_555 1_555
H10 C8 1_555 1_555
H11 C8 1_555 1_555
C9 H12 1_555 1_555
H13 C9 1_555 1_555
H14 C9 1_555 1_555
C10 N1 1_555 1_555
C11 C12 1_555 1_555
C12 C13 1_555 1_555
C13 H15 1_555 1_555
O1A C11A 1_555 1_555
O2A C11A 1_555 1_555
C11A C12A 1_555 1_555
C12A C13A 1_555 1_555
C13A C12 1_555 1_555
H15A C13A 1_555 1_555
O1B C11B 1_555 1_555
O2B C11B 1_555 1_555
C11B C12B 1_555 1_555
C12B C13 1_555 1_555
C13B C12A 1_555 1_555
H15B C13B 1_555 1_555
Cd1A O1A 1_555 1_555
N1A Cd1A 1_555 1_555
N2A N1A 1_555 1_555
H1A N2A 1_555 1_555
N3A H2A 1_555 1_555
N4A N3A 1_555 1_555
C1A H3A 1_555 1_555
H4A C1A 1_555 1_555
H5A C1A 1_555 1_555
C2A N4A 1_555 1_555
C3A C2A 1_555 1_555
C4A N3A 1_555 1_555
C5A C4A 1_555 1_555
H6A C5A 1_555 1_555
H7A C5A 1_555 1_555
H8A C5A 1_555 1_555
C6A C3A 1_555 1_555
C7A N2A 1_555 1_555
C8A C7A 1_555 1_555
H9A C8A 1_555 1_555
H10A C8A 1_555 1_555
H11A C8A 1_555 1_555
C9A H12A 1_555 1_555
H13A C9A 1_555 1_555
H14A C9A 1_555 1_555
C10A N1A 1_555 1_555
Cd1B O1B 1_555 1_555
N1B Cd1B 1_555 1_555
N2B N1B 1_555 1_555
H1B N2B 1_555 1_555
N3B H2B 1_555 1_555
N4B N3B 1_555 1_555
C1B H3B 1_555 1_555
H4B C1B 1_555 1_555
H5B C1B 1_555 1_555
C2B N4B 1_555 1_555
C3B C2B 1_555 1_555
C4B N3B 1_555 1_555
C5B C4B 1_555 1_555
H6B C5B 1_555 1_555
H7B C5B 1_555 1_555
H8B C5B 1_555 1_555
C6B C3B 1_555 1_555
C7B N2B 1_555 1_555
C8B C7B 1_555 1_555
H9B C8B 1_555 1_555
H10B C8B 1_555 1_555
H11B C8B 1_555 1_555
C9B H12B 1_555 1_555
H13B C9B 1_555 1_555
H14B C9B 1_555 1_555
C10B N1B 1_555 1_555
N1X N2X 1_555 1_555
N2X H1X 1_555 1_555
N3X H2X 1_555 1_555
N4X Cd1B 1_555 1_555
C1X H3X 1_555 1_555
H4X C1X 1_555 1_555
H5X C1X 1_555 1_555
C2X N4X 1_555 1_555
C3X C2X 1_555 1_555
C4X N3X 1_555 1_555
C5X C4X 1_555 1_555
H6X C5X 1_555 1_555
H7X C5X 1_555 1_555
H8X C5X 1_555 1_555
C6X C3X 1_555 1_555
C7X N2X 1_555 1_555
C8X C7X 1_555 1_555
H9X C8X 1_555 1_555
H10X C8X 1_555 1_555
H11X C8X 1_555 1_555
C9X H12X 1_555 1_555
H13X C9X 1_555 1_555
H14X C9X 1_555 1_555
C10X N1X 1_555 1_555
N1J Cd1 1_555 1_555
N2J N1J 1_555 1_555
H1J N2J 1_555 1_555
N3J H2J 1_555 1_555
N4J N3J 1_555 1_555
C1J H3J 1_555 1_555
H4J C1J 1_555 1_555
H5J C1J 1_555 1_555
C2J N4J 1_555 1_555
C3J C2J 1_555 1_555
C4J N3J 1_555 1_555
C5J C4J 1_555 1_555
H6J C5J 1_555 1_555
H7J C5J 1_555 1_555
H8J C5J 1_555 1_555
C6J C3J 1_555 1_555
C7J N2J 1_555 1_555
C8J C7J 1_555 1_555
H9J C8J 1_555 1_555
H10J C8J 1_555 1_555
H11J C8J 1_555 1_555
C9J H12J 1_555 1_555
H13J C9J 1_555 1_555
H14J C9J 1_555 1_555
C10J N1J 1_555 1_555
N1Y N2Y 1_555 1_555
N2Y H1Y 1_555 1_555
N3Y H2Y 1_555 1_555
N4Y Cd1 1_555 1_555
C1Y H3Y 1_555 1_555
H4Y C1Y 1_555 1_555
H5Y C1Y 1_555 1_555
C2Y N4Y 1_555 1_555
C3Y C2Y 1_555 1_555
C4Y N3Y 1_555 1_555
C5Y C4Y 1_555 1_555
H6Y C5Y 1_555 1_555
H7Y C5Y 1_555 1_555
H8Y C5Y 1_555 1_555
C6Y C3Y 1_555 1_555
C7Y N2Y 1_555 1_555
C8Y C7Y 1_555 1_555
H9Y C8Y 1_555 1_555
H10Y C8Y 1_555 1_555
H11Y C8Y 1_555 1_555
C9Y H12Y 1_555 1_555
H13Y C9Y 1_555 1_555
H14Y C9Y 1_555 1_555
C10Y N1Y 1_555 1_555
O1J Cd1 1_555 1_555
O2J C11J 1_555 1_555
C11J O1J 1_555 1_555
C12J C11J 1_555 1_555
C13J C12J 1_555 1_555
H15J C13J 1_555 1_555
O1K C11K 1_555 1_555
O2K C11K 1_555 1_555
C11K C12K 1_555 1_555
C12K C13K 1_555 1_555
C13K C12J 1_555 1_555
H15K C13K 1_555 1_555
O1I C11I 1_555 1_555
O2I C11I 1_555 1_555
C11I C12I 1_555 1_555
C12I C13J 1_555 1_555
C13I C12K 1_555 1_555
H15I C13I 1_555 1_555
Cd1A_2 O1I 1_555 1_555
Cd1B_2 O1K 1_555 1_555
Cd1S N4J 1_555 1_555
Cd1GA N1Y 1_555 1_555
Cd1GA_2 N4B 1_555 1_555
Cd1HA N1X 1_555 1_555
Cd1HA_2 N4A 1_555 1_555
Cd1IA N4 1_555 1_555
O1I_2 Cd1A 1_555 1_555
O1K_2 Cd1B 1_555 1_555
N1I Cd1A 1_555 1_555
N1K Cd1B 1_555 1_555
N4Z Cd1A 1_555 1_555
N4AA Cd1B 1_555 1_555
N4BA Cd1A 1_555 1_555
N4CA Cd1 1_555 1_555
C1 C2 1_555 1_555
C3 C4 1_555 1_555
C6 C7 1_555 1_555
C6 C10 1_555 1_555
C9 C10 1_555 1_555
C12B C13B 1_555 1_555
C1A C2A 1_555 1_555
C3A C4A 1_555 1_555
C6A C7A 1_555 1_555
C6A C10A 1_555 1_555
C9A C10A 1_555 1_555
C1B C2B 1_555 1_555
C3B C4B 1_555 1_555
C6B C7B 1_555 1_555
C6B C10B 1_555 1_555
C9B C10B 1_555 1_555
N3X N4X 1_555 1_555
C1X C2X 1_555 1_555
C3X C4X 1_555 1_555
C6X C7X 1_555 1_555
C6X C10X 1_555 1_555
C9X C10X 1_555 1_555
C1J C2J 1_555 1_555
C3J C4J 1_555 1_555
C6J C7J 1_555 1_555
C6J C10J 1_555 1_555
C9J C10J 1_555 1_555
N3Y N4Y 1_555 1_555
C1Y C2Y 1_555 1_555
C3Y C4Y 1_555 1_555
C6Y C7Y 1_555 1_555
C6Y C10Y 1_555 1_555
C9Y C10Y 1_555 1_555
C12I C13I 1_555 1_555

#END
