
#######################################################################
#
#                 Cambridge Crystallographic Data Centre
#                                CCDC 
#
#######################################################################
#
# If this CIF has been generated from an entry in the Cambridge 
# Structural Database, then it will include bibliographic, chemical, 
# crystal, experimental, refinement or atomic coordinate data resulting 
# from the CCDC's data processing and validation procedures.
#
#######################################################################

data_VIWKIX
_symmetry_cell_setting           monoclinic
_symmetry_space_group_name_H-M   'P 21/n'
_symmetry_Int_Tables_number      14
_space_group_name_Hall           '-P 2yn'
loop_
_symmetry_equiv_pos_site_id
_symmetry_equiv_pos_as_xyz
1 x,y,z
2 1/2-x,1/2+y,1/2-z
3 -x,-y,-z
4 1/2+x,1/2-y,1/2+z
_cell_length_a                   11.006(2)
_cell_length_b                   23.228(5)
_cell_length_c                   19.847(4)
_cell_angle_alpha                90
_cell_angle_beta                 99.91(3)
_cell_angle_gamma                90
_cell_volume                     4998.13
loop_
_atom_site_label
_atom_site_type_symbol
_atom_site_fract_x
_atom_site_fract_y
_atom_site_fract_z
La1 La -0.46193(4) 0.14439(2) 0.39823(2)
La2 La 0.85114(5) 0.14369(2) 1.14473(3)
Cu1 Cu 0.09015(9) 0.17962(5) 0.89752(5)
Cu2 Cu 0.30133(9) 0.17992(5) 0.65004(5)
C1 C -0.2481(7) 0.2503(4) 0.5838(4)
C2 C -0.2794(7) 0.2798(4) 0.6411(4)
C3 C -0.2076(7) 0.2740(4) 0.7040(4)
H1 H -0.2282 0.2941 0.7410
C4 C -0.1041(7) 0.2384(4) 0.7141(4)
C5 C -0.0718(7) 0.2088(4) 0.6584(4)
C6 C -0.1434(7) 0.2156(4) 0.5937(4)
H2 H -0.1208 0.1966 0.5565
C7 C -0.3167(7) 0.2595(4) 0.5129(4)
C8 C -0.3986(8) 0.3117(4) 0.6349(5)
C9 C -0.0358(7) 0.2298(4) 0.7850(4)
C10 C 0.0444(7) 0.1746(4) 0.6634(4)
C11 C -0.1271(8) -0.0036(4) 0.5020(5)
C12 C -0.0770(9) 0.0457(4) 0.4765(6)
C13 C 0.0484(8) 0.0484(4) 0.4755(5)
H3 H 0.0805 0.0816 0.4591
C14 C -0.2606(8) -0.0100(4) 0.5082(5)
C15 C -0.1591(10) 0.0943(5) 0.4461(7)
C16 C 0.4620(7) 0.2100(4) 0.8890(4)
C17 C 0.4912(7) 0.2407(4) 0.8329(4)
C18 C 0.5911(7) 0.2782(4) 0.8431(4)
H4 H 0.6086 0.2997 0.8064
C19 C 0.6651(7) 0.2842(4) 0.9065(4)
C20 C 0.6363(7) 0.2533(4) 0.9621(4)
C21 C 0.5351(7) 0.2169(4) 0.9531(4)
H5 H 0.5158 0.1967 0.9903
C22 C 0.3485(8) 0.1732(4) 0.8851(4)
C23 C 0.4221(7) 0.2318(4) 0.7618(4)
C24 C 0.7852(7) 0.3169(4) 0.9115(4)
C25 C 0.7072(7) 0.2607(4) 1.0335(4)
O1 O -0.3544(6) 0.2169(3) 0.4780(3)
O2 O -0.3267(6) 0.3112(3) 0.4920(3)
O3 O -0.4934(5) 0.2917(3) 0.5954(3)
O4 O -0.4073(6) 0.3554(3) 0.6707(4)
O5 O -0.0262(6) 0.2716(3) 0.8253(3)
O6 O 0.0070(5) 0.1807(3) 0.8020(3)
O7 O 0.1437(5) 0.2038(3) 0.6776(3)
O8 O 0.0381(6) 0.1226(3) 0.6512(4)
O9 O -0.3281(6) -0.0397(3) 0.4643(4)
O10 O -0.2970(6) 0.0129(3) 0.5581(4)
O11 O -0.2710(6) 0.0890(3) 0.4402(4)
O12 O -0.1049(8) 0.1378(5) 0.4287(10)
O13 O 0.2464(5) 0.1987(3) 0.8657(3)
O14 O 0.3588(7) 0.1231(3) 0.9047(4)
O15 O 0.3846(6) 0.1817(3) 0.7453(3)
O16 O 0.4098(6) 0.2730(3) 0.7210(3)
O17 O 0.7922(6) 0.3614(3) 0.8765(4)
O18 O 0.8788(5) 0.2960(3) 0.9502(3)
O19 O 0.7391(6) 0.2164(3) 1.0684(3)
O20 O 0.7229(6) 0.3117(3) 1.0552(3)
O21 O -0.4797(6) 0.1019(3) 0.5177(3)
O22 O -0.5171(8) 0.0371(3) 0.3872(4)
O23 O -0.4804(8) 0.1067(4) 0.2748(4)
O24 O -0.2781(6) 0.1852(3) 0.3451(4)
O25 O 0.6581(8) 0.1771(4) 1.1942(5)
O26 O 0.8773(15) 0.1067(5) 1.2671(5)
O27 O 0.9172(15) 0.0374(4) 1.1580(6)
O28 O 0.6670(10) 0.0817(6) 1.0970(7)
O29 O 0.8902(11) 0.1035(4) 1.0320(4)
O30 O -0.0721(6) 0.1818(3) 0.9313(3)
O31 O 0.1053(13) 0.0835(4) 0.9057(6)
O32 O 0.2702(7) 0.0840(3) 0.6488(4)
O33 O 0.4689(5) 0.1797(3) 0.6185(3)
C11B C 0.1271(8) 0.0036(4) 0.4980(5)
C12B C 0.0770(9) -0.0457(4) 0.5235(6)
C13B C -0.0484(8) -0.0484(4) 0.5245(5)
H3B H -0.0805 -0.0816 0.5409
C14B C 0.2606(8) 0.0100(4) 0.4918(5)
C15B C 0.1591(10) -0.0943(5) 0.5539(7)
O9B O 0.3281(6) 0.0397(3) 0.5357(4)
O10B O 0.2970(6) -0.0129(3) 0.4419(4)
O11B O 0.2710(6) -0.0890(3) 0.5598(4)
O12B O 0.1049(8) -0.1378(5) 0.5713(10)
La1B La 0.46193(4) -0.14439(2) 0.60177(2)
La2B La -0.85114(5) -0.14369(2) -0.14473(3)
Cu1B Cu -0.09015(9) -0.17962(5) 0.10248(5)
Cu2B Cu -0.30133(9) -0.17992(5) 0.34996(5)
C1B C 0.2481(7) -0.2503(4) 0.4162(4)
C2B C 0.2794(7) -0.2798(4) 0.3589(4)
C3B C 0.2076(7) -0.2740(4) 0.2960(4)
H1B H 0.2282 -0.2941 0.2590
C4B C 0.1041(7) -0.2384(4) 0.2859(4)
C5B C 0.0718(7) -0.2088(4) 0.3416(4)
C6B C 0.1434(7) -0.2156(4) 0.4063(4)
H2B H 0.1208 -0.1966 0.4435
C7B C 0.3167(7) -0.2595(4) 0.4871(4)
C8B C 0.3986(8) -0.3117(4) 0.3651(5)
C9B C 0.0358(7) -0.2298(4) 0.2150(4)
C10B C -0.0444(7) -0.1746(4) 0.3366(4)
C16B C -0.4620(7) -0.2100(4) 0.1110(4)
C17B C -0.4912(7) -0.2407(4) 0.1671(4)
C18B C -0.5911(7) -0.2782(4) 0.1569(4)
H4B H -0.6086 -0.2997 0.1936
C19B C -0.6651(7) -0.2842(4) 0.0935(4)
C20B C -0.6363(7) -0.2533(4) 0.0379(4)
C21B C -0.5351(7) -0.2169(4) 0.0469(4)
H5B H -0.5158 -0.1967 0.0097
C22B C -0.3485(8) -0.1732(4) 0.1149(4)
C23B C -0.4221(7) -0.2318(4) 0.2382(4)
C24B C -0.7852(7) -0.3169(4) 0.0885(4)
C25B C -0.7072(7) -0.2607(4) -0.0335(4)
O1B O 0.3544(6) -0.2169(3) 0.5220(3)
O2B O 0.3267(6) -0.3112(3) 0.5080(3)
O3B O 0.4934(5) -0.2917(3) 0.4046(3)
O4B O 0.4073(6) -0.3554(3) 0.3293(4)
O5B O 0.0262(6) -0.2716(3) 0.1747(3)
O6B O -0.0070(5) -0.1807(3) 0.1980(3)
O7B O -0.1437(5) -0.2038(3) 0.3224(3)
O8B O -0.0381(6) -0.1226(3) 0.3488(4)
O13B O -0.2464(5) -0.1987(3) 0.1343(3)
O14B O -0.3588(7) -0.1231(3) 0.0953(4)
O15B O -0.3846(6) -0.1817(3) 0.2547(3)
O16B O -0.4098(6) -0.2730(3) 0.2790(3)
O17B O -0.7922(6) -0.3614(3) 0.1235(4)
O18B O -0.8788(5) -0.2960(3) 0.0498(3)
O19B O -0.7391(6) -0.2164(3) -0.0684(3)
O20B O -0.7229(6) -0.3117(3) -0.0552(3)
O21B O 0.4797(6) -0.1019(3) 0.4823(3)
O22B O 0.5171(8) -0.0371(3) 0.6128(4)
O23B O 0.4804(8) -0.1067(4) 0.7252(4)
O24B O 0.2781(6) -0.1852(3) 0.6549(4)
O25B O -0.6581(8) -0.1771(4) -0.1942(5)
O26B O -0.8773(15) -0.1067(5) -0.2671(5)
O27B O -0.9172(15) -0.0374(4) -0.1580(6)
O28B O -0.6670(10) -0.0817(6) -0.0970(7)
O29B O -0.8902(11) -0.1035(4) -0.0320(4)
O30B O 0.0721(6) -0.1818(3) 0.0687(3)
O31B O -0.1053(13) -0.0835(4) 0.0943(6)
O32B O -0.2702(7) -0.0840(3) 0.3512(4)
O33B O -0.4689(5) -0.1797(3) 0.3815(3)
La1A La -1.03807(4) -0.35561(2) 0.10177(2)
La1A_2 La -0.03807(4) -0.35561(2) 0.10177(2)
La1C La 0.03807(4) 0.35561(2) 0.89823(2)
La1C_2 La 1.03807(4) 0.35561(2) 0.89823(2)
La2A La -0.35114(5) -0.35631(2) 0.35527(3)
La2A_2 La 0.64886(5) -0.35631(2) 0.35527(3)
La2C La -0.64886(5) 0.35631(2) 0.64473(3)
La2C_2 La 0.35114(5) 0.35631(2) 0.64473(3)
Cu1A Cu 0.40985(9) -0.32038(5) 0.60248(5)
Cu1C Cu -0.40985(9) 0.32038(5) 0.39752(5)
Cu2A Cu -0.80133(9) -0.32008(5) -0.15004(5)
Cu2C Cu 0.80133(9) 0.32008(5) 1.15004(5)
O2A O -0.1733(6) -0.1888(3) 0.0080(3)
O2C O 0.1733(6) 0.1888(3) 0.9920(3)
O3A O -1.0066(5) -0.2083(3) -0.0954(3)
O3C O 1.0066(5) 0.2083(3) 1.0954(3)
O4A O -1.0927(6) -0.1446(3) -0.1707(4)
O4C O 1.0927(6) 0.1446(3) 1.1707(4)
O5A O 0.5262(6) -0.2284(3) 0.6747(3)
O5C O -0.5262(6) 0.2284(3) 0.3253(3)
O16A O -0.9098(6) -0.2270(3) -0.2210(3)
O16C O 0.9098(6) 0.2270(3) 1.2210(3)
O17A O 0.7078(6) -0.1386(3) 0.6235(4)
O17C O -0.7078(6) 0.1386(3) 0.3765(4)
O18A O 0.6212(5) -0.2040(3) 0.5498(3)
O18C O -0.6212(5) 0.2040(3) 0.4502(3)
O20A O -0.2229(6) -0.1883(3) 0.4448(3)
O20C O 0.2229(6) 0.1883(3) 0.5552(3)
O34 O 0.8334(9) 0.0645(5) 0.6673(5)
O35 O 0.7427(10) 0.1285(6) 0.8557(6)
O36 O 0.6490(12) 0.1236(7) 0.7197(7)
O37 O 0.8906(16) -0.0640(6) 0.6916(7)
O38 O 0.7033(14) -0.0749(7) 0.8056(11)
O39 O 0.871(3) 0.0316(10) 0.8073(11)
O40 O 0.582(2) 0.0684(9) 0.925(2)
O41 O 0.595(3) -0.1152(12) 0.9264(12)
O42 O 0.490(3) 0.0282(11) 0.7418(17)
O43 O 0.792(5) -0.0496(17) 1.2104(15)
loop_
_geom_bond_atom_site_label_1
_geom_bond_atom_site_label_2
_geom_bond_site_symmetry_1
_geom_bond_site_symmetry_2
La1 O1 1_555 1_555
La2 O19 1_555 1_555
Cu1 O5 1_555 1_555
Cu2 O7 1_555 1_555
C1 C2 1_555 1_555
C2 C3 1_555 1_555
C3 H1 1_555 1_555
C4 C3 1_555 1_555
C5 C4 1_555 1_555
C6 C1 1_555 1_555
H2 C6 1_555 1_555
C7 C1 1_555 1_555
C8 C2 1_555 1_555
C9 C4 1_555 1_555
C10 C5 1_555 1_555
C11 C12 1_555 1_555
C12 C13 1_555 1_555
C13 H3 1_555 1_555
C14 C11 1_555 1_555
C15 C12 1_555 1_555
C16 C17 1_555 1_555
C17 C18 1_555 1_555
C18 H4 1_555 1_555
C19 C18 1_555 1_555
C20 C19 1_555 1_555
C21 C16 1_555 1_555
H5 C21 1_555 1_555
C22 C16 1_555 1_555
C23 C17 1_555 1_555
C24 C19 1_555 1_555
C25 C20 1_555 1_555
O1 C7 1_555 1_555
O2 C7 1_555 1_555
O3 C8 1_555 1_555
O4 C8 1_555 1_555
O5 C9 1_555 1_555
O6 Cu1 1_555 1_555
O7 C10 1_555 1_555
O8 C10 1_555 1_555
O9 C14 1_555 1_555
O10 C14 1_555 1_555
O11 La1 1_555 1_555
O12 C15 1_555 1_555
O13 Cu1 1_555 1_555
O14 C22 1_555 1_555
O15 Cu2 1_555 1_555
O16 Cu2 1_555 1_555
O17 C24 1_555 1_555
O18 C24 1_555 1_555
O19 C25 1_555 1_555
O20 C25 1_555 1_555
O21 La1 1_555 1_555
O22 La1 1_555 1_555
O23 La1 1_555 1_555
O24 La1 1_555 1_555
O25 La2 1_555 1_555
O26 La2 1_555 1_555
O27 La2 1_555 1_555
O28 La2 1_555 1_555
O29 La2 1_555 1_555
O30 Cu1 1_555 1_555
O31 Cu1 1_555 1_555
O32 Cu2 1_555 1_555
O33 Cu2 1_555 1_555
C11B C13 1_555 1_555
C12B C11B 1_555 1_555
C13B C11 1_555 1_555
H3B C13B 1_555 1_555
C14B C11B 1_555 1_555
C15B C12B 1_555 1_555
O9B C14B 1_555 1_555
O10B C14B 1_555 1_555
O11B C15B 1_555 1_555
O12B C15B 1_555 1_555
La1B O11B 1_555 1_555
La2B O19B 1_555 1_555
Cu1B O5B 1_555 1_555
Cu2B O7B 1_555 1_555
C1B C2B 1_555 1_555
C2B C3B 1_555 1_555
C3B H1B 1_555 1_555
C4B C3B 1_555 1_555
C5B C4B 1_555 1_555
C6B C1B 1_555 1_555
H2B C6B 1_555 1_555
C7B C1B 1_555 1_555
C8B C2B 1_555 1_555
C9B C4B 1_555 1_555
C10B C5B 1_555 1_555
C16B C17B 1_555 1_555
C17B C18B 1_555 1_555
C18B H4B 1_555 1_555
C19B C18B 1_555 1_555
C20B C19B 1_555 1_555
C21B C16B 1_555 1_555
H5B C21B 1_555 1_555
C22B C16B 1_555 1_555
C23B C17B 1_555 1_555
C24B C19B 1_555 1_555
C25B C20B 1_555 1_555
O1B La1B 1_555 1_555
O2B C7B 1_555 1_555
O3B C8B 1_555 1_555
O4B C8B 1_555 1_555
O5B C9B 1_555 1_555
O6B Cu1B 1_555 1_555
O7B C10B 1_555 1_555
O8B C10B 1_555 1_555
O13B Cu1B 1_555 1_555
O14B C22B 1_555 1_555
O15B Cu2B 1_555 1_555
O16B Cu2B 1_555 1_555
O17B C24B 1_555 1_555
O18B C24B 1_555 1_555
O19B C25B 1_555 1_555
O20B C25B 1_555 1_555
O21B La1B 1_555 1_555
O22B La1B 1_555 1_555
O23B La1B 1_555 1_555
O24B La1B 1_555 1_555
O25B La2B 1_555 1_555
O26B La2B 1_555 1_555
O27B La2B 1_555 1_555
O28B La2B 1_555 1_555
O29B La2B 1_555 1_555
O30B Cu1B 1_555 1_555
O31B Cu1B 1_555 1_555
O32B Cu2B 1_555 1_555
O33B Cu2B 1_555 1_555
La1A O17B 1_555 1_555
La1A_2 O5B 1_555 1_555
La1C O5 1_555 1_555
La1C_2 O17 1_555 1_555
La2A O16B 1_555 1_555
La2A_2 O3B 1_555 1_555
La2C O3 1_555 1_555
La2C_2 O16 1_555 1_555
Cu1A O2B 1_555 1_555
Cu1C O2 1_555 1_555
Cu2A O20B 1_555 1_555
Cu2C O20 1_555 1_555
O2A Cu1B 1_555 1_555
O2C Cu1 1_555 1_555
O3A La2B 1_555 1_555
O3C La2 1_555 1_555
O4A La2B 1_555 1_555
O4C La2 1_555 1_555
O5A La1B 1_555 1_555
O5C La1 1_555 1_555
O16A La2B 1_555 1_555
O16C La2 1_555 1_555
O17A La1B 1_555 1_555
O17C La1 1_555 1_555
O18A La1B 1_555 1_555
O18C La1 1_555 1_555
O20A Cu2B 1_555 1_555
O20C Cu2 1_555 1_555
C5 C6 1_555 1_555
C9 O6 1_555 1_555
C15 O11 1_555 1_555
C20 C21 1_555 1_555
C22 O13 1_555 1_555
C23 O15 1_555 1_555
C23 O16 1_555 1_555
O4 La2C 1_555 1_555
O18 La1C_2 1_555 1_555
C12B C13B 1_555 1_555
C5B C6B 1_555 1_555
C7B O1B 1_555 1_555
C9B O6B 1_555 1_555
C20B C21B 1_555 1_555
C22B O13B 1_555 1_555
C23B O15B 1_555 1_555
C23B O16B 1_555 1_555
O4B La2A_2 1_555 1_555
O18B La1A 1_555 1_555
Cu1A O5A 1_555 1_555
Cu1C O5C 1_555 1_555
Cu2A O16A 1_555 1_555
Cu2C O16C 1_555 1_555

#END
