
#######################################################################
#
#                 Cambridge Crystallographic Data Centre
#                                CCDC 
#
#######################################################################
#
# If this CIF has been generated from an entry in the Cambridge 
# Structural Database, then it will include bibliographic, chemical, 
# crystal, experimental, refinement or atomic coordinate data resulting 
# from the CCDC's data processing and validation procedures.
#
#######################################################################

data_VUKHOZ
_symmetry_cell_setting           tetragonal
_symmetry_space_group_name_H-M   'P 42/n'
_symmetry_Int_Tables_number      86
_space_group_name_Hall           '-P 4bc'
loop_
_symmetry_equiv_pos_site_id
_symmetry_equiv_pos_as_xyz
1 x,y,z
2 -y,1/2+x,1/2+z
3 1/2-x,1/2-y,z
4 1/2+y,-x,1/2+z
5 -x,-y,-z
6 y,1/2-x,1/2-z
7 1/2+x,1/2+y,-z
8 1/2-y,x,1/2-z
_cell_length_a                   30.984(6)
_cell_length_b                   30.984(6)
_cell_length_c                   6.7681(14)
_cell_angle_alpha                90
_cell_angle_beta                 90
_cell_angle_gamma                90
_cell_volume                     6497.43
loop_
_atom_site_label
_atom_site_type_symbol
_atom_site_fract_x
_atom_site_fract_y
_atom_site_fract_z
Ag1 Ag 0.441277(11) 0.479746(12) 0.92467(5)
Ag2 Ag 0.456715(12) 0.509542(12) 1.36275(6)
F1 F 0.23023(9) 0.66164(9) 1.6562(4)
F2 F 0.21614(9) 0.59428(9) 1.7012(4)
F3 F 0.16496(9) 0.63944(10) 1.6486(4)
F4 F 0.24249(9) 0.68555(9) 1.2717(5)
F5 F 0.19704(9) 0.65714(9) 1.0697(4)
F6 F 0.17451(9) 0.68915(9) 1.3329(4)
F7 F 0.29934(9) 0.39889(9) -0.2627(4)
F8 F 0.30159(9) 0.33556(9) -0.1350(4)
F9 F 0.24752(9) 0.35434(10) -0.3149(4)
F10 F 0.20716(9) 0.36063(9) 0.2678(4)
F11 F 0.26668(9) 0.32709(9) 0.2186(4)
F12 F 0.21430(9) 0.31846(9) 0.0151(4)
O1 O 0.40612(10) 0.55500(10) 1.2620(5)
O2 O 0.37805(10) 0.51896(10) 1.0095(5)
O3 O 0.06923(11) 0.46393(10) 1.3349(5)
O4 O 0.02827(10) 0.51744(10) 1.2150(5)
O5 O 0.39653(10) 0.47199(11) 0.6006(5)
O6 O 0.33299(10) 0.49650(12) 0.7137(5)
H1 H 0.3482 0.5054 0.8041
O7 O 0.07468(11) 0.49243(11) -0.2151(6)
O8 O 0.12509(10) 0.54411(10) -0.2157(5)
H2 H 0.1040 0.5598 -0.2301
C1 C 0.37481(13) 0.54500(14) 1.1512(6)
C2 C 0.33217(14) 0.56494(14) 1.1991(7)
C3 C 0.29676(14) 0.56320(15) 1.0730(6)
H3 H 0.2992 0.5502 0.9497
C4 C 0.25749(14) 0.58112(15) 1.1326(7)
H4 H 0.2339 0.5803 1.0476
C5 C 0.25316(13) 0.60032(14) 1.3184(6)
C6 C 0.28888(15) 0.60231(15) 1.4406(7)
H5 H 0.2867 0.6156 1.5635
C7 C 0.32761(15) 0.58481(15) 1.3820(7)
H6 H 0.3512 0.5863 1.4664
C8 C 0.20909(13) 0.61979(14) 1.3730(6)
C9 C 0.20520(15) 0.62924(15) 1.5957(7)
C10 C 0.20591(15) 0.66347(15) 1.2603(7)
C11 C 0.17163(14) 0.58901(14) 1.3232(6)
C12 C 0.17758(14) 0.54437(15) 1.3454(7)
H7 H 0.2050 0.5336 1.3724
C13 C 0.14324(15) 0.51621(15) 1.3275(7)
H8 H 0.1475 0.4868 1.3457
C14 C 0.10219(13) 0.53184(14) 1.2822(6)
C15 C 0.06465(14) 0.50193(15) 1.2777(7)
C16 C 0.09660(14) 0.57573(14) 1.2533(6)
H9 H 0.0696 0.5862 1.2168
C17 C 0.13020(14) 0.60404(14) 1.2777(7)
H10 H 0.1254 0.6335 1.2638
C18 C 0.35710(15) 0.47608(15) 0.5839(7)
C19 C 0.33182(14) 0.45672(14) 0.4201(6)
C20 C 0.35128(14) 0.42850(15) 0.2872(7)
H11 H 0.3810 0.4245 0.2899
C21 C 0.32623(15) 0.40625(15) 0.1504(7)
H12 H 0.3394 0.3872 0.0630
C22 C 0.28163(14) 0.41223(14) 0.1427(6)
C23 C 0.26272(15) 0.44114(15) 0.2748(7)
H13 H 0.2330 0.4455 0.2714
C24 C 0.28745(15) 0.46348(15) 0.4110(6)
H14 H 0.2744 0.4830 0.4965
C25 C 0.25171(14) 0.38627(14) 0.0054(6)
C26 C 0.27531(16) 0.36823(15) -0.1777(7)
C27 C 0.23478(15) 0.34757(16) 0.1271(7)
C28 C 0.21402(14) 0.41516(15) -0.0679(6)
C29 C 0.17121(16) 0.40178(16) -0.0729(7)
H15 H 0.1643 0.3734 -0.0416
C30 C 0.13870(16) 0.43043(16) -0.1241(7)
H16 H 0.1102 0.4211 -0.1258
C31 C 0.14826(15) 0.47260(15) -0.1724(7)
C32 C 0.19142(15) 0.48602(15) -0.1775(7)
H17 H 0.1983 0.5141 -0.2143
C33 C 0.22367(15) 0.45723(15) -0.1275(7)
H18 H 0.2523 0.4660 -0.1337
C34 C 0.11242(15) 0.50340(15) -0.2051(7)
Ag1G Ag 0.020254(12) 0.441277(11) 1.57533(5)
Ag1C Ag -0.020254(12) 0.558723(11) 1.42467(5)
Ag1G_2 Ag 0.020254(12) 0.441277(11) -0.42467(5)
Ag2C Ag 0.009542(12) 0.543285(12) 0.86275(6)
Ag2G Ag -0.009542(12) 0.456715(12) 1.13725(6)
Ag2_2 Ag 0.456715(12) 0.509542(12) 0.36275(6)
Ag2C_2 Ag 0.009542(12) 0.543285(12) -0.13725(6)
O3E O 0.46393(10) 0.43077(11) 1.1651(5)
O4A O 0.48256(10) 0.52827(10) 0.7150(5)
O4A_2 O 0.48256(10) 0.52827(10) 1.7150(5)
O4E O 0.51744(10) 0.47173(10) 1.2850(5)
O5_2 O 0.39653(10) 0.47199(11) 1.6006(5)
O7E O 0.49243(11) 0.42532(11) 0.7151(6)
O7A O 0.50757(11) 0.57468(11) 1.2849(6)
loop_
_geom_bond_atom_site_label_1
_geom_bond_atom_site_label_2
_geom_bond_site_symmetry_1
_geom_bond_site_symmetry_2
Ag1 O2 1_555 1_555
Ag2 O1 1_555 1_555
F1 C9 1_555 1_555
F2 C9 1_555 1_555
F3 C9 1_555 1_555
F4 C10 1_555 1_555
F5 C10 1_555 1_555
F6 C10 1_555 1_555
F7 C26 1_555 1_555
F8 C26 1_555 1_555
F9 C26 1_555 1_555
F10 C27 1_555 1_555
F11 C27 1_555 1_555
F12 C27 1_555 1_555
O1 C1 1_555 1_555
O2 C1 1_555 1_555
O3 C15 1_555 1_555
O4 C15 1_555 1_555
O5 Ag1 1_555 1_555
O6 H1 1_555 1_555
O7 C34 1_555 1_555
O8 H2 1_555 1_555
C1 C2 1_555 1_555
C2 C3 1_555 1_555
C3 H3 1_555 1_555
C4 C3 1_555 1_555
H4 C4 1_555 1_555
C5 C4 1_555 1_555
C6 C5 1_555 1_555
H5 C6 1_555 1_555
C7 C2 1_555 1_555
H6 C7 1_555 1_555
C8 C5 1_555 1_555
C9 C8 1_555 1_555
C10 C8 1_555 1_555
C11 C8 1_555 1_555
C12 C11 1_555 1_555
H7 C12 1_555 1_555
C13 C12 1_555 1_555
H8 C13 1_555 1_555
C14 C13 1_555 1_555
C15 C14 1_555 1_555
C16 C14 1_555 1_555
H9 C16 1_555 1_555
C17 C11 1_555 1_555
H10 C17 1_555 1_555
C18 O5 1_555 1_555
C19 C18 1_555 1_555
C20 C19 1_555 1_555
H11 C20 1_555 1_555
C21 C20 1_555 1_555
H12 C21 1_555 1_555
C22 C21 1_555 1_555
C23 C22 1_555 1_555
H13 C23 1_555 1_555
C24 C19 1_555 1_555
H14 C24 1_555 1_555
C25 C22 1_555 1_555
C26 C25 1_555 1_555
C27 C25 1_555 1_555
C28 C25 1_555 1_555
C29 C28 1_555 1_555
H15 C29 1_555 1_555
C30 C29 1_555 1_555
H16 C30 1_555 1_555
C31 C30 1_555 1_555
C32 C31 1_555 1_555
H17 C32 1_555 1_555
C33 C28 1_555 1_555
H18 C33 1_555 1_555
C34 O8 1_555 1_555
Ag1G O3 1_555 1_555
Ag1C O4 1_555 1_555
Ag1G_2 O7 1_555 1_555
Ag2C O4 1_555 1_555
Ag2G O4 1_555 1_555
Ag2_2 O5 1_555 1_555
Ag2C_2 O7 1_555 1_555
O3E Ag1 1_555 1_555
O4A Ag1 1_555 1_555
O4A_2 Ag2 1_555 1_555
O4E Ag2 1_555 1_555
O5_2 Ag2 1_555 1_555
O7E Ag1 1_555 1_555
O7A Ag2 1_555 1_555
O6 C18 1_555 1_555
C6 C7 1_555 1_555
C16 C17 1_555 1_555
C23 C24 1_555 1_555
C31 C34 1_555 1_555
C32 C33 1_555 1_555
Ag2_2 O4A 1_555 1_555

#END
