
#######################################################################
#
#                 Cambridge Crystallographic Data Centre
#                                CCDC 
#
#######################################################################
#
# If this CIF has been generated from an entry in the Cambridge 
# Structural Database, then it will include bibliographic, chemical, 
# crystal, experimental, refinement or atomic coordinate data resulting 
# from the CCDC's data processing and validation procedures.
#
#######################################################################

data_VUKSEB
_symmetry_cell_setting           monoclinic
_symmetry_space_group_name_H-M   'C 2/c'
_symmetry_Int_Tables_number      15
_space_group_name_Hall           '-C 2yn'
loop_
_symmetry_equiv_pos_site_id
_symmetry_equiv_pos_as_xyz
1 x,y,z
2 -x,y,1/2-z
3 1/2+x,1/2+y,z
4 1/2-x,1/2+y,1/2-z
5 -x,-y,-z
6 x,-y,1/2+z
7 1/2-x,1/2-y,-z
8 1/2+x,1/2-y,1/2+z
_cell_length_a                   17.0962(9)
_cell_length_b                   13.7039(7)
_cell_length_c                   10.0192(5)
_cell_angle_alpha                90
_cell_angle_beta                 105.432(6)
_cell_angle_gamma                90
_cell_volume                     2262.72
loop_
_atom_site_label
_atom_site_type_symbol
_atom_site_fract_x
_atom_site_fract_y
_atom_site_fract_z
C7 C 0.2846(10) 0.1837(11) 0.5752(18)
N1 N 0.2028(15) 0.2158(16) 0.482(3)
H4 H 0.1709 0.2256 0.5344
H5 H 0.1893 0.1752 0.4146
H6 H 0.2883 0.1887 0.6748
H7 H 0.3307 0.2208 0.5612
H8 H 0.2973 0.1142 0.5612
C7F C 0.2154(10) 0.3163(11) 0.4248(18)
N1F N 0.2972(15) 0.2842(16) 0.518(3)
H4F H 0.3291 0.2744 0.4656
H5F H 0.3107 0.3248 0.5854
H6F H 0.2117 0.3113 0.3252
H7F H 0.1693 0.2792 0.4388
H8F H 0.2027 0.3858 0.4388
O8 O 0.0000 0.5000 0.5000
Zn1 Zn 0.47131(5) 0.38459(6) 0.39708(8)
O1 O 0.3799(3) 0.3008(4) 0.2824(5)
O2 O 0.3994(4) 0.5024(5) 0.4474(6)
O3 O 0.5643(3) 0.2813(5) 0.3967(6)
O4 O 0.4720(3) 0.3321(3) 0.5794(5)
O5 O 0.5144(6) 0.4647(5) 0.2728(12)
C1 C 0.3858(5) 0.2618(6) 0.1709(8)
C2 C 0.3257(5) 0.1855(6) 0.1088(8)
O6 O 0.2672(3) 0.1612(4) 0.1744(5)
C3 C 0.3163(5) 0.1331(7) -0.0074(9)
C4 C 0.2195(5) 0.0924(5) 0.0925(8)
C5 C 0.2465(5) 0.0738(7) -0.0203(9)
H1 H 0.3491 0.1351 -0.0679
C6 C 0.1487(5) 0.0583(6) 0.1351(8)
H2 H 0.2239 0.0308 -0.0919
O7 O 0.1397(4) 0.0878(4) 0.2496(6)
Zn2 Zn 0.02260(10) 0.10082(11) 0.2565(3)
H3 H 0.0176 0.2287 0.4177
O5A O 0.4856(6) 0.4647(5) 0.2272(12)
Zn1A Zn 0.52869(5) 0.38459(6) 0.10292(8)
O3A O 0.4357(3) 0.2813(5) 0.1033(6)
O2C O 0.1006(4) 0.0024(5) 0.0526(6)
Zn1C Zn 0.02869(5) -0.11541(6) 0.10292(8)
O5B O 0.0144(6) -0.0353(5) 0.2728(12)
O5C O -0.0144(6) -0.0353(5) 0.2272(12)
O4F O 0.0280(3) 0.1679(3) 0.4206(5)
O4G O -0.0280(3) 0.1679(3) 0.0794(5)
Zn1B Zn -0.02869(5) -0.11541(6) 0.39708(8)
Zn2A Zn -0.02260(10) 0.10082(11) 0.2435(3)
Zn1F Zn 0.02869(5) 0.11541(6) 0.60292(8)
H3A H -0.0176 0.2287 0.0823
Zn1G Zn -0.02869(5) 0.11541(6) -0.10292(8)
O2B O -0.1006(4) 0.0024(5) 0.4474(6)
O7A O -0.1397(4) 0.0878(4) 0.2504(6)
C6A C -0.1487(5) 0.0583(6) 0.3649(8)
C4A C -0.2195(5) 0.0924(5) 0.4075(8)
O6A O -0.2672(3) 0.1612(4) 0.3256(5)
C5A C -0.2465(5) 0.0738(7) 0.5203(9)
C2A C -0.3257(5) 0.1855(6) 0.3912(8)
H2A H -0.2239 0.0308 0.5919
C3A C -0.3163(5) 0.1331(7) 0.5074(9)
O2A O -0.3994(4) 0.5024(5) 0.0526(6)
C1A C -0.3858(5) 0.2618(6) 0.3291(8)
H1A H -0.3491 0.1351 0.5679
Zn1A_2 Zn -0.47131(5) 0.38459(6) 0.10292(8)
O1A O -0.3799(3) 0.3008(4) 0.2176(5)
O3_2 O -0.4357(3) 0.2813(5) 0.3967(6)
O3A_2 O -0.5643(3) 0.2813(5) 0.1033(6)
O4A O -0.4720(3) 0.3321(3) -0.0794(5)
O5_2 O -0.4856(6) 0.4647(5) 0.2728(12)
O5A_2 O -0.5144(6) 0.4647(5) 0.2272(12)
Zn1_2 Zn -0.52869(5) 0.38459(6) 0.39708(8)
H9? H 0.0608 -0.0298 0.3392
O9? O -0.007(4) 0.342(4) 0.313(6)
O10? O 0.042(3) 0.435(4) 0.558(5)
H10? H 0.3046 0.1846 0.6788
H11? H 0.3192 0.1320 0.5487
H12? H 0.2316 0.1658 0.5487
loop_
_geom_bond_atom_site_label_1
_geom_bond_atom_site_label_2
_geom_bond_site_symmetry_1
_geom_bond_site_symmetry_2
Zn1 O1 1_555 1_555
O1 C1 1_555 1_555
O2 Zn1 1_555 1_555
O3 Zn1 1_555 1_555
O4 Zn1 1_555 1_555
O5 Zn1 1_555 1_555
C1 C2 1_555 1_555
C2 O6 1_555 1_555
O6 C4 1_555 1_555
C3 C2 1_555 1_555
C4 C5 1_555 1_555
C5 C3 1_555 1_555
H1 C3 1_555 1_555
C6 C4 1_555 1_555
H2 C5 1_555 1_555
O7 C6 1_555 1_555
Zn2 O7 1_555 1_555
H3 O4F 1_555 1_555
C7 N1 1_555 1_555
N1 H4 1_555 1_555
H5 N1 1_555 1_555
H6 C7 1_555 1_555
H7 C7 1_555 1_555
H8 C7 1_555 1_555
O5A Zn1 1_555 1_555
Zn1A O5 1_555 1_555
O3A C1 1_555 1_555
O2C C6 1_555 1_555
Zn1C O2C 1_555 1_555
O5B Zn2 1_555 1_555
O5C Zn1C 1_555 1_555
O4F Zn2 1_555 1_555
O4G Zn2 1_555 1_555
Zn1B O5B 1_555 1_555
Zn2A O5C 1_555 1_555
Zn1F O4F 1_555 1_555
H3A O4G 1_555 1_555
Zn1G O4G 1_555 1_555
O2B Zn1B 1_555 1_555
O7A Zn2A 1_555 1_555
C6A O2B 1_555 1_555
C4A C6A 1_555 1_555
O6A C4A 1_555 1_555
C5A C4A 1_555 1_555
C2A O6A 1_555 1_555
H2A C5A 1_555 1_555
C3A C5A 1_555 1_555
O2A Zn1A_2 1_555 1_555
C1A C2A 1_555 1_555
H1A C3A 1_555 1_555
Zn1A_2 O1A 1_555 1_555
O1A C1A 1_555 1_555
O3_2 C1A 1_555 1_555
O3A_2 Zn1A_2 1_555 1_555
O4A Zn1A_2 1_555 1_555
O5_2 Zn1A_2 1_555 1_555
O5A_2 Zn1A_2 1_555 1_555
Zn1_2 O3_2 1_555 1_555
C7F N1 1_555 1_555
N1F C7 1_555 1_555
H4F N1F 1_555 1_555
H5F N1F 1_555 1_555
H6F C7F 1_555 1_555
H7F C7F 1_555 1_555
H8F C7F 1_555 1_555
O5A Zn1A 1_555 1_555
Zn1A O3A 1_555 1_555
Zn1C O5B 1_555 1_555
O5C Zn1B 1_555 1_555
O4F Zn2A 1_555 1_555
O4G Zn2A 1_555 1_555
O7A C6A 1_555 1_555
C2A C3A 1_555 1_555
O5_2 Zn1_2 1_555 1_555
O5A_2 Zn1_2 1_555 1_555
C7F N1F 1_555 1_555

#END
