
#######################################################################
#
#                 Cambridge Crystallographic Data Centre
#                                CCDC 
#
#######################################################################
#
# If this CIF has been generated from an entry in the Cambridge 
# Structural Database, then it will include bibliographic, chemical, 
# crystal, experimental, refinement or atomic coordinate data resulting 
# from the CCDC's data processing and validation procedures.
#
#######################################################################

data_VULWEF
_symmetry_cell_setting           monoclinic
_symmetry_space_group_name_H-M   'C 2/c'
_symmetry_Int_Tables_number      15
_space_group_name_Hall           '-C 2yn'
loop_
_symmetry_equiv_pos_site_id
_symmetry_equiv_pos_as_xyz
1 x,y,z
2 -x,y,1/2-z
3 1/2+x,1/2+y,z
4 1/2-x,1/2+y,1/2-z
5 -x,-y,-z
6 x,-y,1/2+z
7 1/2-x,1/2-y,-z
8 1/2+x,1/2-y,1/2+z
_cell_length_a                   21.889(5)
_cell_length_b                   10.156(5)
_cell_length_c                   34.909(5)
_cell_angle_alpha                90
_cell_angle_beta                 90.715(5)
_cell_angle_gamma                90
_cell_volume                     7759.83
loop_
_atom_site_label
_atom_site_type_symbol
_atom_site_fract_x
_atom_site_fract_y
_atom_site_fract_z
Zn1 Zn 0.04434(3) 0.72590(5) 0.064899(16)
Zn2 Zn 0.10921(3) 0.72094(5) 0.153329(17)
O1 O 0.01730(17) 0.5605(3) 0.08938(10)
O2 O 0.04982(18) 0.5742(3) 0.14987(10)
C1 C 0.0425(3) 0.3007(5) 0.15805(15)
H1 H 0.0566 0.3493 0.1793
C2 C -0.0067(2) 0.2918(5) 0.09687(14)
H2 H -0.0261 0.3338 0.0760
C3 C 0.0237(2) 0.0914(5) 0.12786(13)
C4 C 0.0185(2) 0.3663(5) 0.12588(13)
C5 C 0.0292(2) 0.5116(5) 0.12163(14)
C6 C -0.0039(2) 0.1554(5) 0.09798(14)
H3 H -0.0214 0.1063 0.0778
O3 O 0.08432(19) 0.6452(4) 0.00647(13)
O4 O 0.11023(19) 0.8309(4) 0.03541(11)
C7 C 0.1632(3) 0.7717(5) -0.02178(18)
C8 C 0.0455(3) 0.1650(5) 0.15859(15)
H4 H 0.0625 0.1219 0.1800
C9 C 0.1156(3) 0.7462(5) 0.00778(19)
C10 C -0.3057(3) 0.7515(5) -0.22432(16)
H5 H -0.3373 0.6933 -0.2315
C11 C -0.2767(3) 0.7354(5) -0.18949(16)
H6 H -0.2876 0.6663 -0.1730
O5 O 0.3096(3) 0.7145(5) -0.12768(17)
O6 O 0.3568(2) 0.8626(5) -0.09278(17)
C12 C -0.2892(3) 0.8526(5) -0.24923(16)
C13 C 0.2584(3) 0.7902(6) -0.07298(18)
C14 C 0.2516(3) 0.8808(6) -0.04440(18)
H7 H 0.2795 0.9510 -0.0424
C15 C 0.1679(3) 0.6829(7) -0.05142(19)
H8 H 0.1387 0.6155 -0.0542
C16 C 0.3120(4) 0.7902(7) -0.0990(3)
C17 C 0.2150(3) 0.6925(7) -0.0769(2)
H9 H 0.2177 0.6320 -0.0972
C18 C 0.2060(3) 0.8716(6) -0.01907(19)
H10 H 0.2031 0.9339 0.0007
C19 C -0.2417(3) 0.9364(6) -0.23817(19)
H11 H -0.2286 1.0023 -0.2551
O7 O -0.3612(2) 0.7821(4) -0.29437(11)
O8 O 0.02191(18) -0.1134(3) 0.09536(10)
O9 O 0.06846(18) -0.1038(3) 0.15213(10)
O10 O -0.3042(2) 0.9560(5) -0.30895(12)
C20 C 0.0387(2) -0.0535(5) 0.12532(14)
C21 C -0.3203(3) 0.8670(6) -0.28718(15)
N1 N -0.2020(2) 0.8072(4) -0.14163(12)
C22 C -0.2312(3) 0.8227(6) -0.17932(14)
C23 C -0.1860(2) 0.6861(5) -0.12854(16)
H12 H -0.1944 0.6112 -0.1435
C24 C -0.1920(2) 0.9141(5) -0.11960(15)
H13 H -0.2049 0.9973 -0.1283
C25 C -0.2132(3) 0.9237(6) -0.20227(17)
H14 H -0.1827 0.9829 -0.1942
C26 C -0.1451(2) 0.7814(5) -0.07118(15)
C27 C -0.1578(2) 0.6726(5) -0.09368(14)
H15 H -0.1468 0.5883 -0.0849
C28 C -0.1635(2) 0.9026(5) -0.08496(15)
H16 H -0.1562 0.9784 -0.0701
C29 C -0.1094(3) 0.7678(5) -0.03448(16)
C30 C -0.0860(3) 0.8782(5) -0.01575(15)
H17 H -0.0963 0.9631 -0.0244
C31 C -0.0963(2) 0.6464(5) -0.01827(15)
H18 H -0.1138 0.5697 -0.0287
C32 C -0.0579(3) 0.6377(5) 0.01292(15)
H19 H -0.0487 0.5542 0.0231
C33 C -0.0481(3) 0.8629(5) 0.01495(15)
H20 H -0.0315 0.9383 0.0267
N2 N -0.0334(2) 0.7439(4) 0.02921(12)
Zn1F Zn 0.45566(3) 0.77410(5) -0.064899(16)
Zn1_2 Zn 0.04434(3) -0.27410(5) 0.064899(16)
Zn2F Zn 0.39079(3) 0.77906(5) -0.153329(17)
Zn2G Zn -0.39079(3) 0.77906(5) -0.346671(17)
Zn2_2 Zn 0.10921(3) -0.27906(5) 0.153329(17)
O5F O 0.1904(3) 0.7855(5) 0.12768(17)
O6F O 0.1432(2) 0.6374(5) 0.09278(17)
O7G O 0.1388(2) 0.7179(4) 0.20563(11)
O8_2 O 0.02191(18) 0.8866(3) 0.09536(10)
O9_2 O 0.06846(18) 0.8962(3) 0.15213(10)
loop_
_geom_bond_atom_site_label_1
_geom_bond_atom_site_label_2
_geom_bond_site_symmetry_1
_geom_bond_site_symmetry_2
Zn1 O1 1_555 1_555
Zn2 O2 1_555 1_555
O1 C5 1_555 1_555
O2 C5 1_555 1_555
C1 H1 1_555 1_555
C2 H2 1_555 1_555
C3 C6 1_555 1_555
C4 C1 1_555 1_555
C5 C4 1_555 1_555
C6 C2 1_555 1_555
H3 C6 1_555 1_555
O3 Zn1 1_555 1_555
O4 Zn1 1_555 1_555
C7 C9 1_555 1_555
C8 C1 1_555 1_555
H4 C8 1_555 1_555
C9 O3 1_555 1_555
C10 H5 1_555 1_555
C11 C10 1_555 1_555
H6 C11 1_555 1_555
O5 C16 1_555 1_555
O6 C16 1_555 1_555
C12 C10 1_555 1_555
C13 C14 1_555 1_555
C14 H7 1_555 1_555
C15 C7 1_555 1_555
H8 C15 1_555 1_555
C16 C13 1_555 1_555
C17 C13 1_555 1_555
H9 C17 1_555 1_555
C18 C7 1_555 1_555
H10 C18 1_555 1_555
C19 C12 1_555 1_555
H11 C19 1_555 1_555
O7 C21 1_555 1_555
O8 C20 1_555 1_555
O9 C20 1_555 1_555
O10 C21 1_555 1_555
C20 C3 1_555 1_555
C21 C12 1_555 1_555
N1 C22 1_555 1_555
C22 C11 1_555 1_555
C23 N1 1_555 1_555
H12 C23 1_555 1_555
C24 N1 1_555 1_555
H13 C24 1_555 1_555
C25 C19 1_555 1_555
H14 C25 1_555 1_555
C26 C27 1_555 1_555
C27 C23 1_555 1_555
H15 C27 1_555 1_555
C28 C24 1_555 1_555
H16 C28 1_555 1_555
C29 C26 1_555 1_555
C30 C29 1_555 1_555
H17 C30 1_555 1_555
C31 C29 1_555 1_555
H18 C31 1_555 1_555
C32 C31 1_555 1_555
H19 C32 1_555 1_555
C33 C30 1_555 1_555
H20 C33 1_555 1_555
N2 Zn1 1_555 1_555
Zn1F O6 1_555 1_555
Zn1_2 O8 1_555 1_555
Zn2F O5 1_555 1_555
Zn2G O7 1_555 1_555
Zn2_2 O9 1_555 1_555
O5F Zn2 1_555 1_555
O6F Zn1 1_555 1_555
O7G Zn2 1_555 1_555
O8_2 Zn1 1_555 1_555
O9_2 Zn2 1_555 1_555
Zn2 O6F 1_555 1_555
C2 C4 1_555 1_555
C3 C8 1_555 1_555
O4 C9 1_555 1_555
O6 Zn2F 1_555 1_555
C14 C18 1_555 1_555
C15 C17 1_555 1_555
C22 C25 1_555 1_555
C26 C28 1_555 1_555
C32 N2 1_555 1_555
C33 N2 1_555 1_555

#END
