
#######################################################################
#
#                 Cambridge Crystallographic Data Centre
#                                CCDC 
#
#######################################################################
#
# If this CIF has been generated from an entry in the Cambridge 
# Structural Database, then it will include bibliographic, chemical, 
# crystal, experimental, refinement or atomic coordinate data resulting 
# from the CCDC's data processing and validation procedures.
#
#######################################################################

data_VUQKUO
_symmetry_cell_setting           monoclinic
_symmetry_space_group_name_H-M   'P 21/c'
_symmetry_Int_Tables_number      14
_space_group_name_Hall           '-P 2ybc'
loop_
_symmetry_equiv_pos_site_id
_symmetry_equiv_pos_as_xyz
1 x,y,z
2 -x,1/2+y,1/2-z
3 -x,-y,-z
4 x,1/2-y,1/2+z
_cell_length_a                   13.957
_cell_length_b                   25.704
_cell_length_c                   15.827
_cell_angle_alpha                90
_cell_angle_beta                 93.362
_cell_angle_gamma                90
_cell_volume                     5668.18
loop_
_atom_site_label
_atom_site_type_symbol
_atom_site_fract_x
_atom_site_fract_y
_atom_site_fract_z
Cd1 Cd 0.12721(4) 0.96540(2) 1.00422(4)
Cd2 Cd 0.37534(4) 1.03140(2) 1.00595(4)
Cl4 Cl 0.28340(16) 0.95974(8) 0.92106(16)
Cl5 Cl 0.23173(16) 1.03077(7) 1.10567(14)
Cl6 Cl 0.03503(16) 1.03488(7) 0.91294(15)
Cl7 Cl 0.48842(15) 0.97232(8) 1.10633(14)
P1 P -0.09078(17) 0.75931(9) 0.69644(17)
P2 P 0.33487(19) 0.73568(10) 1.2454(2)
O5 O -0.0357(4) 0.7643(2) 0.7878(4)
O6 O -0.1189(4) 0.7002(2) 0.7161(4)
O7 O 0.3540(5) 0.7180(2) 1.3414(5)
O8 O 0.2761(5) 0.7842(2) 1.2705(5)
N1 N 0.0645(5) 0.8969(3) 0.9124(5)
N2 N 0.1811(5) 0.8982(2) 1.0989(5)
N3 N 0.5355(5) 0.6023(3) 1.4351(5)
N4 N -0.2847(5) 0.5962(2) 0.5734(5)
N5 N -0.2563(8) 0.8626(4) 0.6128(8)
N6 N 0.0110(8) 0.7997(4) 0.4972(6)
N7 N 0.2530(13) 0.6354(6) 1.0826(8)
N8 N 0.5228(11) 0.7377(6) 1.0912(10)
N9 N -0.0218(5) 0.7630(3) 0.6212(5)
N10 N -0.1803(5) 0.7958(3) 0.6880(5)
N11 N -0.1263(8) 0.8285(3) 0.5565(6)
N12 N 0.2729(5) 0.6949(3) 1.1925(6)
N13 N 0.4327(6) 0.7511(3) 1.2016(8)
N14 N 0.3935(9) 0.6897(4) 1.0863(7)
C1 C 0.5827(13) 0.7737(7) 1.1320(12)
H1 H 0.6353 0.7813 1.0976
H2 H 0.6070 0.7598 1.1853
H3 H 0.5475 0.8050 1.1415
C2 C 0.5379(14) 0.7151(8) 1.0139(11)
H4 H 0.5920 0.7313 0.9899
H5 H 0.4819 0.7197 0.9765
H6 H 0.5503 0.6786 1.0216
C3 C 0.2690(7) 0.8962(4) 1.1258(8)
H7 H 0.3121 0.9199 1.1049
C4 C -0.1738(6) 0.6670(3) 0.6641(6)
C5 C 0.4283(7) 0.6709(3) 1.4551(6)
H8 H 0.3966 0.6922 1.4919
C6 C -0.0038(6) 0.8122(3) 0.8221(5)
C7 C -0.2480(6) 0.6360(3) 0.5373(6)
H9 H -0.2606 0.6400 0.4793
C8 C -0.2632(7) 0.5906(4) 0.6549(6)
H10 H -0.2866 0.5616 0.6821
C9 C 0.0887(7) 0.8255(3) 0.8203(7)
H11 H 0.1302 0.8062 0.7887
C10 C 0.2445(7) 0.8225(3) 1.2109(7)
C11 C 0.4609(9) 0.6448(4) 1.3149(7)
H12 H 0.4532 0.6474 1.2563
C12 C -0.2092(7) 0.6248(4) 0.7007(7)
H13 H -0.1963 0.6191 0.7582
C13 C 0.1511(7) 0.8221(4) 1.1799(8)
H14 H 0.1081 0.7967 1.1956
C14 C 0.4877(7) 0.6335(3) 1.4849(7)
H15 H 0.4960 0.6291 1.5432
C15 C -0.0666(7) 0.8412(4) 0.8656(7)
H16 H -0.1314 0.8328 0.8654
C16 C -0.0285(6) 0.8841(4) 0.9104(7)
H17 H -0.0698 0.9046 0.9401
C17 C -0.1851(8) 0.8280(4) 0.6204(9)
C18 C -0.0482(8) 0.7980(4) 0.5596(6)
C19 C 0.4144(7) 0.6776(3) 1.3661(7)
C20 C 0.1213(7) 0.8677(4) 0.8654(7)
H18 H 0.1856 0.8768 0.8636
C21 C -0.1911(6) 0.6733(3) 0.5792(6)
H19 H -0.1659 0.7013 0.5507
C22 C 0.3034(7) 0.8588(4) 1.1873(8)
H20 H 0.3663 0.8602 1.2101
C23 C 0.1238(7) 0.8617(4) 1.1239(7)
H21 H 0.0603 0.8623 1.1026
C24 C 0.5196(7) 0.6080(4) 1.3530(7)
H22 H 0.5506 0.5852 1.3181
C25 C -0.3191(11) 0.8683(5) 0.6824(10)
H23 H -0.3659 0.8949 0.6688
H24 H -0.2817 0.8780 0.7329
H25 H -0.3512 0.8360 0.6916
C26 C -0.2667(11) 0.8996(5) 0.5447(10)
H26 H -0.3215 0.9213 0.5525
H27 H -0.2753 0.8815 0.4918
H28 H -0.2101 0.9209 0.5444
C27 C 0.0962(10) 0.7691(5) 0.4938(8)
H29 H 0.1278 0.7774 0.4433
H30 H 0.0795 0.7329 0.4934
H31 H 0.1383 0.7765 0.5425
C28 C -0.0011(13) 0.8384(5) 0.4296(8)
H32 H 0.0486 0.8341 0.3908
H33 H 0.0026 0.8727 0.4536
H34 H -0.0626 0.8337 0.4001
C30 C 0.3096(10) 0.6749(6) 1.1189(9)
C31 C 0.4388(10) 0.7243(6) 1.1300(8)
C32 C 0.2860(16) 0.6138(9) 1.0035(11)
H36 H 0.2415 0.5878 0.9822
H37 H 0.3482 0.5984 1.0140
H38 H 0.2899 0.6412 0.9625
C33 C 0.1666(15) 0.6160(8) 1.1162(14)
H39 H 0.1383 0.5902 1.0786
H40 H 0.1222 0.6442 1.1217
H41 H 0.1814 0.6007 1.1707
Cd1B Cd -0.12721(4) 1.03460(2) 0.99578(4)
Cd2B Cd 0.62466(4) 0.96860(2) 0.99405(4)
Cd2A Cd 0.62466(4) 0.53140(2) 1.49405(4)
Cd2A_2 Cd -0.37534(4) 0.53140(2) 0.49405(4)
Cl6B Cl -0.03503(16) 0.96512(7) 1.08706(15)
Cl7B Cl 0.51158(15) 1.02768(8) 0.89367(14)
N3A N 0.4645(5) 1.1023(3) 1.0649(5)
N4A N 0.2847(5) 1.0962(2) 0.9266(5)
Cl1 Cl 0.9398(5) -0.06233(18) 0.6865(4)
Cl2 Cl 0.8575(7) 0.0400(3) 0.6774(5)
Cl3 Cl 1.0684(8) 0.0206(3) 0.6615(8)
C29 C 0.9454(16) 0.0015(7) 0.7127(12)
H35 H 0.9536 0.0048 0.7744
O1 O 0.5459(8) 0.9091(4) 0.3406(6)
O2 O 0.7167(15) 0.7549(10) 0.8680(13)
O3 O 0.3445(15) 0.0122(7) 0.6545(8)
O4 O 0.5802(15) 0.0176(6) 0.6448(13)
loop_
_geom_bond_atom_site_label_1
_geom_bond_atom_site_label_2
_geom_bond_site_symmetry_1
_geom_bond_site_symmetry_2
Cd1 Cl4 1_555 1_555
Cd2 Cl4 1_555 1_555
Cl1 C29 1_555 1_555
Cl2 C29 1_555 1_555
Cl3 C29 1_555 1_555
Cl5 Cd1 1_555 1_555
Cl6 Cd1 1_555 1_555
Cl7 Cd2 1_555 1_555
P1 O5 1_555 1_555
P2 O7 1_555 1_555
O5 C6 1_555 1_555
O6 P1 1_555 1_555
O7 C19 1_555 1_555
O8 P2 1_555 1_555
N1 Cd1 1_555 1_555
N2 Cd1 1_555 1_555
N3 C14 1_555 1_555
N4 C7 1_555 1_555
N5 C17 1_555 1_555
N6 C18 1_555 1_555
N7 C30 1_555 1_555
N8 C1 1_555 1_555
N9 P1 1_555 1_555
N10 P1 1_555 1_555
N11 C17 1_555 1_555
N12 P2 1_555 1_555
N13 P2 1_555 1_555
N14 C30 1_555 1_555
C1 H1 1_555 1_555
H2 C1 1_555 1_555
H3 C1 1_555 1_555
C2 N8 1_555 1_555
H4 C2 1_555 1_555
H5 C2 1_555 1_555
H6 C2 1_555 1_555
C3 N2 1_555 1_555
H7 C3 1_555 1_555
C4 O6 1_555 1_555
C5 H8 1_555 1_555
C6 C9 1_555 1_555
C7 H9 1_555 1_555
C8 N4 1_555 1_555
H10 C8 1_555 1_555
C9 H11 1_555 1_555
C10 O8 1_555 1_555
C11 H12 1_555 1_555
C12 C4 1_555 1_555
H13 C12 1_555 1_555
C13 C10 1_555 1_555
H14 C13 1_555 1_555
C14 C5 1_555 1_555
H15 C14 1_555 1_555
C15 C6 1_555 1_555
H16 C15 1_555 1_555
C16 N1 1_555 1_555
H17 C16 1_555 1_555
C17 N10 1_555 1_555
C18 N9 1_555 1_555
C19 C5 1_555 1_555
C20 N1 1_555 1_555
H18 C20 1_555 1_555
C21 C4 1_555 1_555
H19 C21 1_555 1_555
C22 C3 1_555 1_555
H20 C22 1_555 1_555
C23 N2 1_555 1_555
H21 C23 1_555 1_555
C24 N3 1_555 1_555
H22 C24 1_555 1_555
C25 N5 1_555 1_555
H23 C25 1_555 1_555
H24 C25 1_555 1_555
H25 C25 1_555 1_555
C26 N5 1_555 1_555
H26 C26 1_555 1_555
H27 C26 1_555 1_555
H28 C26 1_555 1_555
C27 N6 1_555 1_555
H29 C27 1_555 1_555
H30 C27 1_555 1_555
H31 C27 1_555 1_555
C28 N6 1_555 1_555
H32 C28 1_555 1_555
H33 C28 1_555 1_555
H34 C28 1_555 1_555
C29 H35 1_555 1_555
C30 N12 1_555 1_555
C31 N8 1_555 1_555
C32 N7 1_555 1_555
H36 C32 1_555 1_555
H37 C32 1_555 1_555
H38 C32 1_555 1_555
C33 N7 1_555 1_555
H39 C33 1_555 1_555
H40 C33 1_555 1_555
H41 C33 1_555 1_555
Cd1B Cl6 1_555 1_555
Cd2B Cl7 1_555 1_555
Cd2A N3 1_555 1_555
Cd2A_2 N4 1_555 1_555
Cl6B Cd1 1_555 1_555
Cl7B Cd2 1_555 1_555
N3A Cd2 1_555 1_555
N4A Cd2 1_555 1_555
Cd2 Cl5 1_555 1_555
N11 C18 1_555 1_555
N13 C31 1_555 1_555
N14 C31 1_555 1_555
C7 C21 1_555 1_555
C8 C12 1_555 1_555
C9 C20 1_555 1_555
C10 C22 1_555 1_555
C11 C19 1_555 1_555
C11 C24 1_555 1_555
C13 C23 1_555 1_555
C15 C16 1_555 1_555
Cd1B Cl6B 1_555 1_555
Cd2B Cl7B 1_555 1_555

#END
