
#######################################################################
#
#                 Cambridge Crystallographic Data Centre
#                                CCDC 
#
#######################################################################
#
# If this CIF has been generated from an entry in the Cambridge 
# Structural Database, then it will include bibliographic, chemical, 
# crystal, experimental, refinement or atomic coordinate data resulting 
# from the CCDC's data processing and validation procedures.
#
#######################################################################

data_WAGYUA
_symmetry_cell_setting           rhombohedral
_symmetry_space_group_name_H-M   'R -3 c'
_symmetry_Int_Tables_number      167
_space_group_name_Hall           '-R 3 2"c'
loop_
_symmetry_equiv_pos_site_id
_symmetry_equiv_pos_as_xyz
1 x,y,z
2 -y,x-y,z
3 -x+y,-x,z
4 x-y,-y,1/2-z
5 -x,-x+y,1/2-z
6 y,x,1/2-z
7 2/3+x,1/3+y,1/3+z
8 2/3-y,1/3+x-y,1/3+z
9 2/3-x+y,1/3-x,1/3+z
10 2/3+x-y,1/3-y,5/6-z
11 2/3-x,1/3-x+y,5/6-z
12 2/3+y,1/3+x,5/6-z
13 1/3+x,2/3+y,2/3+z
14 1/3-y,2/3+x-y,2/3+z
15 1/3-x+y,2/3-x,2/3+z
16 1/3+x-y,2/3-y,1/6-z
17 1/3-x,2/3-x+y,1/6-z
18 1/3+y,2/3+x,1/6-z
19 -x,-y,-z
20 y,-x+y,-z
21 x-y,x,-z
22 -x+y,y,1/2+z
23 x,x-y,1/2+z
24 -y,-x,1/2+z
25 1/3-x,2/3-y,2/3-z
26 1/3+y,2/3-x+y,2/3-z
27 1/3+x-y,2/3+x,2/3-z
28 1/3-x+y,2/3+y,1/6+z
29 1/3+x,2/3+x-y,1/6+z
30 1/3-y,2/3-x,1/6+z
31 2/3-x,1/3-y,1/3-z
32 2/3+y,1/3-x+y,1/3-z
33 2/3+x-y,1/3+x,1/3-z
34 2/3-x+y,1/3+y,5/6+z
35 2/3+x,1/3+x-y,5/6+z
36 2/3-y,1/3-x,5/6+z
_cell_length_a                   26.918(4)
_cell_length_b                   26.918(4)
_cell_length_c                   86.67(2)
_cell_angle_alpha                90
_cell_angle_beta                 90
_cell_angle_gamma                120
_cell_volume                     54385.7
loop_
_atom_site_label
_atom_site_type_symbol
_atom_site_fract_x
_atom_site_fract_y
_atom_site_fract_z
Zn1 Zn 0.0000 0.0000 0.137282(7)
O1 O 0.06615(13) -0.00152(14) 0.12870(4)
C1 C 0.1005(2) -0.0134(2) 0.13553(6)
Zn2 Zn 0.064250(16) -0.007970(17) 0.167140(4)
O2 O 0.10458(17) -0.01898(17) 0.15042(4)
C2 C 0.14603(18) -0.01526(19) 0.12605(5)
O3 O 0.27711(11) -0.01606(11) 0.10124(3)
C3 C 0.15397(19) 0.0019(2) 0.11083(5)
H1 H 0.1300 0.0144 0.1063
O4 O 0.43068(11) 0.06626(12) 0.06470(3)
C4 C 0.19702(18) 0.0011(2) 0.10206(5)
H2 H 0.2020 0.0125 0.0915
O5 O 0.55197(12) 0.25585(13) 0.01310(3)
C5 C 0.23184(17) -0.01598(17) 0.10862(4)
O6 O 0.61331(14) 0.22186(17) 0.01439(5)
C6 C 0.2235(2) -0.0345(2) 0.12345(6)
H3 H 0.2469 -0.0481 0.1277
O7 O 0.0000 0.0000 0.15975(4)
C7 C 0.1809(2) -0.0339(2) 0.13249(5)
H4 H 0.1759 -0.0460 0.1429
C8 C 0.29692(14) 0.01583(14) 0.08739(4)
H5 H 0.3009 0.0542 0.0887
H6 H 0.2692 -0.0042 0.0790
C9 C 0.35540(15) 0.02206(15) 0.0833
C10 C 0.37884(15) 0.06352(15) 0.06961(4)
H7 H 0.3506 0.0496 0.0611
H8 H 0.3864 0.1021 0.0727
C11 C 0.46036(17) 0.10422(19) 0.05313(5)
C12 C 0.44540(19) 0.1399(2) 0.04620(6)
H9 H 0.4112 0.1394 0.0492
C13 C 0.47982(19) 0.1775(2) 0.03461(6)
H10 H 0.4679 0.2013 0.0296
C14 C 0.53047(18) 0.1808(2) 0.03032(6)
C15 C 0.5467(2) 0.1443(2) 0.03754(6)
H11 H 0.5815 0.1458 0.0347
C16 C 0.5116(2) 0.1061(2) 0.04880(6)
H12 H 0.5223 0.0811 0.0536
C17 C 0.56761(19) 0.2223(2) 0.01848(5)
Zn1O Zn 0.3333 -0.3333 0.029385(7)
Zn1O_2 Zn 0.3333 0.6667 0.029385(7)
Zn1O_3 Zn -0.6667 -0.3333 0.029385(7)
O1Q O 0.33181(14) -0.26718(13) 0.03797(4)
O1A O 0.00152(14) 0.06767(19) 0.12870(4)
O1P O 0.26718(13) 0.59900(19) 0.03797(4)
O1B O -0.06767(19) -0.06615(13) 0.12870(4)
O1O O -0.59900(19) -0.33181(14) 0.03797(4)
O1O_2 O 0.40100(19) -0.33181(14) 0.03797(4)
O1P_2 O 0.26718(13) -0.40100(19) 0.03797(4)
C1Q C 0.3199(2) -0.2328(2) 0.03114(6)
C1A C 0.0134(2) 0.1139(3) 0.13553(6)
C1P C 0.2328(2) 0.5528(3) 0.03114(6)
C1B C -0.1139(3) -0.1005(2) 0.13553(6)
C1O C -0.5528(3) -0.3199(2) 0.03114(6)
Zn2Q Zn 0.325363(17) -0.269083(16) -0.000473(4)
Zn2A Zn 0.007970(17) 0.072220(23) 0.167140(4)
Zn2P Zn 0.269083(16) 0.594447(23) -0.000473(4)
Zn2B Zn -0.072220(23) -0.064250(16) 0.167140(4)
Zn2O Zn -0.594447(23) -0.325363(17) -0.000473(4)
Zn2GA Zn 0.594447(23) 0.325363(17) 0.000473(4)
Zn2IA Zn 0.674637(17) 0.269083(16) 0.000473(4)
Zn2EA Zn 0.658697(17) 0.261113(23) 0.166193(4)
Zn2DA Zn 0.602417(16) 0.341303(17) 0.166193(4)
Zn2IA_2 Zn -0.325363(17) 0.269083(16) 0.000473(4)
Zn2HA Zn -0.269083(16) 0.405553(23) 0.000473(4)
Zn2FA Zn -0.261113(23) 0.397583(16) 0.166193(4)
Zn2EA_2 Zn -0.341303(17) 0.261113(23) 0.166193(4)
Zn2HA_2 Zn -0.269083(16) -0.594447(23) 0.000473(4)
Zn2GA_2 Zn -0.405553(23) -0.674637(17) 0.000473(4)
Zn2DA_2 Zn -0.397583(16) -0.658697(17) 0.166193(4)
Zn2FA_2 Zn -0.261113(23) -0.602417(16) 0.166193(4)
Zn2P_2 Zn 0.269083(16) -0.405553(23) -0.000473(4)
Zn2O_2 Zn 0.405553(23) -0.325363(17) -0.000473(4)
O2Q O 0.31435(17) -0.22875(17) 0.01625(4)
O2A O 0.01898(17) 0.12356(24) 0.15042(4)
O2P O 0.22875(17) 0.54311(24) 0.01625(4)
O2B O -0.12356(24) -0.10458(17) 0.15042(4)
O2O O -0.54311(24) -0.31435(17) 0.01625(4)
C2Q C 0.31807(19) -0.18730(18) 0.04062(5)
C2A C 0.01526(19) 0.16129(26) 0.12605(5)
C2P C 0.18730(18) 0.50538(26) 0.04062(5)
C2B C -0.16129(26) -0.14603(18) 0.12605(5)
C2O C -0.50538(26) -0.31807(19) 0.04062(5)
O3Q O 0.31727(11) -0.05622(11) 0.06543(3)
O3A O 0.01606(11) 0.29317(16) 0.10124(3)
O3P O 0.05622(11) 0.37350(16) 0.06543(3)
O3B O -0.29317(16) -0.27711(11) 0.10124(3)
O3O O -0.37350(16) -0.31727(11) 0.06543(3)
C3Q C 0.3352(2) -0.17936(19) 0.05584(5)
C3A C -0.0019(2) 0.15207(28) 0.11083(5)
C3P C 0.17936(19) 0.51460(28) 0.05584(5)
C3B C -0.15207(28) -0.15397(19) 0.11083(5)
C3O C -0.51460(28) -0.3352(2) 0.05584(5)
H1Q H 0.3477 -0.2033 0.0604
H1A H -0.0144 0.1156 0.1063
H1P H 0.2033 0.5511 0.0604
H1B H -0.1156 -0.1300 0.1063
H1O H -0.5511 -0.3477 0.0604
O4Q O 0.39959(12) 0.09735(11) 0.10197(3)
O4A O -0.06626(12) 0.36442(16) 0.06470(3)
O4P O -0.09735(11) 0.30225(16) 0.10197(3)
O4B O -0.36442(16) -0.43068(11) 0.06470(3)
O4O O -0.30225(16) -0.39959(12) 0.10197(3)
C4Q C 0.3344(2) -0.13631(18) 0.06461(5)
C4A C -0.0011(2) 0.19592(27) 0.10206(5)
C4P C 0.13631(18) 0.47075(27) 0.06461(5)
C4B C -0.19592(27) -0.19702(18) 0.10206(5)
C4O C -0.47075(27) -0.3344(2) 0.06461(5)
H2Q H 0.3458 -0.1313 0.0752
H2A H -0.0125 0.1895 0.0915
H2P H 0.1313 0.4772 0.0752
H2B H -0.1895 -0.2020 0.0915
H2O H -0.4772 -0.3458 0.0752
O5Q O 0.58918(13) 0.21864(12) 0.15357(3)
O5A O -0.25585(13) 0.29612(18) 0.01310(3)
O5P O -0.21864(12) 0.37055(18) 0.15357(3)
O5B O -0.29612(18) -0.55197(12) 0.01310(3)
O5O O -0.37055(18) -0.58918(13) 0.15357(3)
O5AA O 0.03721(18) -0.07748(13) 0.17977(3)
O5S O 0.25585(13) -0.29612(18) -0.01310(3)
O5CA O 0.07748(13) 0.11470(12) 0.17977(3)
O5T O 0.29612(18) 0.55197(12) -0.01310(3)
O5BA O -0.11470(12) -0.03721(18) 0.17977(3)
O5R O -0.55197(12) -0.25585(13) -0.01310(3)
C5Q C 0.31735(17) -0.10149(17) 0.05805(4)
C5A C 0.01598(17) 0.24782(24) 0.10862(4)
C5P C 0.10149(17) 0.41885(24) 0.05805(4)
C5B C -0.24782(24) -0.23184(17) 0.10862(4)
C5O C -0.41885(24) -0.31735(17) 0.05805(4)
O6Q O 0.55519(17) 0.27998(14) 0.15228(5)
O6A O -0.22186(17) 0.39145(22) 0.01439(5)
O6P O -0.27998(14) 0.27522(22) 0.15228(5)
O6B O -0.39145(22) -0.61331(14) 0.01439(5)
O6O O -0.27522(22) -0.55519(17) 0.15228(5)
O6CA O 0.11147(17) 0.05336(14) 0.18106(5)
O6R O 0.38669(14) -0.22186(17) -0.01439(5)
O6BA O -0.05336(14) 0.05812(22) 0.18106(5)
O6S O 0.22186(17) 0.60855(22) -0.01439(5)
O6AA O -0.05812(22) -0.11147(17) 0.18106(5)
O6T O -0.60855(22) -0.38669(14) -0.01439(5)
C6Q C 0.2988(2) -0.1098(2) 0.04322(6)
C6A C 0.0345(2) 0.2580(3) 0.12345(6)
C6P C 0.1098(2) 0.4087(3) 0.04322(6)
C6B C -0.2580(3) -0.2235(2) 0.12345(6)
C6O C -0.4087(3) -0.2988(2) 0.04322(6)
H3Q H 0.2852 -0.0864 0.0390
H3A H 0.0481 0.2950 0.1277
H3P H 0.0864 0.3717 0.0390
H3B H -0.2950 -0.2469 0.1277
H3O H -0.3717 -0.2852 0.0390
O7O O 0.3333 -0.3333 0.00692(4)
O7O_2 O 0.3333 0.6667 0.00692(4)
O7O_3 O -0.6667 -0.3333 0.00692(4)
C7Q C 0.2994(2) -0.1524(2) 0.03418(5)
C7A C 0.0339(2) 0.2148(3) 0.13249(5)
C7P C 0.1524(2) 0.4519(3) 0.03418(5)
C7B C -0.2148(3) -0.1809(2) 0.13249(5)
C7O C -0.4519(3) -0.2994(2) 0.03418(5)
H4Q H 0.2873 -0.1574 0.0238
H4A H 0.0460 0.2219 0.1429
H4P H 0.1574 0.4448 0.0238
H4B H -0.2219 -0.1759 0.1429
H4O H -0.4448 -0.2873 0.0238
C8Q C 0.34916(14) -0.03641(14) 0.07928(4)
C8A C -0.01583(14) 0.28109(20) 0.08739(4)
C8P C 0.03641(14) 0.38558(20) 0.07928(4)
C8B C -0.28109(20) -0.29692(14) 0.08739(4)
C8O C -0.38558(20) -0.34916(14) 0.07928(4)
H5Q H 0.3875 -0.0324 0.0780
H5A H -0.0542 0.2467 0.0887
H5P H 0.0324 0.4200 0.0780
H5B H -0.2467 -0.3009 0.0887
H5O H -0.4200 -0.3875 0.0780
H6Q H 0.3291 -0.0641 0.0877
H6A H 0.0042 0.2734 0.0790
H6P H 0.0641 0.3933 0.0877
H6B H -0.2734 -0.2692 0.0790
H6O H -0.3933 -0.3291 0.0877
C9A C -0.02206(15) 0.33334(21) 0.0833
C9B C -0.33334(21) -0.35540(15) 0.0833
C10Q C 0.39685(15) 0.04551(15) 0.09706(4)
C10A C -0.06352(15) 0.31532(21) 0.06961(4)
C10P C -0.04551(15) 0.35135(21) 0.09706(4)
C10B C -0.31532(21) -0.37884(15) 0.06961(4)
C10O C -0.35135(21) -0.39685(15) 0.09706(4)
H7Q H 0.3829 0.0173 0.1056
H7A H -0.0496 0.3010 0.0611
H7P H -0.0173 0.3657 0.1056
H7B H -0.3010 -0.3506 0.0611
H7O H -0.3657 -0.3829 0.1056
H8Q H 0.4354 0.0531 0.0940
H8A H -0.1021 0.2843 0.0727
H8P H -0.0531 0.3824 0.0940
H8B H -0.2843 -0.3864 0.0727
H8O H -0.3824 -0.4354 0.0940
C11Q C 0.43755(19) 0.12703(17) 0.11354(5)
C11A C -0.10422(19) 0.35614(25) 0.05313(5)
C11P C -0.12703(17) 0.31053(25) 0.11354(5)
C11B C -0.35614(25) -0.46036(17) 0.05313(5)
C11O C -0.31053(25) -0.43755(19) 0.11354(5)
C12Q C 0.4732(2) 0.11207(19) 0.12047(6)
C12A C -0.1399(2) 0.30550(28) 0.04620(6)
C12P C -0.11207(19) 0.36117(28) 0.12047(6)
C12B C -0.30550(28) -0.44540(19) 0.04620(6)
C12O C -0.36117(28) -0.4732(2) 0.12047(6)
H9Q H 0.4727 0.0779 0.1175
H9A H -0.1394 0.2718 0.0492
H9P H -0.0779 0.3949 0.1175
H9B H -0.2718 -0.4112 0.0492
H9O H -0.3949 -0.4727 0.1175
C13Q C 0.5108(2) 0.14649(19) 0.13206(6)
C13A C -0.1775(2) 0.30232(28) 0.03461(6)
C13P C -0.14649(19) 0.36435(28) 0.13206(6)
C13B C -0.30232(28) -0.47982(19) 0.03461(6)
C13O C -0.36435(28) -0.5108(2) 0.13206(6)
H10Q H 0.5346 0.1346 0.1371
H10A H -0.2013 0.2666 0.0296
H10P H -0.1346 0.4001 0.1371
H10B H -0.2666 -0.4679 0.0296
H10O H -0.4001 -0.5346 0.1371
C14Q C 0.5141(2) 0.19714(18) 0.13635(6)
C14A C -0.1808(2) 0.34967(27) 0.03032(6)
C14P C -0.19714(18) 0.31700(27) 0.13635(6)
C14B C -0.34967(27) -0.53047(18) 0.03032(6)
C14O C -0.31700(27) -0.5141(2) 0.13635(6)
C15Q C 0.4776(2) 0.2134(2) 0.12913(6)
C15A C -0.1443(2) 0.4024(3) 0.03754(6)
C15P C -0.2134(2) 0.2643(3) 0.12913(6)
C15B C -0.4024(3) -0.5467(2) 0.03754(6)
C15O C -0.2643(3) -0.4776(2) 0.12913(6)
H11Q H 0.4791 0.2482 0.1320
H11A H -0.1458 0.4357 0.0347
H11P H -0.2482 0.2310 0.1320
H11B H -0.4357 -0.5815 0.0347
H11O H -0.2310 -0.4791 0.1320
C16Q C 0.4394(2) 0.1783(2) 0.11787(6)
C16A C -0.1061(2) 0.4055(3) 0.04880(6)
C16P C -0.1783(2) 0.2612(3) 0.11787(6)
C16B C -0.4055(3) -0.5116(2) 0.04880(6)
C16O C -0.2612(3) -0.4394(2) 0.11787(6)
H12Q H 0.4144 0.1890 0.1131
H12A H -0.0811 0.4412 0.0536
H12P H -0.1890 0.2255 0.1131
H12B H -0.4412 -0.5223 0.0536
H12O H -0.2255 -0.4144 0.1131
C17Q C 0.5556(2) 0.23428(19) 0.14819(5)
C17A C -0.2223(2) 0.34531(28) 0.01848(5)
C17P C -0.23428(19) 0.32136(28) 0.14819(5)
C17B C -0.34531(28) -0.56761(19) 0.01848(5)
C17O C -0.32136(28) -0.5556(2) 0.14819(5)
loop_
_geom_bond_atom_site_label_1
_geom_bond_atom_site_label_2
_geom_bond_site_symmetry_1
_geom_bond_site_symmetry_2
Zn1 O1 1_555 1_555
O1 C1 1_555 1_555
C1 O2 1_555 1_555
Zn2 O2 1_555 1_555
C2 C1 1_555 1_555
O3 C5 1_555 1_555
C3 C2 1_555 1_555
H1 C3 1_555 1_555
O4 C10 1_555 1_555
C4 C3 1_555 1_555
H2 C4 1_555 1_555
O5 C17 1_555 1_555
C5 C4 1_555 1_555
O6 C17 1_555 1_555
C6 C5 1_555 1_555
H3 C6 1_555 1_555
O7 Zn1 1_555 1_555
C7 C2 1_555 1_555
H4 C7 1_555 1_555
C8 O3 1_555 1_555
H5 C8 1_555 1_555
H6 C8 1_555 1_555
C9 C8 1_555 1_555
C10 C9 1_555 1_555
H7 C10 1_555 1_555
H8 C10 1_555 1_555
C11 O4 1_555 1_555
C12 C11 1_555 1_555
H9 C12 1_555 1_555
C13 C12 1_555 1_555
H10 C13 1_555 1_555
C14 C13 1_555 1_555
C15 C14 1_555 1_555
H11 C15 1_555 1_555
C16 C11 1_555 1_555
H12 C16 1_555 1_555
C17 C14 1_555 1_555
Zn1O O1Q 1_555 1_555
Zn1O_2 O1P 1_555 1_555
Zn1O_3 O1O 1_555 1_555
O1Q C1Q 1_555 1_555
O1A Zn1 1_555 1_555
O1P C1P 1_555 1_555
O1B Zn1 1_555 1_555
O1O C1O 1_555 1_555
O1O_2 Zn1O 1_555 1_555
O1P_2 Zn1O 1_555 1_555
C1Q O2Q 1_555 1_555
C1A O1A 1_555 1_555
C1P O2P 1_555 1_555
C1B O1B 1_555 1_555
C1O O2O 1_555 1_555
Zn2Q O2Q 1_555 1_555
Zn2A O7 1_555 1_555
Zn2P O2P 1_555 1_555
Zn2B O7 1_555 1_555
Zn2O O2O 1_555 1_555
Zn2GA O5 1_555 1_555
Zn2IA O6 1_555 1_555
Zn2EA O5Q 1_555 1_555
Zn2DA O6Q 1_555 1_555
Zn2IA_2 O5A 1_555 1_555
Zn2HA O6A 1_555 1_555
Zn2FA O5P 1_555 1_555
Zn2EA_2 O6P 1_555 1_555
Zn2HA_2 O5B 1_555 1_555
Zn2GA_2 O6B 1_555 1_555
Zn2DA_2 O5O 1_555 1_555
Zn2FA_2 O6O 1_555 1_555
Zn2P_2 O7O 1_555 1_555
Zn2O_2 O7O 1_555 1_555
O2A C1A 1_555 1_555
O2B C1B 1_555 1_555
C2Q C1Q 1_555 1_555
C2A C1A 1_555 1_555
C2P C1P 1_555 1_555
C2B C1B 1_555 1_555
C2O C1O 1_555 1_555
O3Q C5Q 1_555 1_555
O3A C5A 1_555 1_555
O3P C5P 1_555 1_555
O3B C5B 1_555 1_555
O3O C5O 1_555 1_555
C3Q C2Q 1_555 1_555
C3A C2A 1_555 1_555
C3P C2P 1_555 1_555
C3B C2B 1_555 1_555
C3O C2O 1_555 1_555
H1Q C3Q 1_555 1_555
H1A C3A 1_555 1_555
H1P C3P 1_555 1_555
H1B C3B 1_555 1_555
H1O C3O 1_555 1_555
O4Q C10Q 1_555 1_555
O4A C10A 1_555 1_555
O4P C10P 1_555 1_555
O4B C10B 1_555 1_555
O4O C10O 1_555 1_555
C4Q C3Q 1_555 1_555
C4A C3A 1_555 1_555
C4P C3P 1_555 1_555
C4B C3B 1_555 1_555
C4O C3O 1_555 1_555
H2Q C4Q 1_555 1_555
H2A C4A 1_555 1_555
H2P C4P 1_555 1_555
H2B C4B 1_555 1_555
H2O C4O 1_555 1_555
O5Q C17Q 1_555 1_555
O5A C17A 1_555 1_555
O5P C17P 1_555 1_555
O5B C17B 1_555 1_555
O5O C17O 1_555 1_555
O5AA Zn2 1_555 1_555
O5S Zn2Q 1_555 1_555
O5CA Zn2A 1_555 1_555
O5T Zn2P 1_555 1_555
O5BA Zn2B 1_555 1_555
O5R Zn2O 1_555 1_555
C5Q C4Q 1_555 1_555
C5A C4A 1_555 1_555
C5P C4P 1_555 1_555
C5B C4B 1_555 1_555
C5O C4O 1_555 1_555
O6Q C17Q 1_555 1_555
O6A C17A 1_555 1_555
O6P C17P 1_555 1_555
O6B C17B 1_555 1_555
O6O C17O 1_555 1_555
O6CA Zn2 1_555 1_555
O6R Zn2Q 1_555 1_555
O6BA Zn2A 1_555 1_555
O6S Zn2P 1_555 1_555
O6AA Zn2B 1_555 1_555
O6T Zn2O 1_555 1_555
C6Q C5Q 1_555 1_555
C6A C5A 1_555 1_555
C6P C5P 1_555 1_555
C6B C5B 1_555 1_555
C6O C5O 1_555 1_555
H3Q C6Q 1_555 1_555
H3A C6A 1_555 1_555
H3P C6P 1_555 1_555
H3B C6B 1_555 1_555
H3O C6O 1_555 1_555
O7O Zn1O 1_555 1_555
O7O_2 Zn1O_2 1_555 1_555
O7O_3 Zn1O_3 1_555 1_555
C7Q C2Q 1_555 1_555
C7A C2A 1_555 1_555
C7P C2P 1_555 1_555
C7B C2B 1_555 1_555
C7O C2O 1_555 1_555
H4Q C7Q 1_555 1_555
H4A C7A 1_555 1_555
H4P C7P 1_555 1_555
H4B C7B 1_555 1_555
H4O C7O 1_555 1_555
C8Q C9 1_555 1_555
C8A O3A 1_555 1_555
C8P O3P 1_555 1_555
C8B O3B 1_555 1_555
C8O O3O 1_555 1_555
H5Q C8Q 1_555 1_555
H5A C8A 1_555 1_555
H5P C8P 1_555 1_555
H5B C8B 1_555 1_555
H5O C8O 1_555 1_555
H6Q C8Q 1_555 1_555
H6A C8A 1_555 1_555
H6P C8P 1_555 1_555
H6B C8B 1_555 1_555
H6O C8O 1_555 1_555
C9A C8A 1_555 1_555
C9B C8B 1_555 1_555
C10Q C9 1_555 1_555
C10A C9A 1_555 1_555
C10P C9A 1_555 1_555
C10B C9B 1_555 1_555
C10O C9B 1_555 1_555
H7Q C10Q 1_555 1_555
H7A C10A 1_555 1_555
H7P C10P 1_555 1_555
H7B C10B 1_555 1_555
H7O C10O 1_555 1_555
H8Q C10Q 1_555 1_555
H8A C10A 1_555 1_555
H8P C10P 1_555 1_555
H8B C10B 1_555 1_555
H8O C10O 1_555 1_555
C11Q O4Q 1_555 1_555
C11A O4A 1_555 1_555
C11P O4P 1_555 1_555
C11B O4B 1_555 1_555
C11O O4O 1_555 1_555
C12Q C11Q 1_555 1_555
C12A C11A 1_555 1_555
C12P C11P 1_555 1_555
C12B C11B 1_555 1_555
C12O C11O 1_555 1_555
H9Q C12Q 1_555 1_555
H9A C12A 1_555 1_555
H9P C12P 1_555 1_555
H9B C12B 1_555 1_555
H9O C12O 1_555 1_555
C13Q C12Q 1_555 1_555
C13A C12A 1_555 1_555
C13P C12P 1_555 1_555
C13B C12B 1_555 1_555
C13O C12O 1_555 1_555
H10Q C13Q 1_555 1_555
H10A C13A 1_555 1_555
H10P C13P 1_555 1_555
H10B C13B 1_555 1_555
H10O C13O 1_555 1_555
C14Q C13Q 1_555 1_555
C14A C13A 1_555 1_555
C14P C13P 1_555 1_555
C14B C13B 1_555 1_555
C14O C13O 1_555 1_555
C15Q C14Q 1_555 1_555
C15A C14A 1_555 1_555
C15P C14P 1_555 1_555
C15B C14B 1_555 1_555
C15O C14O 1_555 1_555
H11Q C15Q 1_555 1_555
H11A C15A 1_555 1_555
H11P C15P 1_555 1_555
H11B C15B 1_555 1_555
H11O C15O 1_555 1_555
C16Q C11Q 1_555 1_555
C16A C11A 1_555 1_555
C16P C11P 1_555 1_555
C16B C11B 1_555 1_555
C16O C11O 1_555 1_555
H12Q C16Q 1_555 1_555
H12A C16A 1_555 1_555
H12P C16P 1_555 1_555
H12B C16B 1_555 1_555
H12O C16O 1_555 1_555
C17Q C14Q 1_555 1_555
C17A C14A 1_555 1_555
C17P C14P 1_555 1_555
C17B C14B 1_555 1_555
C17O C14O 1_555 1_555
Zn2 O7 1_555 1_555
C6 C7 1_555 1_555
C15 C16 1_555 1_555
Zn2Q O7O 1_555 1_555
Zn2A O2A 1_555 1_555
Zn2P O7O_2 1_555 1_555
Zn2B O2B 1_555 1_555
Zn2O O7O_3 1_555 1_555
O3Q C8Q 1_555 1_555
C6Q C7Q 1_555 1_555
C6A C7A 1_555 1_555
C6P C7P 1_555 1_555
C6B C7B 1_555 1_555
C6O C7O 1_555 1_555
C8P C9A 1_555 1_555
C8O C9B 1_555 1_555
C15Q C16Q 1_555 1_555
C15A C16A 1_555 1_555
C15P C16P 1_555 1_555
C15B C16B 1_555 1_555
C15O C16O 1_555 1_555

#END
