
#######################################################################
#
#                 Cambridge Crystallographic Data Centre
#                                CCDC 
#
#######################################################################
#
# If this CIF has been generated from an entry in the Cambridge 
# Structural Database, then it will include bibliographic, chemical, 
# crystal, experimental, refinement or atomic coordinate data resulting 
# from the CCDC's data processing and validation procedures.
#
#######################################################################

data_WAGZEL
_symmetry_cell_setting           monoclinic
_symmetry_space_group_name_H-M   'P 21/c'
_symmetry_Int_Tables_number      14
_space_group_name_Hall           '-P 2ybc'
loop_
_symmetry_equiv_pos_site_id
_symmetry_equiv_pos_as_xyz
1 x,y,z
2 -x,1/2+y,1/2-z
3 -x,-y,-z
4 x,1/2-y,1/2+z
_cell_length_a                   10.923(3)
_cell_length_b                   17.877(4)
_cell_length_c                   9.097(2)
_cell_angle_alpha                90
_cell_angle_beta                 111.264(3)
_cell_angle_gamma                90
_cell_volume                     1655.44
loop_
_atom_site_label
_atom_site_type_symbol
_atom_site_fract_x
_atom_site_fract_y
_atom_site_fract_z
Nd1 Nd 0.607006(16) 0.301328(8) 0.567697(19)
C1 C 0.5505(3) 0.43947(16) 0.1008(4)
O1 O 0.5884(2) 0.37343(12) 0.3376(3)
O2 O 0.5269(2) 0.28776(12) 0.7927(3)
O3 O 0.7987(2) 0.33438(12) 0.8278(3)
O4 O 0.4343(2) 0.38714(13) 0.5416(3)
O5 O 0.7239(3) 0.42599(13) 0.6624(3)
N1 N 0.2728(3) 0.46271(14) 0.5445(3)
C2 C 0.3354(3) 0.36568(17) 0.7357(4)
O6 O 0.8268(3) 0.27155(14) 0.5454(3)
C3 C 0.3532(3) 0.40287(17) 0.6045(4)
C4 C 0.9041(3) 0.45269(18) 0.8998(4)
C5 C 0.8032(3) 0.40128(17) 0.7907(4)
C6 C 0.8936(3) 0.52961(18) 0.8780(4)
H1 H 0.8225 0.5498 0.7964
C7 C 1.0110(3) 0.42358(18) 1.0222(4)
H2 H 1.0187 0.3721 1.0373
C8 C 0.1790(3) 0.4867(2) 0.5978(4)
H3 H 0.1279 0.5279 0.5510
C9 C 0.4261(3) 0.30457(16) 0.8230(4)
C10 C 0.2397(4) 0.3908(2) 0.7878(5)
H4 H 0.2284 0.3665 0.8724
C11 C 0.1587(4) 0.4512(2) 0.7189(5)
H5 H 0.0931 0.4667 0.7547
C12 C 0.4576(3) 0.48647(17) 0.1242(4)
H6 H 0.4287 0.4775 0.2070
C13 C 0.5919(3) 0.45326(17) -0.0242(4)
H7 H 0.6534 0.4218 -0.0409
C14 C 0.6045(3) 0.37396(16) 0.2090(4)
O9 O 0.6648(2) 0.32408(12) 0.1632(3)
O10 O 0.4021(2) 0.27191(16) 0.9322(3)
Nd1B Nd 0.392994(16) 0.698672(8) -0.567697(19)
Nd1C Nd 0.607006(16) 0.198672(8) 1.067697(19)
Nd1C_2 Nd 0.607006(16) 0.198672(8) 0.067697(19)
Nd1A Nd 0.392994(16) 0.801328(8) -0.067697(19)
Nd1B_2 Nd 1.392994(16) 0.698672(8) 1.432303(19)
C1B C 0.4495(3) 0.56053(16) -0.1008(4)
O1B O 0.4116(2) 0.62657(12) -0.3376(3)
O2C O 0.5269(2) 0.21224(12) 0.2927(3)
O2B O 0.4731(2) 0.71224(12) -0.7927(3)
O2A O 0.4731(2) 0.78776(12) -0.2927(3)
O3B O 1.2013(2) 0.66562(12) 1.1722(3)
O3B_2 O 0.2013(2) 0.66562(12) -0.8278(3)
O4C O 0.4343(2) 0.11286(13) 0.0416(3)
O4B O 0.5657(2) 0.61286(13) -0.5416(3)
O5B O 1.2761(3) 0.57401(13) 1.3376(3)
O5B_2 O 0.2761(3) 0.57401(13) -0.6624(3)
N1C N 0.2728(3) 0.03729(14) 0.0445(3)
C2C C 0.3354(3) 0.13432(17) 0.2357(4)
O6B O 0.1732(3) 0.72845(14) -0.5454(3)
C3C C 0.3532(3) 0.09713(17) 0.1045(4)
C4B C 1.0959(3) 0.54731(18) 1.1002(4)
C5B C 1.1968(3) 0.59872(17) 1.2093(4)
C6B C 1.1064(3) 0.47039(18) 1.1220(4)
H1B H 1.1775 0.4502 1.2036
C7B C 0.9890(3) 0.57642(18) 0.9778(4)
H2B H 0.9813 0.6279 0.9627
C8C C 0.1790(3) 0.0133(2) 0.0978(4)
H3C H 0.1279 -0.0279 0.0510
C9C C 0.4261(3) 0.19543(16) 0.3230(4)
C10C C 0.2397(4) 0.1092(2) 0.2878(5)
H4C H 0.2284 0.1335 0.3724
C11C C 0.1587(4) 0.0488(2) 0.2189(5)
H5C H 0.0931 0.0333 0.2547
C12B C 0.5424(3) 0.51353(17) -0.1242(4)
H6B H 0.5713 0.5225 -0.2070
C13B C 0.4081(3) 0.54674(17) 0.0242(4)
H7B H 0.3466 0.5782 0.0409
C14B C 0.3955(3) 0.62604(16) -0.2090(4)
O9B O 0.3352(2) 0.67592(12) -0.1632(3)
O9C O 0.6648(2) 0.17592(12) 0.6632(3)
O9A O 0.3352(2) 0.82408(12) -0.6632(3)
O10C O 0.4021(2) 0.22809(16) 0.4322(3)
O10A O 0.5979(2) 0.77191(16) -0.4322(3)
O7 O -0.0610(4) 0.3526(2) 0.3618(5)
O8 O 0.1311(10) 0.2808(5) 0.2957(13)
O11 O 0.1586(14) 0.2509(9) 0.480(3)
O12 O 0.277(3) 0.1755(16) 0.660(3)
loop_
_geom_bond_atom_site_label_1
_geom_bond_atom_site_label_2
_geom_bond_site_symmetry_1
_geom_bond_site_symmetry_2
Nd1 O1 1_555 1_555
C1 C12 1_555 1_555
O1 C14 1_555 1_555
O2 Nd1 1_555 1_555
O3 Nd1 1_555 1_555
O4 Nd1 1_555 1_555
O5 Nd1 1_555 1_555
N1 C3 1_555 1_555
C2 C3 1_555 1_555
O6 Nd1 1_555 1_555
C3 O4 1_555 1_555
C4 C5 1_555 1_555
C5 O3 1_555 1_555
C6 C4 1_555 1_555
H1 C6 1_555 1_555
C7 C4 1_555 1_555
H2 C7 1_555 1_555
C8 N1 1_555 1_555
H3 C8 1_555 1_555
C9 O2 1_555 1_555
C10 C2 1_555 1_555
H4 C10 1_555 1_555
C11 C8 1_555 1_555
H5 C11 1_555 1_555
C12 H6 1_555 1_555
C13 C1 1_555 1_555
H7 C13 1_555 1_555
C14 C1 1_555 1_555
O9 C14 1_555 1_555
O10 C9 1_555 1_555
Nd1B O1B 1_555 1_555
Nd1C O2 1_555 1_555
Nd1C_2 O9 1_555 1_555
Nd1A O2A 1_555 1_555
Nd1B_2 O3B 1_555 1_555
C1B C12B 1_555 1_555
O1B C14B 1_555 1_555
O2C Nd1 1_555 1_555
O2B Nd1B 1_555 1_555
O2A Nd1B 1_555 1_555
O3B C5B 1_555 1_555
O3B_2 Nd1B 1_555 1_555
O4C Nd1C_2 1_555 1_555
O4B Nd1B 1_555 1_555
O5B Nd1B_2 1_555 1_555
O5B_2 Nd1B 1_555 1_555
N1C C3C 1_555 1_555
C2C C3C 1_555 1_555
O6B Nd1B 1_555 1_555
C3C O4C 1_555 1_555
C4B C5B 1_555 1_555
C5B O5B 1_555 1_555
C6B C7 1_555 1_555
H1B C6B 1_555 1_555
C7B C6 1_555 1_555
H2B C7B 1_555 1_555
C8C N1C 1_555 1_555
H3C C8C 1_555 1_555
C9C O2C 1_555 1_555
C10C C2C 1_555 1_555
H4C C10C 1_555 1_555
C11C C8C 1_555 1_555
H5C C11C 1_555 1_555
C12B C13 1_555 1_555
H6B C12B 1_555 1_555
C13B C12 1_555 1_555
H7B C13B 1_555 1_555
C14B C1B 1_555 1_555
O9B Nd1A 1_555 1_555
O9C Nd1 1_555 1_555
O9A Nd1B 1_555 1_555
O10C Nd1 1_555 1_555
O10A Nd1B 1_555 1_555
O5 C5 1_555 1_555
C2 C9 1_555 1_555
C10 C11 1_555 1_555
O10 Nd1C 1_555 1_555
Nd1C_2 O2C 1_555 1_555
C1B C13B 1_555 1_555
C2C C9C 1_555 1_555
C4B C6B 1_555 1_555
C4B C7B 1_555 1_555
C9C O10C 1_555 1_555
C10C C11C 1_555 1_555
C14B O9B 1_555 1_555

#END
