
#######################################################################
#
#                 Cambridge Crystallographic Data Centre
#                                CCDC 
#
#######################################################################
#
# If this CIF has been generated from an entry in the Cambridge 
# Structural Database, then it will include bibliographic, chemical, 
# crystal, experimental, refinement or atomic coordinate data resulting 
# from the CCDC's data processing and validation procedures.
#
#######################################################################

data_WAJJEY
_symmetry_cell_setting           tetragonal
_symmetry_space_group_name_H-M   'P 41 21 2'
_symmetry_Int_Tables_number      92
_space_group_name_Hall           'P 4abw 2nw'
loop_
_symmetry_equiv_pos_site_id
_symmetry_equiv_pos_as_xyz
1 x,y,z
2 -x,-y,1/2+z
3 1/2-y,1/2+x,1/4+z
4 1/2+y,1/2-x,3/4+z
5 1/2-x,1/2+y,1/4-z
6 1/2+x,1/2-y,3/4-z
7 y,x,-z
8 -y,-x,1/2-z
_cell_length_a                   16.3514(6)
_cell_length_b                   16.3514(6)
_cell_length_c                   11.2764(8)
_cell_angle_alpha                90
_cell_angle_beta                 90
_cell_angle_gamma                90
_cell_volume                     3014.95
loop_
_atom_site_label
_atom_site_type_symbol
_atom_site_fract_x
_atom_site_fract_y
_atom_site_fract_z
Li1 Li 0.1748(3) 0.5961(3) 0.8727(5)
Zn1 Zn 0.17405(2) 0.41716(2) 0.83988(3)
O1 O 0.18139(12) 0.49841(12) 0.97722(19)
O2 O 0.10953(13) 0.55994(13) 1.1198(2)
O3 O 0.32886(12) 0.25027(13) 1.1557(2)
O4 O 0.27076(14) 0.18450(14) 1.3072(2)
O5 O 0.01548(13) 0.30635(13) 1.4904(2)
O6 O -0.06148(14) 0.37685(13) 1.3652(2)
C1 C 0.14451(18) 0.49878(17) 1.0757(3)
C2 C 0.27207(19) 0.23951(19) 1.2320(3)
C3 C 0.00414(18) 0.34372(19) 1.3916(3)
C4 C 0.14153(19) 0.42299(18) 1.1503(3)
C5 C 0.20386(18) 0.36530(18) 1.1480(3)
H1 H 0.2460 0.3699 1.0930
C6 C 0.20310(19) 0.3005(2) 1.2282(3)
C7 C 0.1389(2) 0.29290(19) 1.3092(3)
H2 H 0.1390 0.2505 1.3643
C8 C 0.07457(18) 0.34921(19) 1.3072(3)
C9 C 0.07686(19) 0.41446(18) 1.2289(3)
H3 H 0.0348 0.4527 1.2290
Li1D Li 0.3252(3) 0.0961(3) 1.3773(5)
Li1C Li 0.0961(3) 0.3252(3) 1.6227(5)
Li1A Li -0.1748(3) 0.4039(3) 1.3727(5)
Zn1B Zn 0.08284(2) 0.67405(2) 1.08988(3)
Zn1F Zn 0.41716(2) 0.17405(2) 1.16012(3)
Zn1C Zn -0.08284(2) 0.32595(2) 1.58988(3)
O2C O 0.05994(13) 0.39047(13) 0.8698(2)
O3F O 0.25027(13) 0.32886(12) 0.8443(2)
O4D O 0.22924(14) 0.68450(14) 0.9428(2)
O5B O 0.19365(13) 0.51548(13) 0.7404(2)
O6A O 0.06148(14) 0.62315(13) 0.8652(2)
loop_
_geom_bond_atom_site_label_1
_geom_bond_atom_site_label_2
_geom_bond_site_symmetry_1
_geom_bond_site_symmetry_2
Li1 O1 1_555 1_555
Zn1 O1 1_555 1_555
O1 C1 1_555 1_555
O2 C1 1_555 1_555
O3 C2 1_555 1_555
O4 C2 1_555 1_555
O5 C3 1_555 1_555
O6 C3 1_555 1_555
C1 C4 1_555 1_555
C2 C6 1_555 1_555
C3 C8 1_555 1_555
C4 C5 1_555 1_555
C5 H1 1_555 1_555
C6 C5 1_555 1_555
C7 C6 1_555 1_555
H2 C7 1_555 1_555
C8 C7 1_555 1_555
C9 C4 1_555 1_555
H3 C9 1_555 1_555
Li1D O4 1_555 1_555
Li1C O5 1_555 1_555
Li1A O6 1_555 1_555
Zn1B O2 1_555 1_555
Zn1F O3 1_555 1_555
Zn1C O5 1_555 1_555
O2C Zn1 1_555 1_555
O3F Zn1 1_555 1_555
O4D Li1 1_555 1_555
O5B Li1 1_555 1_555
O6A Li1 1_555 1_555
Zn1 O5B 1_555 1_555
C8 C9 1_555 1_555

#END
