
#######################################################################
#
#                 Cambridge Crystallographic Data Centre
#                                CCDC 
#
#######################################################################
#
# If this CIF has been generated from an entry in the Cambridge 
# Structural Database, then it will include bibliographic, chemical, 
# crystal, experimental, refinement or atomic coordinate data resulting 
# from the CCDC's data processing and validation procedures.
#
#######################################################################

data_WAMRIN
_symmetry_cell_setting           orthorhombic
_symmetry_space_group_name_H-M   'P n n m'
_symmetry_Int_Tables_number      58
_space_group_name_Hall           '-P 2 2n'
loop_
_symmetry_equiv_pos_site_id
_symmetry_equiv_pos_as_xyz
1 x,y,z
2 -x,-y,z
3 1/2+x,1/2-y,1/2-z
4 1/2-x,1/2+y,1/2-z
5 -x,-y,-z
6 x,y,-z
7 1/2-x,1/2+y,1/2+z
8 1/2+x,1/2-y,1/2+z
_cell_length_a                   12.8470(17)
_cell_length_b                   14.8440(19)
_cell_length_c                   15.148(2)
_cell_angle_alpha                90
_cell_angle_beta                 90
_cell_angle_gamma                90
_cell_volume                     2888.74
loop_
_atom_site_label
_atom_site_type_symbol
_atom_site_fract_x
_atom_site_fract_y
_atom_site_fract_z
Mg1 Mg 0.44329(7) 0.76236(7) 1.0000
O1 O 0.52884(14) 0.69490(12) 0.90546(12)
O2 O 0.66320(16) 0.78325(13) 0.87087(15)
C1 C 0.6594(2) 0.63433(16) 0.81359(17)
C2 C 0.6738(2) 0.47519(17) 0.7842(2)
C3 C 0.6310(2) 0.54653(17) 0.83202(19)
H1 H 0.5830 0.5349 0.8766
C4 C 0.6138(2) 0.71019(17) 0.86717(17)
C5 C 0.7446(2) 0.49359(17) 0.71776(18)
H2 H 0.7742 0.4464 0.6861
C6 C 0.77207(18) 0.58153(16) 0.69787(16)
C7 C 0.72936(19) 0.65206(16) 0.74594(16)
H3 H 0.7476 0.7112 0.7328
C8 C 0.84867(18) 0.59860(16) 0.62463(15)
O3 O 0.85858(15) 0.67731(12) 0.59850(13)
O4 O 0.89596(17) 0.53228(13) 0.59514(15)
O5 O 0.3353(2) 0.6574(2) 1.0000
N1 N 0.6476(2) 0.3861(2) 0.8052(2)
H4 H 0.6756 0.3422 0.7767
H5 H 0.6035 0.3753 0.8466
Mg2 Mg 1.0000 0.5000 0.5000
O6 O 0.94004(17) 0.36731(15) 0.5000
H6 H 0.912(3) 0.346(2) 0.4542(15)
H7 H 0.305(4) 0.642(3) 0.9530(19)
Mg1A Mg 1.55671(7) 0.23764(7) 1.0000
Mg1B Mg 0.94329(7) 0.73764(7) 0.5000
Mg1C Mg 1.05671(7) 0.26236(7) 0.5000
Mg1A_2 Mg 1.55671(7) 0.23764(7) 0.0000
Mg1_2 Mg 0.44329(7) 0.76236(7) 0.0000
O1A O 1.47116(14) 0.30510(12) 0.90546(12)
O1D O 1.47116(14) 0.30510(12) 0.09454(12)
O1E O 0.52884(14) 0.69490(12) 0.09454(12)
O1E_2 O 0.52884(14) 0.69490(12) 1.09454(12)
O1D_2 O 1.47116(14) 0.30510(12) 1.09454(12)
O2A O 1.33680(16) 0.21675(13) 0.87087(15)
O2D O 1.33680(16) 0.21675(13) 0.12913(15)
O2E O 0.66320(16) 0.78325(13) 0.12913(15)
C1A C 1.3406(2) 0.36567(16) 0.81359(17)
C1D C 1.3406(2) 0.36567(16) 0.18641(17)
C1E C 0.6594(2) 0.63433(16) 0.18641(17)
C2A C 1.3262(2) 0.52481(17) 0.7842(2)
C2D C 1.3262(2) 0.52481(17) 0.2158(2)
C2E C 0.6738(2) 0.47519(17) 0.2158(2)
C3A C 1.3690(2) 0.45347(17) 0.83202(19)
C3D C 1.3690(2) 0.45347(17) 0.16798(19)
C3E C 0.6310(2) 0.54653(17) 0.16798(19)
H1A H 1.4170 0.4651 0.8766
H1D H 1.4170 0.4651 0.1234
H1E H 0.5830 0.5349 0.1234
C4A C 1.3862(2) 0.28981(17) 0.86717(17)
C4D C 1.3862(2) 0.28981(17) 0.13283(17)
C4E C 0.6138(2) 0.71019(17) 0.13283(17)
C5A C 1.2554(2) 0.50641(17) 0.71776(18)
C5D C 1.2554(2) 0.50641(17) 0.28224(18)
C5E C 0.7446(2) 0.49359(17) 0.28224(18)
H2A H 1.2258 0.5536 0.6861
H2D H 1.2258 0.5536 0.3139
H2E H 0.7742 0.4464 0.3139
C6A C 1.22793(18) 0.41847(16) 0.69787(16)
C6D C 1.22793(18) 0.41847(16) 0.30213(16)
C6E C 0.77207(18) 0.58153(16) 0.30213(16)
C7A C 1.27064(19) 0.34794(16) 0.74594(16)
C7D C 1.27064(19) 0.34794(16) 0.25406(16)
C7E C 0.72936(19) 0.65206(16) 0.25406(16)
H3A H 1.2524 0.2888 0.7328
H3D H 1.2524 0.2888 0.2672
H3E H 0.7476 0.7112 0.2672
C8A C 1.15133(18) 0.40140(16) 0.62463(15)
C8D C 1.15133(18) 0.40140(16) 0.37537(15)
C8E C 0.84867(18) 0.59860(16) 0.37537(15)
O3A O 1.14142(15) 0.32269(12) 0.59850(13)
O3D O 1.14142(15) 0.32269(12) 0.40150(13)
O3E O 0.85858(15) 0.67731(12) 0.40150(13)
O3B O 0.35858(15) 0.82269(12) 0.90150(13)
O3G O 0.35858(15) 0.82269(12) 1.09850(13)
O3C O 1.64142(15) 0.17731(12) 0.90150(13)
O3F O 1.64142(15) 0.17731(12) 1.09850(13)
O4A O 1.10404(17) 0.46772(13) 0.59514(15)
O4D O 1.10404(17) 0.46772(13) 0.40486(15)
O4E O 0.89596(17) 0.53228(13) 0.40486(15)
O5A O 1.6647(2) 0.3426(2) 1.0000
N1A N 1.3524(2) 0.6139(2) 0.8052(2)
N1D N 1.3524(2) 0.6139(2) 0.1948(2)
N1E N 0.6476(2) 0.3861(2) 0.1948(2)
H4A H 1.3244 0.6578 0.7767
H4D H 1.3244 0.6578 0.2233
H4E H 0.6756 0.3422 0.2233
H5A H 1.3965 0.6247 0.8466
H5D H 1.3965 0.6247 0.1534
H5E H 0.6035 0.3753 0.1534
O6A O 1.05996(17) 0.63269(15) 0.5000
O6C O 0.55996(17) 0.86731(15) 1.0000
O6B O 1.44004(17) 0.13269(15) 1.0000
H6E H 0.912(3) 0.346(2) 0.5458(15)
H6A H 1.088(3) 0.654(2) 0.4542(15)
H6D H 1.088(3) 0.654(2) 0.5458(15)
H6C H 0.588(3) 0.846(2) 1.0458(15)
H6F H 0.588(3) 0.846(2) 0.9542(15)
H6B H 1.412(3) 0.154(2) 1.0458(15)
H6G H 1.412(3) 0.154(2) 0.9542(15)
H7E H 0.305(4) 0.642(3) 1.0470(19)
H7A H 1.695(4) 0.358(3) 0.9530(19)
H7D H 1.695(4) 0.358(3) 1.0470(19)
loop_
_geom_bond_atom_site_label_1
_geom_bond_atom_site_label_2
_geom_bond_site_symmetry_1
_geom_bond_site_symmetry_2
Mg1 O1 1_555 1_555
O1 C4 1_555 1_555
O2 C4 1_555 1_555
C1 C3 1_555 1_555
C2 C3 1_555 1_555
C3 H1 1_555 1_555
C4 C1 1_555 1_555
C5 C2 1_555 1_555
H2 C5 1_555 1_555
C6 C5 1_555 1_555
C7 C1 1_555 1_555
H3 C7 1_555 1_555
C8 C6 1_555 1_555
O3 C8 1_555 1_555
O4 C8 1_555 1_555
O5 Mg1 1_555 1_555
N1 C2 1_555 1_555
H4 N1 1_555 1_555
H5 N1 1_555 1_555
Mg2 O4 1_555 1_555
O6 Mg2 1_555 1_555
H6 O6 1_555 1_555
H7 O5 1_555 1_555
Mg1A O1A 1_555 1_555
Mg1B O3 1_555 1_555
Mg1C O6 1_555 1_555
Mg1A_2 O1D 1_555 1_555
Mg1_2 O1E 1_555 1_555
O1A C4A 1_555 1_555
O1D C4D 1_555 1_555
O1E C4E 1_555 1_555
O1E_2 Mg1 1_555 1_555
O1D_2 Mg1A 1_555 1_555
O2A C4A 1_555 1_555
O2D C4D 1_555 1_555
O2E C4E 1_555 1_555
C1A C3A 1_555 1_555
C1D C3D 1_555 1_555
C1E C3E 1_555 1_555
C2A C3A 1_555 1_555
C2D C3D 1_555 1_555
C2E C3E 1_555 1_555
C3A H1A 1_555 1_555
C3D H1D 1_555 1_555
C3E H1E 1_555 1_555
C4A C1A 1_555 1_555
C4D C1D 1_555 1_555
C4E C1E 1_555 1_555
C5A C2A 1_555 1_555
C5D C2D 1_555 1_555
C5E C2E 1_555 1_555
H2A C5A 1_555 1_555
H2D C5D 1_555 1_555
H2E C5E 1_555 1_555
C6A C5A 1_555 1_555
C6D C5D 1_555 1_555
C6E C5E 1_555 1_555
C7A C1A 1_555 1_555
C7D C1D 1_555 1_555
C7E C1E 1_555 1_555
H3A C7A 1_555 1_555
H3D C7D 1_555 1_555
H3E C7E 1_555 1_555
C8A C6A 1_555 1_555
C8D C6D 1_555 1_555
C8E C6E 1_555 1_555
O3A Mg1C 1_555 1_555
O3D Mg1C 1_555 1_555
O3E Mg1B 1_555 1_555
O3B Mg1 1_555 1_555
O3G Mg1 1_555 1_555
O3C Mg1A 1_555 1_555
O3F Mg1A 1_555 1_555
O4A Mg2 1_555 1_555
O4D Mg2 1_555 1_555
O4E Mg2 1_555 1_555
O5A Mg1A 1_555 1_555
N1A C2A 1_555 1_555
N1D C2D 1_555 1_555
N1E C2E 1_555 1_555
H4A N1A 1_555 1_555
H4D N1D 1_555 1_555
H4E N1E 1_555 1_555
H5A N1A 1_555 1_555
H5D N1D 1_555 1_555
H5E N1E 1_555 1_555
O6A Mg2 1_555 1_555
O6C Mg1 1_555 1_555
O6B Mg1A 1_555 1_555
H6E O6 1_555 1_555
H6A O6A 1_555 1_555
H6D O6A 1_555 1_555
H6C O6C 1_555 1_555
H6F O6C 1_555 1_555
H6B O6B 1_555 1_555
H6G O6B 1_555 1_555
H7E O5 1_555 1_555
H7A O5A 1_555 1_555
H7D O5A 1_555 1_555
C6 C7 1_555 1_555
Mg1B O6A 1_555 1_555
C6A C7A 1_555 1_555
C6D C7D 1_555 1_555
C6E C7E 1_555 1_555
C8A O3A 1_555 1_555
C8A O4A 1_555 1_555
C8D O3D 1_555 1_555
C8D O4D 1_555 1_555
C8E O3E 1_555 1_555
C8E O4E 1_555 1_555

#END
