
#######################################################################
#
#                 Cambridge Crystallographic Data Centre
#                                CCDC 
#
#######################################################################
#
# If this CIF has been generated from an entry in the Cambridge 
# Structural Database, then it will include bibliographic, chemical, 
# crystal, experimental, refinement or atomic coordinate data resulting 
# from the CCDC's data processing and validation procedures.
#
#######################################################################

data_WAMRIN02
_symmetry_cell_setting           monoclinic
_symmetry_space_group_name_H-M   'P 21/c'
_symmetry_Int_Tables_number      14
_space_group_name_Hall           '-P 2ybc'
loop_
_symmetry_equiv_pos_site_id
_symmetry_equiv_pos_as_xyz
1 x,y,z
2 -x,1/2+y,1/2-z
3 -x,-y,-z
4 x,1/2-y,1/2+z
_cell_length_a                   14.4840(14)
_cell_length_b                   13.3890(13)
_cell_length_c                   20.3730(14)
_cell_angle_alpha                90
_cell_angle_beta                 133.800(14)
_cell_angle_gamma                90
_cell_volume                     2851.57
loop_
_atom_site_label
_atom_site_type_symbol
_atom_site_fract_x
_atom_site_fract_y
_atom_site_fract_z
Mg1 Mg 0.0000 -1.0000 0.0000
Mg2 Mg 0.24819(2) -0.94059(2) 0.006088(16)
O1 O 0.26868(5) -0.85797(6) 0.09905(4)
O2 O 0.35891(5) -0.83688(6) 0.00934(4)
H1 H 0.4184 -0.8264 0.0637
H2 H 0.3403 -0.7880 -0.0197
O3 O 0.11794(5) -0.89435(6) 0.09880(4)
O4 O 0.14759(5) -1.05313(5) 0.01120(3)
O5 O 0.63149(5) -0.64418(7) 0.34963(5)
O6 O 0.58090(5) -0.51608(6) 0.39006(4)
O7 O 0.08830(5) -0.86323(6) -0.10596(4)
O8 O -0.05039(5) -0.90334(6) -0.09577(4)
O9 O -0.09209(5) -0.64568(6) -0.37504(4)
H3 H -0.0895 -0.6111 -0.4070
O10 O -0.23087(5) -0.52858(5) -0.41258(4)
N1 N 0.16412(6) -0.62383(7) 0.29402(5)
H4 H 0.1954 -0.5738 0.3327
H5 H 0.0895 -0.6052 0.2440
N2 N -0.42347(6) -0.67638(8) -0.29969(5)
H6 H -0.4194 -0.7101 -0.2605
H7 H -0.4491 -0.6115 -0.3096
C1 C 0.21216(7) -0.84613(8) 0.12465(5)
C2 C 0.26340(7) -0.76470(8) 0.19423(5)
C3 C 0.19352(7) -0.73382(8) 0.21435(5)
H8 H 0.1157 -0.7637 0.1863
C4 C 0.24173(7) -0.65817(8) 0.27665(5)
C5 C 0.35831(7) -0.61410(8) 0.32167(5)
H9 H 0.3894 -0.5643 0.3645
C6 C 0.42916(7) -0.64512(8) 0.30228(5)
C7 C 0.55759(7) -0.59826(8) 0.35086(5)
C8 C 0.38004(7) -0.71990(8) 0.23804(5)
H10 H 0.4263 -0.7403 0.2242
C9 C -0.01758(7) -0.85493(8) -0.12881(5)
C10 C -0.11350(7) -0.78077(8) -0.20163(5)
C11 C -0.09565(7) -0.73005(8) -0.25148(5)
H11 H -0.0230 -0.7422 -0.2409
C12 C -0.18587(7) -0.66120(8) -0.31716(5)
C13 C -0.16754(7) -0.60859(8) -0.37247(5)
C14 C -0.29393(7) -0.64283(8) -0.33255(6)
H12 H -0.3546 -0.5970 -0.3768
C15 C -0.31205(7) -0.69227(9) -0.28237(6)
C16 C -0.22209(7) -0.76210(8) -0.21766(6)
H13 H -0.2347 -0.7967 -0.1848
H32 H 0.2113(8) -1.0807(6) 0.0607(2)
H33 H 0.1243(7) -1.0916(5) -0.0300(2)
Mg2B Mg -0.24819(2) -1.05941(2) -0.006088(16)
Mg2A Mg 0.75181(2) -0.44059(2) 0.493912(16)
Mg2A_2 Mg -0.24819(2) -0.44059(2) -0.506088(16)
Mg2C Mg -0.75181(2) -1.55941(2) -0.493912(16)
Mg2C_2 Mg 0.24819(2) -1.55941(2) 0.506088(16)
O1B O -0.26868(5) -1.14203(6) -0.09905(4)
O2B O -0.35891(5) -1.16312(6) -0.00934(4)
H1B H -0.4184 -1.1736 -0.0637
H2B H -0.3403 -1.2120 0.0197
O3B O -0.11794(5) -1.10565(6) -0.09880(4)
O4B O -0.14759(5) -0.94687(5) -0.01120(3)
O5B O -0.63149(5) -1.35582(7) -0.34963(5)
O6B O -0.58090(5) -1.48392(6) -0.39006(4)
O6A O 0.41910(5) -1.01608(6) 0.10994(4)
O6C O -0.41910(5) -0.98392(6) -0.10994(4)
O7B O -0.08830(5) -1.13677(6) 0.10596(4)
O8B O 0.05039(5) -1.09666(6) 0.09577(4)
O9B O 0.09209(5) -1.35432(6) 0.37504(4)
H3B H 0.0895 -1.3889 0.4070
O10B O 0.23087(5) -1.47142(5) 0.41258(4)
O10A O 0.23087(5) -1.02858(5) -0.08742(4)
O10C O -0.23087(5) -0.97142(5) 0.08742(4)
N1B N -0.16412(6) -1.37617(7) -0.29402(5)
H4B H -0.1954 -1.4262 -0.3327
H5B H -0.0895 -1.3948 -0.2440
N2B N 0.42347(6) -1.32362(8) 0.29969(5)
H6B H 0.4194 -1.2899 0.2605
H7B H 0.4491 -1.3885 0.3096
C1B C -0.21216(7) -1.15387(8) -0.12465(5)
C2B C -0.26340(7) -1.23530(8) -0.19423(5)
C3B C -0.19352(7) -1.26618(8) -0.21435(5)
H8B H -0.1157 -1.2363 -0.1863
C4B C -0.24173(7) -1.34183(8) -0.27665(5)
C5B C -0.35831(7) -1.38590(8) -0.32167(5)
H9B H -0.3894 -1.4357 -0.3645
C6B C -0.42916(7) -1.35488(8) -0.30228(5)
C7B C -0.55759(7) -1.40174(8) -0.35086(5)
C8B C -0.38004(7) -1.28010(8) -0.23804(5)
H10B H -0.4263 -1.2597 -0.2242
C9B C 0.01758(7) -1.14507(8) 0.12881(5)
C10B C 0.11350(7) -1.21923(8) 0.20163(5)
C11B C 0.09565(7) -1.26995(8) 0.25148(5)
H11B H 0.0230 -1.2578 0.2409
C12B C 0.18587(7) -1.33880(8) 0.31716(5)
C13B C 0.16754(7) -1.39141(8) 0.37247(5)
C14B C 0.29393(7) -1.35717(8) 0.33255(6)
H12B H 0.3546 -1.4030 0.3768
C15B C 0.31205(7) -1.30773(9) 0.28237(6)
C16B C 0.22209(7) -1.23790(8) 0.21766(6)
H13B H 0.2347 -1.2033 0.1848
H32B H -0.2113(8) -0.9193(6) -0.0607(2)
H33B H -0.1243(7) -0.9084(5) 0.0300(2)
O11 O -0.29233(11) -0.17199(9) -0.40944(7)
N3 N -0.39021(19) -0.07634(17) -0.38584(11)
C17 C -0.5199(2) -0.1591(2) -0.46914(15)
H14 H -0.5976 -0.1214 -0.5113
H15 H -0.5290 -0.2078 -0.4394
H16 H -0.5023 -0.1924 -0.5013
C18 C -0.4221(2) -0.00912(19) -0.35039(14)
H17 H -0.4610 0.0495 -0.3879
H18 H -0.3460 0.0093 -0.2895
H19 H -0.4810 -0.0407 -0.3498
C19 C -0.3272(2) -0.11198(18) -0.38663(12)
C20 C -0.19636(18) -0.02934(15) -0.30426(11)
H20 H -0.1285 -0.0405 -0.3017
H21 H -0.1658 -0.0420 -0.2456
H22 H -0.2249 0.0386 -0.3215
O12 O 0.03911(10) -0.05021(11) -0.62833(6)
N4 N 0.14855(18) 0.0023(2) -0.49129(11)
C21 C 0.2231(3) -0.0045(2) -0.39397(12)
H23 H 0.3122 0.0040 -0.3599
H24 H 0.2099 -0.0688 -0.3807
H25 H 0.1960 0.0467 -0.3774
C22 C 0.1169(2) 0.11102(16) -0.53084(15)
H26 H 0.1934 0.1507 -0.4926
H27 H 0.0544 0.1403 -0.5330
H28 H 0.0836 0.1085 -0.5911
C23 C 0.10522(16) -0.0555(2) -0.54847(11)
C24 C 0.1473(2) -0.16943(15) -0.50185(15)
H29 H 0.1380 -0.2163 -0.5418
H30 H 0.0934 -0.1889 -0.4925
H31 H 0.2349 -0.1684 -0.4445
loop_
_geom_bond_atom_site_label_1
_geom_bond_atom_site_label_2
_geom_bond_site_symmetry_1
_geom_bond_site_symmetry_2
Mg1 O3 1_555 1_555
Mg2 O1 1_555 1_555
O1 C1 1_555 1_555
O2 Mg2 1_555 1_555
H1 O2 1_555 1_555
H2 O2 1_555 1_555
O3 C1 1_555 1_555
O4 Mg1 1_555 1_555
O5 C7 1_555 1_555
O6 C7 1_555 1_555
O7 Mg2 1_555 1_555
O8 Mg1 1_555 1_555
O9 H3 1_555 1_555
O10 C13 1_555 1_555
N1 H4 1_555 1_555
H5 N1 1_555 1_555
N2 H6 1_555 1_555
H7 N2 1_555 1_555
C1 C2 1_555 1_555
C2 C3 1_555 1_555
C3 H8 1_555 1_555
C4 N1 1_555 1_555
C5 C4 1_555 1_555
H9 C5 1_555 1_555
C6 C5 1_555 1_555
C7 C6 1_555 1_555
C8 C2 1_555 1_555
H10 C8 1_555 1_555
C9 O7 1_555 1_555
C10 C9 1_555 1_555
C11 C10 1_555 1_555
H11 C11 1_555 1_555
C12 C11 1_555 1_555
C13 O9 1_555 1_555
C14 C12 1_555 1_555
H12 C14 1_555 1_555
C15 N2 1_555 1_555
C16 C10 1_555 1_555
H13 C16 1_555 1_555
O11 C19 1_555 1_555
N3 C17 1_555 1_555
C17 H14 1_555 1_555
H15 C17 1_555 1_555
H16 C17 1_555 1_555
C18 N3 1_555 1_555
H17 C18 1_555 1_555
H18 C18 1_555 1_555
H19 C18 1_555 1_555
C19 N3 1_555 1_555
C20 C19 1_555 1_555
H20 C20 1_555 1_555
H21 C20 1_555 1_555
H22 C20 1_555 1_555
O12 C23 1_555 1_555
N4 C21 1_555 1_555
C21 H23 1_555 1_555
H24 C21 1_555 1_555
H25 C21 1_555 1_555
C22 N4 1_555 1_555
H26 C22 1_555 1_555
H27 C22 1_555 1_555
H28 C22 1_555 1_555
C23 N4 1_555 1_555
C24 C23 1_555 1_555
H29 C24 1_555 1_555
H30 C24 1_555 1_555
H31 C24 1_555 1_555
H32 O4 1_555 1_555
H33 O4 1_555 1_555
Mg2B O1B 1_555 1_555
Mg2A O6 1_555 1_555
Mg2A_2 O10 1_555 1_555
Mg2C O6B 1_555 1_555
Mg2C_2 O10B 1_555 1_555
O1B C1B 1_555 1_555
O2B Mg2B 1_555 1_555
H1B O2B 1_555 1_555
H2B O2B 1_555 1_555
O3B Mg1 1_555 1_555
O4B Mg1 1_555 1_555
O5B C7B 1_555 1_555
O6B C7B 1_555 1_555
O6A Mg2 1_555 1_555
O6C Mg2B 1_555 1_555
O7B Mg2B 1_555 1_555
O8B Mg1 1_555 1_555
O9B H3B 1_555 1_555
O10B C13B 1_555 1_555
O10A Mg2 1_555 1_555
O10C Mg2B 1_555 1_555
N1B H4B 1_555 1_555
H5B N1B 1_555 1_555
N2B H6B 1_555 1_555
H7B N2B 1_555 1_555
C1B O3B 1_555 1_555
C2B C1B 1_555 1_555
C3B C2B 1_555 1_555
H8B C3B 1_555 1_555
C4B N1B 1_555 1_555
C5B C4B 1_555 1_555
H9B C5B 1_555 1_555
C6B C5B 1_555 1_555
C7B C6B 1_555 1_555
C8B C2B 1_555 1_555
H10B C8B 1_555 1_555
C9B O7B 1_555 1_555
C10B C9B 1_555 1_555
C11B C10B 1_555 1_555
H11B C11B 1_555 1_555
C12B C11B 1_555 1_555
C13B O9B 1_555 1_555
C14B C12B 1_555 1_555
H12B C14B 1_555 1_555
C15B N2B 1_555 1_555
C16B C10B 1_555 1_555
H13B C16B 1_555 1_555
H32B O4B 1_555 1_555
H33B O4B 1_555 1_555
Mg2 O4 1_555 1_555
O8 C9 1_555 1_555
C3 C4 1_555 1_555
C6 C8 1_555 1_555
C12 C13 1_555 1_555
C14 C15 1_555 1_555
C15 C16 1_555 1_555
Mg2B O4B 1_555 1_555
O8B C9B 1_555 1_555
C3B C4B 1_555 1_555
C6B C8B 1_555 1_555
C12B C13B 1_555 1_555
C14B C15B 1_555 1_555
C15B C16B 1_555 1_555

#END
