
#######################################################################
#
#                 Cambridge Crystallographic Data Centre
#                                CCDC 
#
#######################################################################
#
# If this CIF has been generated from an entry in the Cambridge 
# Structural Database, then it will include bibliographic, chemical, 
# crystal, experimental, refinement or atomic coordinate data resulting 
# from the CCDC's data processing and validation procedures.
#
#######################################################################

data_WASNOU
_symmetry_cell_setting           triclinic
_symmetry_space_group_name_H-M   'P -1'
_symmetry_Int_Tables_number      2
_space_group_name_Hall           '-P 1'
loop_
_symmetry_equiv_pos_site_id
_symmetry_equiv_pos_as_xyz
1 x,y,z
2 -x,-y,-z
_cell_length_a                   10.702(2)
_cell_length_b                   11.186(2)
_cell_length_c                   22.584(5)
_cell_angle_alpha                93.80(3)
_cell_angle_beta                 90.13(3)
_cell_angle_gamma                115.57(3)
_cell_volume                     2432
loop_
_atom_site_label
_atom_site_type_symbol
_atom_site_fract_x
_atom_site_fract_y
_atom_site_fract_z
C1 C -1.5652(5) 0.7063(4) -0.5441(2)
H1 H -1.6391 0.6860 -0.5189
C2 C -1.3909(5) 0.7036(4) -0.5898(2)
H2 H -1.3213 0.6797 -0.6020
C3 C -1.4117(5) 0.8051(5) -0.6096(2)
H3 H -1.3605 0.8627 -0.6375
C4 C -1.5702(6) 0.9105(5) -0.5790(3)
H4 H -1.6681 0.8726 -0.5706
H5 H -1.5591 0.9459 -0.6178
C5 C -1.4906(7) 1.0228(6) -0.5324(3)
H6 H -1.5215 1.0921 -0.5349
H7 H -1.3929 1.0605 -0.5410
C6 C -1.3552(4) 0.4966(4) -0.83503(16)
H8 H -1.4042 0.4045 -0.8392
C7 C -1.2152(5) 0.6922(5) -0.8032(2)
H9 H -1.1470 0.7627 -0.7806
C8 C -1.2851(5) 0.7046(5) -0.8497(2)
H10 H -1.2746 0.7834 -0.8651
C9 C -1.4746(4) 0.5390(4) -0.92063(16)
H11 H -1.4242 0.5593 -0.9571
H12 H -1.5306 0.4437 -0.9222
C10 C -1.5681(4) 0.6078(4) -0.91698(16)
H13 H -1.5117 0.7028 -0.9172
H14 H -1.6289 0.5798 -0.9522
C11 C -1.6565(4) 0.5814(4) -0.86251(17)
H15 H -1.5969 0.6114 -0.8270
H16 H -1.7134 0.4866 -0.8616
C12 C -1.7482(4) 0.6522(5) -0.86313(18)
H17 H -1.8121 0.6166 -0.8972
H18 H -1.6911 0.7456 -0.8680
C13 C -1.9612(4) 0.5605(5) -0.80407(17)
H19 H -2.0175 0.5004 -0.8342
C14 C -1.8895(4) 0.6730(5) -0.72091(19)
H20 H -1.8874 0.7059 -0.6818
C15 C -1.7787(4) 0.7141(5) -0.7571(2)
H21 H -1.6891 0.7784 -0.7478
C16 C -1.4824(4) 0.4734(4) -0.70596(17)
H22 H -1.4705 0.5340 -0.7342
C17 C -1.4500(4) 0.3416(5) -0.65063(18)
H23 H -1.4099 0.2931 -0.6332
C18 C -1.5754(4) 0.3363(5) -0.63851(19)
H24 H -1.6363 0.2848 -0.6111
C19 C -1.7181(4) 0.4480(5) -0.6772(2)
H25 H -1.7283 0.4879 -0.6391
H26 H -1.7033 0.5119 -0.7066
C20 C -1.8488(5) 0.3261(5) -0.6934(2)
H27 H -1.9250 0.3509 -0.6953
H28 H -1.8672 0.2656 -0.6622
C21 C -1.8447(5) 0.2550(5) -0.75122(19)
H29 H -1.8345 0.3123 -0.7831
H30 H -1.7647 0.2356 -0.7507
C22 C -1.9771(5) 0.1243(5) -0.76337(18)
H31 H -2.0569 0.1435 -0.7662
H32 H -1.9900 0.0682 -0.7308
C23 C -2.0048(4) 0.0699(4) -0.87269(16)
H33 H -2.0483 0.1237 -0.8804
C24 C -1.9036(4) -0.0301(4) -0.8256(2)
H34 H -1.8650 -0.0584 -0.7957
C25 C -1.9096(4) -0.0635(4) -0.88390(19)
H35 H -1.8757 -0.1205 -0.9016
C26 C -1.2055(4) 0.6041(4) -0.49502(16)
C27 C -1.0916(4) 0.5578(4) -0.49943(15)
C28 C -1.0308(4) 0.5478(4) -0.44711(15)
H36 H -1.0501 0.5820 -0.4115
C29 C -1.0590(3) 0.5126(4) -0.55311(15)
C30 C -1.1109(4) 0.5332(4) -0.61174(16)
C31 C -2.0719(4) -0.2789(4) -1.00829(15)
C32 C -2.0311(4) -0.3923(3) -1.00660(15)
C33 C -1.9172(4) -0.3948(3) -1.03364(15)
C34 C -2.1139(4) -0.4981(3) -0.97308(15)
H37 H -2.1912 -0.4965 -0.9550
C35 C -1.8235(5) -0.2913(4) -1.0739(2)
N1 N -1.5227(4) 0.8062(4) -0.58048(19)
N2 N -1.4880(3) 0.6413(3) -0.54907(15)
N3 N -1.3908(3) 0.4309(3) -0.69319(13)
N4 N -1.5962(3) 0.4197(4) -0.67369(14)
N5 N -1.9662(3) 0.0545(3) -0.81869(13)
N6 N -1.9734(3) -0.0007(3) -0.91347(13)
N7 N -1.2577(3) 0.5621(3) -0.79383(13)
N8 N -1.3749(3) 0.5788(3) -0.87001(13)
N9 N -1.8278(3) 0.6407(4) -0.80965(14)
N10 N -2.0041(3) 0.5764(3) -0.75057(13)
O1 O -1.1867(3) 0.7047(3) -0.46377(13)
O2 O -1.3173(3) 0.5225(3) -0.52138(12)
O3 O -1.1173(3) 0.6385(3) -0.61809(12)
O4 O -1.1393(3) 0.4402(3) -0.65255(10)
O5 O -1.9734(3) -0.1644(2) -1.01194(11)
O6 O -2.1955(3) -0.3039(3) -1.00514(17)
O7 O -1.8738(4) -0.2821(3) -1.12131(13)
O8 O -1.6998(4) -0.2280(4) -1.05745(17)
O9 O -1.2537(3) 0.2835(3) -0.77372(12)
Cu1 Cu -1.5000 0.5000 -0.5000
Cu2 Cu -1.20054(4) 0.48951(5) -0.725790(18)
Cu3 Cu -2.0000 0.0000 -1.0000
C1A C -1.4348(5) 1.2937(4) -0.4559(2)
H1A H -1.3609 1.3140 -0.4811
C2A C -1.6091(5) 1.2964(4) -0.4102(2)
H2A H -1.6787 1.3203 -0.3980
C3A C -1.5883(5) 1.1949(5) -0.3904(2)
H3A H -1.6395 1.1373 -0.3625
C4A C -1.4298(6) 1.0895(5) -0.4210(3)
H4A H -1.3319 1.1274 -0.4294
H5A H -1.4409 1.0541 -0.3822
C5A C -1.5094(7) 0.9772(6) -0.4676(3)
H6A H -1.4785 0.9079 -0.4651
H7A H -1.6071 0.9395 -0.4590
C6_2 C -0.3552(4) 0.4966(4) -0.83503(16)
H8_2 H -0.4042 0.4045 -0.8392
C7_2 C -0.2152(5) 0.6922(5) -0.8032(2)
H9_2 H -0.1470 0.7627 -0.7806
C8_2 C -0.2851(5) 0.7046(5) -0.8497(2)
H10_2 H -0.2746 0.7834 -0.8651
C9_2 C -0.4746(4) 0.5390(4) -0.92063(16)
H11_2 H -0.4242 0.5593 -0.9571
H12_2 H -0.5306 0.4437 -0.9222
C10_2 C -0.5681(4) 0.6078(4) -0.91698(16)
H13_2 H -0.5117 0.7028 -0.9172
H14_2 H -0.6289 0.5798 -0.9522
C11_2 C -0.6565(4) 0.5814(4) -0.86251(17)
H15_2 H -0.5969 0.6114 -0.8270
H16_2 H -0.7134 0.4866 -0.8616
C12_2 C -0.7482(4) 0.6522(5) -0.86313(18)
H17_2 H -0.8121 0.6166 -0.8972
H18_2 H -0.6911 0.7456 -0.8680
C13_2 C -0.9612(4) 0.5605(5) -0.80407(17)
H19_2 H -1.0175 0.5004 -0.8342
C14_2 C -0.8895(4) 0.6730(5) -0.72091(19)
H20_2 H -0.8874 0.7059 -0.6818
C15_2 C -0.7787(4) 0.7141(5) -0.7571(2)
H21_2 H -0.6891 0.7784 -0.7478
C16A C -0.5176(4) 0.5266(4) -0.29404(17)
H22A H -0.5295 0.4660 -0.2658
C17A C -0.5500(4) 0.6584(5) -0.34937(18)
H23A H -0.5901 0.7069 -0.3668
C18A C -0.4246(4) 0.6637(5) -0.36149(19)
H24A H -0.3637 0.7152 -0.3889
C19A C -0.2819(4) 0.5520(5) -0.3228(2)
H25A H -0.2717 0.5121 -0.3609
H26A H -0.2967 0.4881 -0.2934
C20A C -0.1512(5) 0.6739(5) -0.3066(2)
H27A H -0.0750 0.6491 -0.3047
H28A H -0.1328 0.7344 -0.3378
C21A C -0.1553(5) 0.7450(5) -0.24878(19)
H29A H -0.1655 0.6877 -0.2169
H30A H -0.2353 0.7644 -0.2493
C22A C -0.0229(5) 0.8757(5) -0.23663(18)
H31A H 0.0569 0.8565 -0.2338
H32A H -0.0100 0.9318 -0.2692
C23A C 0.0048(4) 0.9301(4) -0.12731(16)
H33A H 0.0483 0.8763 -0.1196
C24A C -0.0964(4) 1.0301(4) -0.1744(2)
H34A H -0.1350 1.0584 -0.2043
C25A C -0.0904(4) 1.0635(4) -0.11610(19)
H35A H -0.1243 1.1205 -0.0984
C26A C -0.7945(4) 0.3959(4) -0.50498(16)
C27A C -0.9084(4) 0.4422(4) -0.50057(15)
C28A C -0.9692(4) 0.4522(4) -0.55289(15)
H36A H -0.9499 0.4180 -0.5885
C29A C -0.9410(3) 0.4874(4) -0.44689(15)
C30A C -0.8891(4) 0.4668(4) -0.38826(16)
C31A C -1.9281(4) -0.7211(4) -0.99171(15)
C32A C -1.9689(4) -0.6077(3) -0.99340(15)
C33A C -2.0828(4) -0.6052(3) -0.96636(15)
C34A C -1.8861(4) -0.5019(3) -1.02692(15)
H37A H -1.8088 -0.5035 -1.0450
C35A C -2.1765(5) -0.7087(4) -0.9261(2)
N1A N -1.4773(4) 1.1938(4) -0.41952(19)
N2A N -1.5120(3) 1.3587(3) -0.45093(15)
N2A_2 N -1.5120(3) 0.3587(3) -0.45093(15)
N3A N -0.6092(3) 0.5691(3) -0.30681(13)
N4A N -0.4038(3) 0.5803(4) -0.32631(14)
N5A N -0.0338(3) 0.9455(3) -0.18131(13)
N6A N -0.0266(3) 1.0007(3) -0.08653(13)
N6A_2 N -2.0266(3) 0.0007(3) -1.08653(13)
N7_2 N -0.2577(3) 0.5621(3) -0.79383(13)
N7A N -0.7423(3) 0.4379(3) -0.20617(13)
N8_2 N -0.3749(3) 0.5788(3) -0.87001(13)
N9_2 N -0.8278(3) 0.6407(4) -0.80965(14)
N10_2 N -1.0041(3) 0.5764(3) -0.75057(13)
N10A N -0.9959(3) 0.4236(3) -0.24943(13)
O1A O -0.8133(3) 0.2953(3) -0.53623(13)
O2A O -0.6827(3) 0.4775(3) -0.47862(12)
O2A_2 O -1.6827(3) 0.4775(3) -0.47862(12)
O3A O -0.8827(3) 0.3615(3) -0.38191(12)
O4A O -0.8607(3) 0.5598(3) -0.34745(10)
O5A O -2.0266(3) -0.8356(2) -0.98806(11)
O5A_2 O -2.0266(3) 0.1644(2) -0.98806(11)
O6A O -1.8045(3) -0.6961(3) -0.99486(17)
O7A O -2.1262(4) -0.7179(3) -0.87869(13)
O8A O -2.3002(4) -0.7720(4) -0.94255(17)
O9A O -0.7463(3) 0.7165(3) -0.22628(12)
Cu1_2 Cu -1.5000 1.5000 -0.5000
Cu1_3 Cu -0.5000 0.5000 -0.5000
Cu2A Cu -0.79946(4) 0.51049(5) -0.274210(18)
Cu2_2 Cu -2.20054(4) 0.48951(5) -0.725790(18)
Cu2_3 Cu -0.20054(4) 0.48951(5) -0.725790(18)
Cu3_2 Cu -2.0000 -1.0000 -1.0000
Cu3_3 Cu 0.0000 1.0000 0.0000
O10 O -0.5461(5) 1.1901(5) 0.1064(3)
O11 O -0.6333(4) 1.0263(3) -0.11002(19)
O12 O -0.7574(5) 0.8623(5) -0.3418(3)
O13 O -0.5717(7) 1.0648(6) -0.2380(3)
O14 O -0.9151(4) 0.9102(4) -0.4282(2)
O15 O -0.9956(10) 1.0912(6) -0.3644(5)
O16 O -0.2169(5) 0.9429(5) -0.4690(3)
O17 O -0.5471(6) 1.1187(7) 0.2174(3)
O18 O -0.3747(4) 1.0975(4) -0.05235(18)
O19 O 0.2816(4) 1.1177(3) -0.00001(16)
O20 O -1.2538(13) 0.9867(10) -0.3240(6)
loop_
_geom_bond_atom_site_label_1
_geom_bond_atom_site_label_2
_geom_bond_site_symmetry_1
_geom_bond_site_symmetry_2
C1 H1 1_555 1_555
C2 H2 1_555 1_555
C3 C2 1_555 1_555
H3 C3 1_555 1_555
C4 H4 1_555 1_555
H5 C4 1_555 1_555
C5 C4 1_555 1_555
H6 C5 1_555 1_555
H7 C5 1_555 1_555
C6 H8 1_555 1_555
C7 H9 1_555 1_555
C8 C7 1_555 1_555
H10 C8 1_555 1_555
C9 H11 1_555 1_555
H12 C9 1_555 1_555
C10 C9 1_555 1_555
H13 C10 1_555 1_555
H14 C10 1_555 1_555
C11 C10 1_555 1_555
H15 C11 1_555 1_555
H16 C11 1_555 1_555
C12 C11 1_555 1_555
H17 C12 1_555 1_555
H18 C12 1_555 1_555
C13 H19 1_555 1_555
C14 H20 1_555 1_555
C15 C14 1_555 1_555
H21 C15 1_555 1_555
C16 H22 1_555 1_555
C17 H23 1_555 1_555
C18 C17 1_555 1_555
H24 C18 1_555 1_555
C19 H25 1_555 1_555
H26 C19 1_555 1_555
C20 C19 1_555 1_555
H27 C20 1_555 1_555
H28 C20 1_555 1_555
C21 C20 1_555 1_555
H29 C21 1_555 1_555
H30 C21 1_555 1_555
C22 C21 1_555 1_555
H31 C22 1_555 1_555
H32 C22 1_555 1_555
C23 H33 1_555 1_555
C24 H34 1_555 1_555
C25 C24 1_555 1_555
H35 C25 1_555 1_555
C26 C27 1_555 1_555
C27 C28 1_555 1_555
C28 H36 1_555 1_555
C29 C27 1_555 1_555
C30 C29 1_555 1_555
C31 C32 1_555 1_555
C32 C33 1_555 1_555
C33 C35 1_555 1_555
C34 C32 1_555 1_555
H37 C34 1_555 1_555
C35 O7 1_555 1_555
N1 C1 1_555 1_555
N2 C1 1_555 1_555
N3 C16 1_555 1_555
N4 C16 1_555 1_555
N5 C22 1_555 1_555
N6 C23 1_555 1_555
N7 C6 1_555 1_555
N8 C6 1_555 1_555
N9 C12 1_555 1_555
N10 C13 1_555 1_555
O1 C26 1_555 1_555
O2 C26 1_555 1_555
O3 C30 1_555 1_555
O4 C30 1_555 1_555
O5 C31 1_555 1_555
O6 C31 1_555 1_555
O8 C35 1_555 1_555
O9 Cu2 1_555 1_555
Cu1 N2 1_555 1_555
Cu2 N3 1_555 1_555
Cu3 N6 1_555 1_555
C1A H1A 1_555 1_555
C2A H2A 1_555 1_555
C3A C2A 1_555 1_555
H3A C3A 1_555 1_555
C4A H4A 1_555 1_555
H5A C4A 1_555 1_555
C5A C5 1_555 1_555
H6A C5A 1_555 1_555
H7A C5A 1_555 1_555
C6_2 H8_2 1_555 1_555
C7_2 H9_2 1_555 1_555
C8_2 C7_2 1_555 1_555
H10_2 C8_2 1_555 1_555
C9_2 H11_2 1_555 1_555
H12_2 C9_2 1_555 1_555
C10_2 C9_2 1_555 1_555
H13_2 C10_2 1_555 1_555
H14_2 C10_2 1_555 1_555
C11_2 C10_2 1_555 1_555
H15_2 C11_2 1_555 1_555
H16_2 C11_2 1_555 1_555
C12_2 C11_2 1_555 1_555
H17_2 C12_2 1_555 1_555
H18_2 C12_2 1_555 1_555
C13_2 H19_2 1_555 1_555
C14_2 H20_2 1_555 1_555
C15_2 C14_2 1_555 1_555
H21_2 C15_2 1_555 1_555
C16A H22A 1_555 1_555
C17A H23A 1_555 1_555
C18A C17A 1_555 1_555
H24A C18A 1_555 1_555
C19A H25A 1_555 1_555
H26A C19A 1_555 1_555
C20A C19A 1_555 1_555
H27A C20A 1_555 1_555
H28A C20A 1_555 1_555
C21A C20A 1_555 1_555
H29A C21A 1_555 1_555
H30A C21A 1_555 1_555
C22A C21A 1_555 1_555
H31A C22A 1_555 1_555
H32A C22A 1_555 1_555
C23A H33A 1_555 1_555
C24A H34A 1_555 1_555
C25A C24A 1_555 1_555
H35A C25A 1_555 1_555
C26A C27A 1_555 1_555
C27A C28A 1_555 1_555
C28A C29 1_555 1_555
H36A C28A 1_555 1_555
C29A C28 1_555 1_555
C30A C29A 1_555 1_555
C31A C32A 1_555 1_555
C32A C33A 1_555 1_555
C33A C34 1_555 1_555
C34A C33 1_555 1_555
H37A C34A 1_555 1_555
C35A C33A 1_555 1_555
N1A C1A 1_555 1_555
N2A C1A 1_555 1_555
N2A_2 Cu1 1_555 1_555
N3A C16A 1_555 1_555
N4A C16A 1_555 1_555
N5A C22A 1_555 1_555
N6A C23A 1_555 1_555
N6A_2 Cu3 1_555 1_555
N7_2 C6_2 1_555 1_555
N7A Cu2A 1_555 1_555
N8_2 C6_2 1_555 1_555
N9_2 C12_2 1_555 1_555
N10_2 Cu2 1_555 1_555
N10A Cu2A 1_555 1_555
O1A C26A 1_555 1_555
O2A C26A 1_555 1_555
O2A_2 Cu1 1_555 1_555
O3A C30A 1_555 1_555
O4A C30A 1_555 1_555
O5A C31A 1_555 1_555
O5A_2 Cu3 1_555 1_555
O6A C31A 1_555 1_555
O7A C35A 1_555 1_555
O8A C35A 1_555 1_555
O9A Cu2A 1_555 1_555
Cu1_2 N2A 1_555 1_555
Cu1_3 O2A 1_555 1_555
Cu2A N3A 1_555 1_555
Cu2_2 N10 1_555 1_555
Cu2_3 N7_2 1_555 1_555
Cu3_2 O5A 1_555 1_555
Cu3_3 N6A 1_555 1_555
C2 N2 1_555 1_555
C3 N1 1_555 1_555
C4 N1 1_555 1_555
C7 N7 1_555 1_555
C8 N8 1_555 1_555
C9 N8 1_555 1_555
C13 N9 1_555 1_555
C14 N10 1_555 1_555
C15 N9 1_555 1_555
C17 N3 1_555 1_555
C18 N4 1_555 1_555
C19 N4 1_555 1_555
C23 N5 1_555 1_555
C24 N5 1_555 1_555
C25 N6 1_555 1_555
N7 Cu2 1_555 1_555
O2 Cu1 1_555 1_555
O4 Cu2 1_555 1_555
O5 Cu3 1_555 1_555
C2A N2A 1_555 1_555
C3A N1A 1_555 1_555
C4A C5A 1_555 1_555
C4A N1A 1_555 1_555
C7_2 N7_2 1_555 1_555
C8_2 N8_2 1_555 1_555
C9_2 N8_2 1_555 1_555
C13_2 N9_2 1_555 1_555
C13_2 N10_2 1_555 1_555
C14_2 N10_2 1_555 1_555
C15_2 N9_2 1_555 1_555
C17A N3A 1_555 1_555
C18A N4A 1_555 1_555
C19A N4A 1_555 1_555
C23A N5A 1_555 1_555
C24A N5A 1_555 1_555
C25A N6A 1_555 1_555
C27A C29A 1_555 1_555
C32A C34A 1_555 1_555
O4A Cu2A 1_555 1_555

#END
