
#######################################################################
#
#                 Cambridge Crystallographic Data Centre
#                                CCDC 
#
#######################################################################
#
# If this CIF has been generated from an entry in the Cambridge 
# Structural Database, then it will include bibliographic, chemical, 
# crystal, experimental, refinement or atomic coordinate data resulting 
# from the CCDC's data processing and validation procedures.
#
#######################################################################

data_WAVQIV
_symmetry_cell_setting           cubic
_symmetry_space_group_name_H-M   'P 21 3'
_symmetry_Int_Tables_number      198
_space_group_name_Hall           'P 2ac 2ab 3'
loop_
_symmetry_equiv_pos_site_id
_symmetry_equiv_pos_as_xyz
1 x,y,z
2 1/2-x,-y,1/2+z
3 -x,1/2+y,1/2-z
4 1/2+x,1/2-y,-z
5 z,x,y
6 1/2+z,1/2-x,-y
7 1/2-z,-x,1/2+y
8 -z,1/2+x,1/2-y
9 y,z,x
10 -y,1/2+z,1/2-x
11 1/2+y,1/2-z,-x
12 1/2-y,-z,1/2+x
_cell_length_a                   27.1319(3)
_cell_length_b                   27.1319(3)
_cell_length_c                   27.1319(3)
_cell_angle_alpha                90
_cell_angle_beta                 90
_cell_angle_gamma                90
_cell_volume                     19972.9
loop_
_atom_site_label
_atom_site_type_symbol
_atom_site_fract_x
_atom_site_fract_y
_atom_site_fract_z
N1 N 0.2448(14) 0.3358(14) 0.1084(14)
Nd1 Nd 0.19779(2) 0.19779(2) 0.19779(2)
Nd2 Nd 0.33992(2) 0.33992(2) 0.33992(2)
In1 In 0.22321(3) 0.32037(3) 0.25583(3)
O1 O 0.2884(2) 0.2884(2) 0.2884(2)
O2 O 0.2491(2) 0.2767(3) 0.1941(3)
O3 O 0.1884(4) 0.3528(4) 0.3175(4)
O4 O 0.1587(4) 0.3405(4) 0.2154(5)
O5 O 0.1392(3) 0.2649(4) 0.1863(4)
O6 O 0.2517(4) 0.3872(3) 0.2296(5)
C1 C 0.0527(6) 0.3034(7) 0.1455(8)
H1 H 0.0599 0.2702 0.1407
C2 C 0.1318(6) 0.3091(6) 0.1903(7)
C3 C 0.0856(5) 0.3311(5) 0.1711(7)
C4 C 0.0106(6) 0.3206(6) 0.1269(7)
H2 H -0.0115 0.2997 0.1112
C5 C 0.0009(6) 0.3694(6) 0.1316(7)
C6 C 0.0318(7) 0.3975(7) 0.1588(8)
H3 H 0.0228 0.4296 0.1668
C7 C 0.0755(8) 0.3798(8) 0.1747(9)
H4 H 0.0987 0.4011 0.1882
C8 C 0.2988(6) 0.5151(5) 0.1605(6)
H5 H 0.2893 0.5214 0.1282
O7 O 0.2968(9) 0.4018(6) 0.2922(6)
C9 C 0.2833(6) 0.4738(5) 0.1835(6)
H6 H 0.2604 0.4541 0.1674
C10 C -0.0703(8) 0.4320(7) 0.1294(7)
H7 H -0.0576 0.4450 0.1585
C11 C -0.0472(8) 0.3902(8) 0.1085(8)
C12 C 0.3455(8) 0.5942(8) 0.1596(7)
C13 C 0.3282(8) 0.5472(6) 0.1846(6)
C14 C 0.2842(8) 0.4102(7) 0.2508(7)
C15 C 0.3191(9) 0.6167(9) 0.1226(9)
H8 H 0.2868 0.6069 0.1164
C16 C 0.2989(8) 0.4594(6) 0.2285(6)
C17 C 0.3232(8) 0.4939(8) 0.2549(10)
H9 H 0.3322 0.4879 0.2875
O8 O 0.2575(11) 0.3694(10) 0.3693(10)
C18 C 0.2105(10) 0.3705(10) 0.3565(10)
C19 C 0.3342(10) 0.5372(11) 0.2330(6)
H10 H 0.3468 0.5621 0.2528
C20 C 0.1280(6) 0.3813(8) 0.3983(9)
H11 H 0.1157 0.3662 0.3701
C21 C 0.1769(7) 0.3897(9) 0.4012(9)
C22 C 0.0687(12) 0.4356(12) 0.5038(11)
C23 C 0.0308(11) 0.4100(11) 0.5260(11)
H12 H 0.0231 0.3783 0.5153
C24 C 0.2030(9) 0.4108(8) 0.4380(9)
H13 H 0.2369 0.4159 0.4395
C25 C 0.0960(10) 0.3938(12) 0.4343(10)
H14 H 0.0623 0.3876 0.4333
C26 C 0.1687(9) 0.4229(12) 0.4720(13)
H15 H 0.1812 0.4381 0.5001
C27 C 0.1194(10) 0.4165(11) 0.4719(12)
O9 O 0.2012(6) 0.1088(6) 0.1701(6)
O10 O 0.3974(11) 0.3317(10) 0.4162(10)
Nd1B Nd -0.19779(2) 0.69779(2) 0.30221(2)
Nd1C Nd -0.30221(2) 0.30221(2) -0.19779(2)
Nd2A Nd 0.16008(2) 0.66008(2) -0.16008(2)
Nd2A_2 Nd 0.16008(2) 0.66008(2) 0.83992(2)
Nd2B Nd 0.66008(2) 0.83992(2) 0.16008(2)
Nd2C Nd -0.16008(2) 0.16008(2) 0.66008(2)
In1D In 0.25583(3) 0.22321(3) 0.32037(3)
In1H In 0.32037(3) 0.25583(3) 0.22321(3)
In1E In -0.24417(3) 0.27679(3) 0.67963(3)
In1F In 0.24417(3) 0.77679(3) -0.17963(3)
In1G In -0.25583(3) 0.72321(3) 0.17963(3)
In1I In 0.67963(3) 0.75583(3) 0.27679(3)
In1J In -0.17963(3) 0.24417(3) -0.22321(3)
In1K In 0.17963(3) 0.74417(3) 0.72321(3)
O2D O 0.1941(3) 0.2491(2) 0.2767(3)
O2H O 0.2767(3) 0.1941(3) 0.2491(2)
O3E O -0.1825(4) 0.3116(4) 0.6472(4)
O3K O 0.1472(4) 0.6825(4) 0.6884(4)
O3D O 0.3175(4) 0.1884(4) 0.3528(4)
O3H O 0.3528(4) 0.3175(4) 0.1884(4)
O4G O -0.2154(5) 0.6587(4) 0.1595(4)
O4J O -0.1595(4) 0.2846(5) -0.1587(4)
O4D O 0.2154(5) 0.1587(4) 0.3405(4)
O4H O 0.3405(4) 0.2154(5) 0.1587(4)
O5G O -0.1863(4) 0.6392(3) 0.2351(4)
O5J O -0.2351(4) 0.3137(4) -0.1392(3)
O5D O 0.1863(4) 0.1392(3) 0.2649(4)
O5H O 0.2649(4) 0.1863(4) 0.1392(3)
O6F O 0.2704(5) 0.7483(4) -0.1128(3)
O6I O 0.6128(3) 0.7296(5) 0.2483(4)
O6D O 0.2296(5) 0.2517(4) 0.3872(3)
O6H O 0.3872(3) 0.2296(5) 0.2517(4)
C1G C -0.1455(8) 0.5527(6) 0.1966(7)
C1J C -0.1966(7) 0.3545(8) -0.0527(6)
H1G H -0.1407 0.5599 0.2298
H1J H -0.2298 0.3593 -0.0599
C2G C -0.1903(7) 0.6318(6) 0.1909(6)
C2J C -0.1909(6) 0.3097(7) -0.1318(6)
C3G C -0.1711(7) 0.5856(5) 0.1689(5)
C3J C -0.1689(5) 0.3289(7) -0.0856(5)
C4G C -0.1269(7) 0.5106(6) 0.1794(6)
C4J C -0.1794(6) 0.3731(7) -0.0106(6)
H2G H -0.1112 0.4885 0.2003
H2J H -0.2003 0.3888 0.0115
C5G C -0.1316(7) 0.5009(6) 0.1306(6)
C5J C -0.1306(6) 0.3684(7) -0.0009(6)
C6G C -0.1588(8) 0.5318(7) 0.1025(7)
C6J C -0.1025(7) 0.3412(8) -0.0318(7)
H3G H -0.1668 0.5228 0.0704
H3J H -0.0704 0.3332 -0.0228
C7G C -0.1747(9) 0.5755(8) 0.1202(8)
C7J C -0.1202(8) 0.3253(9) -0.0755(8)
H4G H -0.1882 0.5987 0.0989
H4J H -0.0989 0.3118 -0.0987
C8F C 0.3395(6) 0.7012(6) 0.0151(5)
C8I C 0.4849(5) 0.6605(6) 0.2012(6)
H5F H 0.3718 0.7107 0.0214
H5I H 0.4786 0.6282 0.2107
O7F O 0.2078(6) 0.7032(9) -0.0982(6)
O7I O 0.5982(6) 0.7922(6) 0.2032(9)
O7D O 0.2922(6) 0.2968(9) 0.4018(6)
O7H O 0.4018(6) 0.2922(6) 0.2968(9)
C9F C 0.3165(6) 0.7167(6) -0.0262(5)
C9I C 0.5262(5) 0.6835(6) 0.2167(6)
H6F H 0.3326 0.7396 -0.0459
H6I H 0.5459 0.6674 0.2396
C10G C -0.1294(7) 0.4297(8) 0.0680(7)
C10J C -0.0680(7) 0.3706(7) 0.0703(8)
H7G H -0.1585 0.4424 0.0550
H7J H -0.0550 0.3415 0.0576
C11G C -0.1085(8) 0.4528(8) 0.1098(8)
C11J C -0.1098(8) 0.3915(8) 0.0472(8)
C12F C 0.3404(7) 0.6545(8) 0.0942(8)
C12I C 0.4058(8) 0.6596(7) 0.1545(8)
C13F C 0.3154(6) 0.6718(8) 0.0472(6)
C13I C 0.4528(6) 0.6846(6) 0.1718(8)
C14F C 0.2492(7) 0.7158(8) -0.0898(7)
C14I C 0.5898(7) 0.7508(7) 0.2158(8)
C15F C 0.3774(9) 0.6809(9) 0.1167(9)
C15I C 0.3833(9) 0.6226(9) 0.1809(9)
H8F H 0.3836 0.7132 0.1069
H8I H 0.3931 0.6164 0.2132
C16F C 0.2715(6) 0.7011(8) -0.0406(6)
C16I C 0.5406(6) 0.7285(6) 0.2011(8)
C17F C 0.2451(10) 0.6768(8) -0.0061(8)
C17I C 0.5061(8) 0.7549(10) 0.1768(8)
H9F H 0.2125 0.6678 -0.0121
H9I H 0.5121 0.7875 0.1678
O8E O -0.1307(10) 0.2425(11) 0.6306(10)
O8K O 0.1306(10) 0.6307(10) 0.7575(11)
O8D O 0.3693(10) 0.2575(11) 0.3694(10)
O8H O 0.3694(10) 0.3693(10) 0.2575(11)
C18E C -0.1435(10) 0.2895(10) 0.6295(10)
C18K C 0.1295(10) 0.6435(10) 0.7105(10)
C19F C 0.2670(6) 0.6658(10) 0.0372(11)
C19I C 0.4628(11) 0.7330(6) 0.1658(10)
H10F H 0.2472 0.6532 0.0621
H10I H 0.4379 0.7528 0.1532
C20E C -0.1017(9) 0.3720(6) 0.6187(8)
C20K C 0.1187(8) 0.6017(9) 0.6280(6)
H11E H -0.1299 0.3843 0.6338
H11K H 0.1338 0.6299 0.6157
C21E C -0.0988(9) 0.3231(7) 0.6103(9)
C21K C 0.1103(9) 0.5988(9) 0.6769(7)
C22E C 0.0038(11) 0.4313(12) 0.5644(12)
C22K C 0.0644(12) 0.4962(11) 0.5687(12)
C23E C 0.0260(11) 0.4692(11) 0.5900(11)
C23K C 0.0900(11) 0.4740(11) 0.5308(11)
H12E H 0.0153 0.4769 0.6217
H12K H 0.1217 0.4847 0.5231
C24E C -0.0620(9) 0.2970(9) 0.5892(8)
C24K C 0.0892(8) 0.5620(9) 0.7030(9)
H13E H -0.0605 0.2631 0.5841
H13K H 0.0841 0.5605 0.7369
C25E C -0.0657(10) 0.4040(10) 0.6062(12)
C25K C 0.1062(12) 0.5657(10) 0.5960(10)
H14E H -0.0667 0.4377 0.6124
H14K H 0.1124 0.5667 0.5623
C26E C -0.0280(13) 0.3313(9) 0.5771(12)
C26K C 0.0771(12) 0.5280(13) 0.6687(9)
H15E H 0.0001 0.3188 0.5619
H15K H 0.0619 0.4999 0.6812
C27E C -0.0281(12) 0.3806(10) 0.5835(11)
C27K C 0.0835(11) 0.5281(12) 0.6194(10)
O9D O 0.1701(6) 0.2012(6) 0.1088(6)
O9H O 0.1088(6) 0.1701(6) 0.2012(6)
O10D O 0.4162(10) 0.3974(11) 0.3317(10)
O10H O 0.3317(10) 0.4162(10) 0.3974(11)
loop_
_geom_bond_atom_site_label_1
_geom_bond_atom_site_label_2
_geom_bond_site_symmetry_1
_geom_bond_site_symmetry_2
Nd1 O2 1_555 1_555
Nd2 O1 1_555 1_555
In1 O1 1_555 1_555
O1 In1D 1_555 1_555
O2 In1 1_555 1_555
O3 In1 1_555 1_555
O4 In1 1_555 1_555
O5 Nd1 1_555 1_555
O6 In1 1_555 1_555
C1 H1 1_555 1_555
C2 O4 1_555 1_555
C3 C1 1_555 1_555
C4 C1 1_555 1_555
H2 C4 1_555 1_555
C5 C4 1_555 1_555
C6 C5 1_555 1_555
H3 C6 1_555 1_555
C7 C3 1_555 1_555
H4 C7 1_555 1_555
C8 H5 1_555 1_555
O7 Nd2 1_555 1_555
C9 C8 1_555 1_555
H6 C9 1_555 1_555
C10 H7 1_555 1_555
C11 C5 1_555 1_555
C12 C13 1_555 1_555
C13 C8 1_555 1_555
C14 O6 1_555 1_555
C15 C12 1_555 1_555
H8 C15 1_555 1_555
C16 C9 1_555 1_555
C17 C16 1_555 1_555
H9 C17 1_555 1_555
O8 Nd2 1_555 1_555
C18 O3 1_555 1_555
C19 C13 1_555 1_555
H10 C19 1_555 1_555
C20 H11 1_555 1_555
C21 C18 1_555 1_555
C22 C23 1_555 1_555
C23 H12 1_555 1_555
C24 C21 1_555 1_555
H13 C24 1_555 1_555
C25 C20 1_555 1_555
H14 C25 1_555 1_555
C26 C24 1_555 1_555
H15 C26 1_555 1_555
C27 C22 1_555 1_555
O9 Nd1 1_555 1_555
O10 Nd2 1_555 1_555
Nd1B O5G 1_555 1_555
Nd1C O5J 1_555 1_555
Nd2A O7F 1_555 1_555
Nd2A_2 O8K 1_555 1_555
Nd2B O7I 1_555 1_555
Nd2C O8E 1_555 1_555
In1D O2D 1_555 1_555
In1H O1 1_555 1_555
In1E O3E 1_555 1_555
In1F O6F 1_555 1_555
In1G O4G 1_555 1_555
In1I O6I 1_555 1_555
In1J O4J 1_555 1_555
In1K O3K 1_555 1_555
O2D Nd1 1_555 1_555
O2H Nd1 1_555 1_555
O3E C18E 1_555 1_555
O3K C18K 1_555 1_555
O3D In1D 1_555 1_555
O3H In1H 1_555 1_555
O4G C2G 1_555 1_555
O4J C2J 1_555 1_555
O4D In1D 1_555 1_555
O4H In1H 1_555 1_555
O5G C2G 1_555 1_555
O5J C2J 1_555 1_555
O5D Nd1 1_555 1_555
O5H Nd1 1_555 1_555
O6F C14F 1_555 1_555
O6I C14I 1_555 1_555
O6D In1D 1_555 1_555
O6H In1H 1_555 1_555
C1G H1G 1_555 1_555
C1J H1J 1_555 1_555
C2G C3G 1_555 1_555
C2J C3J 1_555 1_555
C3G C1G 1_555 1_555
C3J C1J 1_555 1_555
C4G C1G 1_555 1_555
C4J C1J 1_555 1_555
H2G C4G 1_555 1_555
H2J C4J 1_555 1_555
C5G C4G 1_555 1_555
C5J C4J 1_555 1_555
C6G C5G 1_555 1_555
C6J C5J 1_555 1_555
H3G C6G 1_555 1_555
H3J C6J 1_555 1_555
C7G C3G 1_555 1_555
C7J C3J 1_555 1_555
H4G C7G 1_555 1_555
H4J C7J 1_555 1_555
C8F H5F 1_555 1_555
C8I H5I 1_555 1_555
O7F C14F 1_555 1_555
O7I C14I 1_555 1_555
O7D Nd2 1_555 1_555
O7H Nd2 1_555 1_555
C9F C8F 1_555 1_555
C9I C8I 1_555 1_555
H6F C9F 1_555 1_555
H6I C9I 1_555 1_555
C10G H7G 1_555 1_555
C10J C11 1_555 1_555
H7J C10J 1_555 1_555
C11G C10 1_555 1_555
C11J C5J 1_555 1_555
C12F C15 1_555 1_555
C12I C13I 1_555 1_555
C13F C8F 1_555 1_555
C13I C8I 1_555 1_555
C14F C16F 1_555 1_555
C14I C16I 1_555 1_555
C15F C12F 1_555 1_555
C15I C12 1_555 1_555
H8F C15F 1_555 1_555
H8I C15I 1_555 1_555
C16F C9F 1_555 1_555
C16I C9I 1_555 1_555
C17F C16F 1_555 1_555
C17I C16I 1_555 1_555
H9F C17F 1_555 1_555
H9I C17I 1_555 1_555
O8E C18E 1_555 1_555
O8K C18K 1_555 1_555
O8D Nd2 1_555 1_555
O8H Nd2 1_555 1_555
C18E C21E 1_555 1_555
C18K C21K 1_555 1_555
C19F C13F 1_555 1_555
C19I C13I 1_555 1_555
H10F C19F 1_555 1_555
H10I C19I 1_555 1_555
C20E H11E 1_555 1_555
C20K H11K 1_555 1_555
C21E C20E 1_555 1_555
C21K C20K 1_555 1_555
C22E C23 1_555 1_555
C22K C23E 1_555 1_555
C23E C22E 1_555 1_555
C23K C22 1_555 1_555
H12E C23E 1_555 1_555
H12K C23K 1_555 1_555
C24E C21E 1_555 1_555
C24K C21K 1_555 1_555
H13E C24E 1_555 1_555
H13K C24K 1_555 1_555
C25E C20E 1_555 1_555
C25K C20K 1_555 1_555
H14E C25E 1_555 1_555
H14K C25K 1_555 1_555
C26E C24E 1_555 1_555
C26K C24K 1_555 1_555
H15E C26E 1_555 1_555
H15K C26K 1_555 1_555
C27E C22E 1_555 1_555
C27K C22K 1_555 1_555
O9D Nd1 1_555 1_555
O9H Nd1 1_555 1_555
O10D Nd2 1_555 1_555
O10H Nd2 1_555 1_555
In1 O2D 1_555 1_555
O2 In1H 1_555 1_555
O5 C2 1_555 1_555
C2 C3 1_555 1_555
C6 C7 1_555 1_555
O7 C14 1_555 1_555
C10 C11 1_555 1_555
C14 C16 1_555 1_555
C17 C19 1_555 1_555
O8 C18 1_555 1_555
C20 C21 1_555 1_555
C25 C27 1_555 1_555
C26 C27 1_555 1_555
In1D O2H 1_555 1_555
In1H O2H 1_555 1_555
C5G C11G 1_555 1_555
C6G C7G 1_555 1_555
C6J C7J 1_555 1_555
C10G C11G 1_555 1_555
C10G C11J 1_555 1_555
C10J C11J 1_555 1_555
C12F C13F 1_555 1_555
C12I C15F 1_555 1_555
C12I C15I 1_555 1_555
C17F C19F 1_555 1_555
C17I C19I 1_555 1_555
C22K C23K 1_555 1_555
C25E C27E 1_555 1_555
C25K C27K 1_555 1_555
C26E C27E 1_555 1_555
C26K C27K 1_555 1_555

#END
