
#######################################################################
#
#                 Cambridge Crystallographic Data Centre
#                                CCDC 
#
#######################################################################
#
# If this CIF has been generated from an entry in the Cambridge 
# Structural Database, then it will include bibliographic, chemical, 
# crystal, experimental, refinement or atomic coordinate data resulting 
# from the CCDC's data processing and validation procedures.
#
#######################################################################

data_WAVROC
_symmetry_cell_setting           rhombohedral
_symmetry_space_group_name_H-M   'R -3 c'
_symmetry_Int_Tables_number      167
_space_group_name_Hall           '-R 3 2"c'
loop_
_symmetry_equiv_pos_site_id
_symmetry_equiv_pos_as_xyz
1 x,y,z
2 -y,x-y,z
3 -x+y,-x,z
4 y,x,1/2-z
5 x-y,-y,1/2-z
6 -x,-x+y,1/2-z
7 2/3+x,1/3+y,1/3+z
8 2/3-y,1/3+x-y,1/3+z
9 2/3-x+y,1/3-x,1/3+z
10 2/3+y,1/3+x,5/6-z
11 2/3+x-y,1/3-y,5/6-z
12 2/3-x,1/3-x+y,5/6-z
13 1/3+x,2/3+y,2/3+z
14 1/3-y,2/3+x-y,2/3+z
15 1/3-x+y,2/3-x,2/3+z
16 1/3+y,2/3+x,1/6-z
17 1/3+x-y,2/3-y,1/6-z
18 1/3-x,2/3-x+y,1/6-z
19 -x,-y,-z
20 y,-x+y,-z
21 x-y,x,-z
22 -y,-x,1/2+z
23 -x+y,y,1/2+z
24 x,x-y,1/2+z
25 1/3-x,2/3-y,2/3-z
26 1/3+y,2/3-x+y,2/3-z
27 1/3+x-y,2/3+x,2/3-z
28 1/3-y,2/3-x,1/6+z
29 1/3-x+y,2/3+y,1/6+z
30 1/3+x,2/3+x-y,1/6+z
31 2/3-x,1/3-y,1/3-z
32 2/3+y,1/3-x+y,1/3-z
33 2/3+x-y,1/3+x,1/3-z
34 2/3-y,1/3-x,5/6+z
35 2/3-x+y,1/3+y,5/6+z
36 2/3+x,1/3+x-y,5/6+z
_cell_length_a                   32.2214(3)
_cell_length_b                   32.2214(3)
_cell_length_c                   92.442(2)
_cell_angle_alpha                90
_cell_angle_beta                 90
_cell_angle_gamma                120
_cell_volume                     83116.8
loop_
_atom_site_label
_atom_site_type_symbol
_atom_site_fract_x
_atom_site_fract_y
_atom_site_fract_z
In1 In 0.640181(9) 0.626293(9) 0.067053(3)
Mg1 Mg 0.56597(4) 0.55478(5) 0.096960(13)
O1 O 0.63735(9) 0.55938(9) 0.06680(3)
O2 O 0.59064(10) 0.51701(10) 0.08547(3)
O3 O 0.90793(10) 0.58797(12) -0.08125(3)
O4 O 0.94922(9) 0.64109(10) -0.06355(3)
O5 O 0.47046(9) 0.44338(11) -0.07934(3)
O6 O 0.43160(9) 0.40658(11) -0.05893(3)
O7 O 0.66872(10) 0.63232(9) 0.04594(3)
O8 O 0.73080(10) 0.62147(10) 0.05154(3)
O9 O 0.71132(8) 0.66589(8) 0.07668(2)
C1 C 0.65366(14) 0.36880(14) 0.06163(5)
C2 C 0.70258(15) 0.37981(16) 0.06153(5)
H1 H 0.7266 0.4119 0.0614
C3 C 0.60496(16) 0.39976(16) 0.07287(5)
H2 H 0.5863 0.3696 0.0770
C4 C 0.66770(15) 0.45191(15) 0.05712(5)
H3 H 0.6920 0.4578 0.0506
C5 C 0.62320(14) 0.48133(14) 0.07033(4)
C6 C 0.59569(15) 0.43652(15) 0.07648(5)
H4 H 0.5713 0.4309 0.0830
C7 C 0.61587(15) 0.52204(14) 0.07464(5)
C8 C 0.65814(15) 0.48823(15) 0.06056(5)
H5 H 0.6758 0.5180 0.0562
C9 C 0.64149(15) 0.40743(14) 0.06330(5)
C10 C 0.86549(17) 0.6208(2) -0.04976(6)
H6 H 0.8935 0.6484 -0.0471
C11 C 0.91014(15) 0.60810(19) -0.06963(5)
C12 C 0.86544(15) 0.5946(2) -0.06112(5)
C13 C 0.82351(17) 0.5533(2) -0.06451(6)
H7 H 0.8232 0.5348 -0.0723
C14 C 0.82323(19) 0.6062(3) -0.04195(6)
H8 H 0.8240 0.6246 -0.0341
C15 C 0.73697(16) 0.5520(2) -0.03700(5)
C16 C 0.78181(17) 0.5669(2) -0.04531(5)
C17 C 0.78216(17) 0.5386(2) -0.05678(5)
H9 H 0.7546 0.5100 -0.0591
C18 C 0.51632(15) 0.45084(18) -0.05882(5)
C19 C 0.55765(16) 0.4787(2) -0.06614(5)
H10 H 0.5567 0.4847 -0.0759
C20 C 0.51797(15) 0.4396(2) -0.04436(5)
H11 H 0.4898 0.4187 -0.0395
C21 C 0.46931(15) 0.43253(16) -0.06663(5)
C22 C 0.69330(17) 0.5264(2) -0.04393(5)
H12 H 0.6924 0.5175 -0.0535
C23 C 0.60178(17) 0.4983(2) -0.05895(5)
H13 H 0.6301 0.5171 -0.0640
C24 C 0.64985(17) 0.5134(2) -0.03661(5)
C25 C 0.60337(16) 0.4899(2) -0.04437(5)
C26 C 0.56113(17) 0.4595(2) -0.03720(5)
H14 H 0.5619 0.4524 -0.0275
C27 C 0.66565(18) 0.5849(3) 0.00429(5)
H15 H 0.6428 0.5832 -0.0022
C28 C 0.69665(16) 0.5536(3) -0.01517(5)
C29 C 0.65192(17) 0.5263(2) -0.02232(5)
H16 H 0.6237 0.5171 -0.0173
C30 C 0.70055(16) 0.62073(15) 0.04306(4)
C31 C 0.73748(17) 0.5640(2) -0.02269(5)
H17 H 0.7668 0.5799 -0.0179
C32 C 0.69773(16) 0.5717(2) -0.00027(5)
C33 C 0.73152(17) 0.5750(2) 0.00947(5)
H18 H 0.7542 0.5669 0.0066
C34 C 0.73214(16) 0.59029(19) 0.02355(5)
H19 H 0.7545 0.5914 0.0301
C35 C 0.69962(15) 0.60379(18) 0.02777(4)
C36 C 0.66572(16) 0.6005(2) 0.01812(5)
H20 H 0.6431 0.6088 0.0209
O10 O 0.50944(11) 0.48930(13) 0.10360(3)
O11 O 0.53676(12) 0.59003(11) 0.10844(3)
C1B C 0.71514(20) 0.34634(14) 0.06163(5)
C2B C 0.67723(22) 0.29742(15) 0.06153(5)
C1A C 0.63120(14) 0.28486(20) 0.06163(5)
C2A C 0.62019(16) 0.32277(22) 0.06153(5)
H1A H 0.5881 0.3147 0.0614
C9A C 0.59257(14) 0.23406(21) 0.06330(5)
C3A C 0.60024(16) 0.20520(23) 0.07287(5)
H2A H 0.6304 0.2167 0.0770
C6A C 0.56348(15) 0.15917(21) 0.07648(5)
C5A C 0.51867(14) 0.14187(20) 0.07033(4)
C7A C 0.47796(14) 0.09383(21) 0.07464(5)
O1A O 0.44062(9) 0.07797(13) 0.06680(3)
O2A O 0.48299(10) 0.07363(14) 0.08547(3)
C8A C 0.51177(15) 0.16991(21) 0.06056(5)
C4A C 0.54809(15) 0.21579(21) 0.05712(5)
H3A H 0.5422 0.2342 0.0506
H5A H 0.4820 0.1578 0.0562
H4A H 0.5691 0.1404 0.0830
H1B H 0.6853 0.2734 0.0614
C9B C 0.76594(21) 0.35851(15) 0.06330(5)
C3B C 0.79480(23) 0.39504(16) 0.07287(5)
H2B H 0.7833 0.4137 0.0770
C6B C 0.84083(21) 0.40431(15) 0.07648(5)
C5B C 0.85813(20) 0.37680(14) 0.07033(4)
C7B C 0.90617(21) 0.38413(15) 0.07464(5)
O1B O 0.92203(13) 0.36265(9) 0.06680(3)
O2B O 0.92637(14) 0.40936(10) 0.08547(3)
C8B C 0.83009(21) 0.34186(15) 0.06056(5)
C4B C 0.78421(21) 0.33230(15) 0.05712(5)
H3B H 0.7658 0.3080 0.0506
H5B H 0.8422 0.3242 0.0562
H4B H 0.8596 0.4287 0.0830
O3R O 0.09207(10) 0.41203(12) 0.08125(3)
O4R O 0.05078(9) 0.35891(10) 0.06355(3)
O5R O 0.52954(9) 0.55662(11) 0.07934(3)
O6R O 0.56840(9) 0.59342(11) 0.05893(3)
O7R O 0.33128(10) 0.36768(9) -0.04594(3)
O8R O 0.26920(10) 0.37853(10) -0.05154(3)
C10R C 0.13451(17) 0.3792(2) 0.04976(6)
H6R H 0.1065 0.3516 0.0471
C11R C 0.08986(15) 0.39190(19) 0.06963(5)
C12R C 0.13456(15) 0.4054(2) 0.06112(5)
C13R C 0.17649(17) 0.4467(2) 0.06451(6)
H7R H 0.1768 0.4652 0.0723
C14R C 0.17677(19) 0.3938(3) 0.04195(6)
H8R H 0.1760 0.3754 0.0341
C15R C 0.26303(16) 0.4480(2) 0.03700(5)
C16R C 0.21819(17) 0.4331(2) 0.04531(5)
C17R C 0.21784(17) 0.4614(2) 0.05678(5)
H9R H 0.2454 0.4900 0.0591
C18R C 0.48368(15) 0.54916(18) 0.05882(5)
C19R C 0.44235(16) 0.5213(2) 0.06614(5)
H10R H 0.4433 0.5153 0.0759
C20R C 0.48203(15) 0.5604(2) 0.04436(5)
H11R H 0.5102 0.5813 0.0395
C21R C 0.53069(15) 0.56747(16) 0.06663(5)
C22R C 0.30670(17) 0.4736(2) 0.04393(5)
H12R H 0.3076 0.4825 0.0535
C23R C 0.39822(17) 0.5017(2) 0.05895(5)
H13R H 0.3699 0.4829 0.0640
C24R C 0.35015(17) 0.4866(2) 0.03661(5)
C25R C 0.39663(16) 0.5101(2) 0.04437(5)
C26R C 0.43887(17) 0.5405(2) 0.03720(5)
H14R H 0.4381 0.5476 0.0275
C27R C 0.33435(18) 0.4151(3) -0.00429(5)
H15R H 0.3572 0.4168 0.0022
C28R C 0.30335(16) 0.4464(3) 0.01517(5)
C29R C 0.34808(17) 0.4737(2) 0.02232(5)
H16R H 0.3763 0.4829 0.0173
C30R C 0.29945(16) 0.37927(15) -0.04306(4)
C31R C 0.26252(17) 0.4360(2) 0.02269(5)
H17R H 0.2332 0.4201 0.0179
C32R C 0.30227(16) 0.4283(2) 0.00027(5)
C33R C 0.26848(17) 0.4250(2) -0.00947(5)
H18R H 0.2458 0.4331 -0.0066
C34R C 0.26786(16) 0.40971(19) -0.02355(5)
H19R H 0.2455 0.4086 -0.0301
C35R C 0.30038(15) 0.39621(18) -0.02777(4)
C36R C 0.33428(16) 0.3995(2) -0.01812(5)
H20R H 0.3569 0.3912 -0.0209
O3S O 0.58797(12) 0.68004(16) 0.08125(3)
O4S O 0.64109(10) 0.69187(13) 0.06355(3)
O5S O 0.44338(11) 0.97292(14) 0.07934(3)
O6S O 0.40658(11) 0.97498(14) 0.05893(3)
O7S O 0.63232(9) 0.96360(13) -0.04594(3)
O8S O 0.62147(10) 0.89067(14) -0.05154(3)
C10S C 0.6208(2) 0.75531(26) 0.04976(6)
H6S H 0.6484 0.7549 0.0471
C11S C 0.60810(19) 0.69796(24) 0.06963(5)
C12S C 0.5946(2) 0.72916(25) 0.06112(5)
C13S C 0.5533(2) 0.72979(26) 0.06451(6)
H7S H 0.5348 0.7116 0.0723
C14S C 0.6062(3) 0.78297(36) 0.04195(6)
H8S H 0.6246 0.8006 0.0341
C15S C 0.5520(2) 0.81503(26) 0.03700(5)
C16S C 0.5669(2) 0.78509(26) 0.04531(5)
C17S C 0.5386(2) 0.75644(26) 0.05678(5)
H9S H 0.5100 0.7554 0.0591
C18S C 0.45084(18) 0.93452(23) 0.05882(5)
C19S C 0.4787(2) 0.92105(26) 0.06614(5)
H10S H 0.4847 0.9280 0.0759
C20S C 0.4396(2) 0.92163(25) 0.04436(5)
H11S H 0.4187 0.9289 0.0395
C21S C 0.43253(16) 0.96322(22) 0.06663(5)
C22S C 0.5264(2) 0.83310(26) 0.04393(5)
H12S H 0.5175 0.8251 0.0535
C23S C 0.4983(2) 0.89652(26) 0.05895(5)
H13S H 0.5171 0.8870 0.0640
C24S C 0.5134(2) 0.86355(26) 0.03661(5)
C25S C 0.4899(2) 0.88653(26) 0.04437(5)
C26S C 0.4595(2) 0.89837(26) 0.03720(5)
H14S H 0.4524 0.8905 0.0275
C27S C 0.5849(3) 0.91925(35) -0.00429(5)
H15S H 0.5832 0.9404 0.0022
C28S C 0.5536(3) 0.85695(34) 0.01517(5)
C29S C 0.5263(2) 0.87438(26) 0.02232(5)
H16S H 0.5171 0.8934 0.0173
C30S C 0.62073(15) 0.92018(22) -0.04306(4)
C31S C 0.5640(2) 0.82652(26) 0.02269(5)
H17S H 0.5799 0.8131 0.0179
C32S C 0.5717(2) 0.87397(26) 0.00027(5)
C33S C 0.5750(2) 0.84348(26) -0.00947(5)
H18S H 0.5669 0.8127 -0.0066
C34S C 0.59029(19) 0.85815(25) -0.02355(5)
H19S H 0.5914 0.8369 -0.0301
C35S C 0.60379(18) 0.90417(23) -0.02777(4)
C36S C 0.6005(2) 0.93478(26) -0.01812(5)
H20S H 0.6088 0.9657 -0.0209
O9Q O 0.62201(8) 0.62124(11) 0.08999(2)
In1A In 0.373707(9) 0.013888(13) 0.067053(3)
In1B In 0.986112(13) 0.359819(9) 0.067053(3)
Mg1A Mg 0.44522(5) 0.01119(6) 0.096960(13)
Mg1B Mg 0.98881(6) 0.43403(4) 0.096960(13)
O10A O 0.51070(13) 0.02014(17) 0.10360(3)
O11A O 0.40997(11) -0.05327(16) 0.10844(3)
O10B O 0.97986(17) 0.49056(11) 0.10360(3)
O11B O 1.05327(16) 0.46324(12) 0.10844(3)
O8Q O 0.60253(10) 0.55734(14) 0.11513(3)
In1T In 1.013888(13) 0.640181(9) -0.067053(3)
Mg1R Mg 0.43403(4) 0.44522(5) -0.096960(13)
In1R In 0.359819(9) 0.373707(9) -0.067053(3)
Mg1Q Mg 0.76736(4) 0.65548(6) 0.069707(13)
In1Q In 0.693152(9) 0.652779(13) 0.099614(3)
In1B_2 In -0.013888(13) 0.359819(9) 0.067053(3)
Mg1IA Mg 0.23264(4) 0.34452(6) -0.069707(13)
Mg1A_2 Mg 0.44522(5) 1.01119(6) 0.096960(13)
In1A_2 In 0.373707(9) 1.013888(13) 0.067053(3)
In1S In 0.626293(9) 0.986112(13) -0.067053(3)
Mg1HA Mg 0.65548(6) 0.88811(5) -0.069707(13)
O9P O 0.37876(11) 0.00078(8) 0.08999(2)
O9O O 0.99922(8) 0.37799(8) 0.08999(2)
O5S_2 O 0.44338(11) -0.02708(14) 0.07934(3)
O8P O 0.44266(14) 0.04520(10) 0.11513(3)
O5T O 1.02708(14) 0.47046(9) 0.07934(3)
O8O O 0.95480(10) 0.39747(10) 0.11513(3)
O9IA O 0.37799(8) 0.37876(11) -0.08999(2)
O1R O 0.36265(9) 0.44062(9) -0.06680(3)
O4A O 0.35891(10) 0.30813(13) -0.06355(3)
O9R O 0.28868(8) 0.33411(8) -0.07668(2)
O9P_2 O 0.37876(11) 1.00078(8) 0.08999(2)
O1A_2 O 0.44062(9) 1.07797(13) 0.06680(3)
O4T O 0.30813(13) 0.94922(9) 0.06355(3)
O7A O 0.36768(9) 1.03640(13) 0.04594(3)
O9A O 0.33411(8) 1.04543(11) 0.07668(2)
In1IA In 0.306848(9) 0.347221(13) -0.099614(3)
O12 O 0.8392(4) 0.8056(4) 0.07220(11)
O13 O 0.5543(4) 0.4777(4) 0.02142(12)
O14 O 0.4584(4) 0.5546(4) -0.00150(11)
O15 O 0.8029(4) 0.5571(4) 0.04942(11)
loop_
_geom_bond_atom_site_label_1
_geom_bond_atom_site_label_2
_geom_bond_site_symmetry_1
_geom_bond_site_symmetry_2
In1 O1 1_555 1_555
Mg1 O2 1_555 1_555
O1 C7 1_555 1_555
O2 C7 1_555 1_555
O3 C11 1_555 1_555
O4 C11 1_555 1_555
O5 C21 1_555 1_555
O6 C21 1_555 1_555
O7 In1 1_555 1_555
O8 C30 1_555 1_555
O9 In1 1_555 1_555
C1 C2 1_555 1_555
C2 H1 1_555 1_555
C3 H2 1_555 1_555
C4 H3 1_555 1_555
C5 C6 1_555 1_555
C6 C3 1_555 1_555
H4 C6 1_555 1_555
C7 C5 1_555 1_555
C8 C4 1_555 1_555
H5 C8 1_555 1_555
C9 C1 1_555 1_555
C10 H6 1_555 1_555
C11 C12 1_555 1_555
C12 C10 1_555 1_555
C13 C12 1_555 1_555
H7 C13 1_555 1_555
C14 C10 1_555 1_555
H8 C14 1_555 1_555
C15 C16 1_555 1_555
C16 C14 1_555 1_555
C17 C13 1_555 1_555
H9 C17 1_555 1_555
C18 C19 1_555 1_555
C19 H10 1_555 1_555
C20 C18 1_555 1_555
H11 C20 1_555 1_555
C21 C18 1_555 1_555
C22 C15 1_555 1_555
H12 C22 1_555 1_555
C23 C19 1_555 1_555
H13 C23 1_555 1_555
C24 C22 1_555 1_555
C25 C23 1_555 1_555
C26 C20 1_555 1_555
H14 C26 1_555 1_555
C27 H15 1_555 1_555
C28 C29 1_555 1_555
C29 C24 1_555 1_555
H16 C29 1_555 1_555
C30 O7 1_555 1_555
C31 C15 1_555 1_555
H17 C31 1_555 1_555
C32 C27 1_555 1_555
C33 C32 1_555 1_555
H18 C33 1_555 1_555
C34 C33 1_555 1_555
H19 C34 1_555 1_555
C35 C30 1_555 1_555
C36 C27 1_555 1_555
H20 C36 1_555 1_555
O10 Mg1 1_555 1_555
O11 Mg1 1_555 1_555
C1B C2 1_555 1_555
C2B C1B 1_555 1_555
C1A C2B 1_555 1_555
C2A C1 1_555 1_555
H1A C2A 1_555 1_555
C9A C1A 1_555 1_555
C3A C9A 1_555 1_555
H2A C3A 1_555 1_555
C6A C3A 1_555 1_555
C5A C6A 1_555 1_555
C7A C5A 1_555 1_555
O1A C7A 1_555 1_555
O2A C7A 1_555 1_555
C8A C5A 1_555 1_555
C4A C9A 1_555 1_555
H3A C4A 1_555 1_555
H5A C8A 1_555 1_555
H4A C6A 1_555 1_555
H1B C2B 1_555 1_555
C9B C1B 1_555 1_555
C3B C9B 1_555 1_555
H2B C3B 1_555 1_555
C6B C3B 1_555 1_555
C5B C6B 1_555 1_555
C7B C5B 1_555 1_555
O1B C7B 1_555 1_555
O2B C7B 1_555 1_555
C8B C5B 1_555 1_555
C4B C9B 1_555 1_555
H3B C4B 1_555 1_555
H5B C8B 1_555 1_555
H4B C6B 1_555 1_555
O3R C11R 1_555 1_555
O4R C11R 1_555 1_555
O5R Mg1 1_555 1_555
O6R In1 1_555 1_555
O7R C30R 1_555 1_555
O8R C30R 1_555 1_555
C10R H6R 1_555 1_555
C11R C12R 1_555 1_555
C12R C10R 1_555 1_555
C13R C12R 1_555 1_555
H7R C13R 1_555 1_555
C14R C10R 1_555 1_555
H8R C14R 1_555 1_555
C15R C16R 1_555 1_555
C16R C14R 1_555 1_555
C17R C13R 1_555 1_555
H9R C17R 1_555 1_555
C18R C19R 1_555 1_555
C19R H10R 1_555 1_555
C20R C18R 1_555 1_555
H11R C20R 1_555 1_555
C21R O5R 1_555 1_555
C22R C15R 1_555 1_555
H12R C22R 1_555 1_555
C23R C19R 1_555 1_555
H13R C23R 1_555 1_555
C24R C22R 1_555 1_555
C25R C23R 1_555 1_555
C26R C20R 1_555 1_555
H14R C26R 1_555 1_555
C27R H15R 1_555 1_555
C28R C29R 1_555 1_555
C29R C24R 1_555 1_555
H16R C29R 1_555 1_555
C30R C35R 1_555 1_555
C31R C15R 1_555 1_555
H17R C31R 1_555 1_555
C32R C27R 1_555 1_555
C33R C32R 1_555 1_555
H18R C33R 1_555 1_555
C34R C33R 1_555 1_555
H19R C34R 1_555 1_555
C35R C34R 1_555 1_555
C36R C27R 1_555 1_555
H20R C36R 1_555 1_555
O3S C11S 1_555 1_555
O4S In1 1_555 1_555
O5S C21S 1_555 1_555
O6S C21S 1_555 1_555
O7S C30S 1_555 1_555
O8S C30S 1_555 1_555
C10S H6S 1_555 1_555
C11S O4S 1_555 1_555
C12S C10S 1_555 1_555
C13S C12S 1_555 1_555
H7S C13S 1_555 1_555
C14S C10S 1_555 1_555
H8S C14S 1_555 1_555
C15S C16S 1_555 1_555
C16S C14S 1_555 1_555
C17S C13S 1_555 1_555
H9S C17S 1_555 1_555
C18S C19S 1_555 1_555
C19S H10S 1_555 1_555
C20S C18S 1_555 1_555
H11S C20S 1_555 1_555
C21S C18S 1_555 1_555
C22S C15S 1_555 1_555
H12S C22S 1_555 1_555
C23S C19S 1_555 1_555
H13S C23S 1_555 1_555
C24S C22S 1_555 1_555
C25S C23S 1_555 1_555
C26S C20S 1_555 1_555
H14S C26S 1_555 1_555
C27S H15S 1_555 1_555
C28S C29S 1_555 1_555
C29S C24S 1_555 1_555
H16S C29S 1_555 1_555
C30S C35S 1_555 1_555
C31S C15S 1_555 1_555
H17S C31S 1_555 1_555
C32S C27S 1_555 1_555
C33S C32S 1_555 1_555
H18S C33S 1_555 1_555
C34S C33S 1_555 1_555
H19S C34S 1_555 1_555
C35S C34S 1_555 1_555
C36S C27S 1_555 1_555
H20S C36S 1_555 1_555
O9Q In1 1_555 1_555
In1A O1A 1_555 1_555
In1B O1B 1_555 1_555
Mg1A O2A 1_555 1_555
Mg1B O2B 1_555 1_555
O10A Mg1A 1_555 1_555
O11A Mg1A 1_555 1_555
O10B Mg1B 1_555 1_555
O11B Mg1B 1_555 1_555
O8Q Mg1 1_555 1_555
In1T O4 1_555 1_555
Mg1R O5 1_555 1_555
In1R O6 1_555 1_555
Mg1Q O8 1_555 1_555
In1Q O9 1_555 1_555
In1B_2 O4R 1_555 1_555
Mg1IA O8R 1_555 1_555
Mg1A_2 O5S 1_555 1_555
In1A_2 O6S 1_555 1_555
In1S O7S 1_555 1_555
Mg1HA O8S 1_555 1_555
O9P In1A 1_555 1_555
O9O In1B 1_555 1_555
O5S_2 Mg1A 1_555 1_555
O8P Mg1A 1_555 1_555
O5T Mg1B 1_555 1_555
O8O Mg1B 1_555 1_555
O9IA Mg1R 1_555 1_555
O1R In1R 1_555 1_555
O4A In1R 1_555 1_555
O9R In1R 1_555 1_555
O9P_2 Mg1A_2 1_555 1_555
O1A_2 In1A_2 1_555 1_555
O4T In1A_2 1_555 1_555
O7A In1A_2 1_555 1_555
O9A In1A_2 1_555 1_555
In1IA O9IA 1_555 1_555
Mg1 O9Q 1_555 1_555
O9 Mg1Q 1_555 1_555
C3 C9 1_555 1_555
C4 C9 1_555 1_555
C5 C8 1_555 1_555
C16 C17 1_555 1_555
C24 C25 1_555 1_555
C25 C26 1_555 1_555
C28 C31 1_555 1_555
C28 C32 1_555 1_555
C34 C35 1_555 1_555
C35 C36 1_555 1_555
C1A C2A 1_555 1_555
C8A C4A 1_555 1_555
C8B C4B 1_555 1_555
O6R C21R 1_555 1_555
O7R In1R 1_555 1_555
C16R C17R 1_555 1_555
C18R C21R 1_555 1_555
C24R C25R 1_555 1_555
C25R C26R 1_555 1_555
C28R C31R 1_555 1_555
C28R C32R 1_555 1_555
C35R C36R 1_555 1_555
C11S C12S 1_555 1_555
C16S C17S 1_555 1_555
C24S C25S 1_555 1_555
C25S C26S 1_555 1_555
C28S C31S 1_555 1_555
C28S C32S 1_555 1_555
C35S C36S 1_555 1_555
O9Q In1Q 1_555 1_555
Mg1A O9P 1_555 1_555
Mg1B O9O 1_555 1_555
In1R O9IA 1_555 1_555
Mg1IA O9R 1_555 1_555
In1A_2 O9P_2 1_555 1_555
O9R In1IA 1_555 1_555

#END
