
#######################################################################
#
#                 Cambridge Crystallographic Data Centre
#                                CCDC 
#
#######################################################################
#
# If this CIF has been generated from an entry in the Cambridge 
# Structural Database, then it will include bibliographic, chemical, 
# crystal, experimental, refinement or atomic coordinate data resulting 
# from the CCDC's data processing and validation procedures.
#
#######################################################################

data_WAVRIW
_symmetry_cell_setting           rhombohedral
_symmetry_space_group_name_H-M   'R -3'
_symmetry_Int_Tables_number      148
_space_group_name_Hall           '-R 3'
loop_
_symmetry_equiv_pos_site_id
_symmetry_equiv_pos_as_xyz
1 x,y,z
2 -y,x-y,z
3 -x+y,-x,z
4 2/3+x,1/3+y,1/3+z
5 2/3-y,1/3+x-y,1/3+z
6 2/3-x+y,1/3-x,1/3+z
7 1/3+x,2/3+y,2/3+z
8 1/3-y,2/3+x-y,2/3+z
9 1/3-x+y,2/3-x,2/3+z
10 -x,-y,-z
11 y,-x+y,-z
12 x-y,x,-z
13 1/3-x,2/3-y,2/3-z
14 1/3+y,2/3-x+y,2/3-z
15 1/3+x-y,2/3+x,2/3-z
16 2/3-x,1/3-y,1/3-z
17 2/3+y,1/3-x+y,1/3-z
18 2/3+x-y,1/3+x,1/3-z
_cell_length_a                   36.218(14)
_cell_length_b                   36.218(14)
_cell_length_c                   23.612(19)
_cell_angle_alpha                90
_cell_angle_beta                 90
_cell_angle_gamma                120
_cell_volume                     26823.3
loop_
_atom_site_label
_atom_site_type_symbol
_atom_site_fract_x
_atom_site_fract_y
_atom_site_fract_z
O11 O 0.4030(8) -0.1784(8) 0.8494(11)
O12 O 0.8152(7) -0.0742(7) 1.1190(10)
O13 O 0.6407(12) -0.0096(13) 1.2097(15)
In1 In 0.63437(3) -0.12772(3) 0.73985(3)
Cu1 Cu 0.70141(5) -0.12291(6) 0.84568(7)
O1 O 0.66552(18) -0.1582(2) 0.7798(2)
O2 O 0.5783(2) -0.2304(3) 0.7846(4)
O3 O 0.5793(2) -0.1837(3) 0.7225(3)
O4 O 0.6850(3) -0.0670(3) 0.7521(5)
O5 O 0.7332(3) -0.0703(4) 0.8033(4)
O6 O 1.0912(3) 0.3236(3) 0.7875(4)
O7 O 0.8443(4) 0.1470(4) 0.3235(4)
O8 O 1.0650(3) 0.2731(4) 0.8532(4)
O9 O 0.8720(3) 0.2164(3) 0.3388(3)
C1 C 0.5625(4) -0.2186(4) 0.7517(6)
C2 C 0.5130(4) -0.2448(4) 0.7455(5)
C3 C 0.4922(4) -0.2809(4) 0.7743(5)
H1 H 0.5072 -0.2906 0.7958
C4 C 0.4478(4) -0.3043(4) 0.7721(5)
H2 H 0.4331 -0.3304 0.7907
C5 C 0.4258(3) -0.2886(3) 0.7424(5)
C6 C 0.4483(4) -0.2522(4) 0.7111(5)
H3 H 0.4338 -0.2425 0.6885
C7 C 0.4916(4) -0.2301(3) 0.7130(4)
H4 H 0.5067 -0.2051 0.6923
C8 C 0.3784(4) -0.3116(4) 0.7419(4)
C9 C 0.3557(5) -0.2909(3) 0.7426(5)
H5 H 0.3712 -0.2613 0.7436
C10 C 1.0607(10) 0.2879(6) 0.8089(15)
C11 C 1.0218(6) 0.2654(6) 0.7749(8)
C12 C 1.0197(7) 0.2704(7) 0.7221(9)
H6 H 1.0436 0.2910 0.7029
C13 C 0.9815(8) 0.2450(8) 0.6925(10)
H7 H 0.9788 0.2536 0.6564
C14 C 0.9549(8) 0.2076(8) 0.7664(12)
H8 H 0.9339 0.1833 0.7843
C15 C 0.9485(4) 0.2090(4) 0.7135(5)
C16 C 0.9854(4) 0.2338(6) 0.8005(6)
C17 C 0.9098(5) 0.1778(5) 0.6828(5)
C18 C 0.9056(5) 0.1835(5) 0.6261(6)
H9 H 0.9273 0.2071 0.6078
C19 C 0.8692(4) 0.1546(5) 0.5948(5)
C20 C 0.8392(5) 0.1191(5) 0.6235(5)
H10 H 0.8148 0.0995 0.6040
C21 C 0.8430(5) 0.1112(5) 0.6775(5)
C22 C 0.8786(5) 0.1423(5) 0.7075(5)
H11 H 0.8807 0.1382 0.7460
C23 C 0.8632(6) 0.1607(5) 0.5326(6)
C24 C 0.8796(5) 0.2024(5) 0.5115(5)
H12 H 0.8917 0.2261 0.5350
C25 C 0.8765(5) 0.2057(5) 0.4525(6)
H13 H 0.8879 0.2329 0.4373
C26 C 0.8584(5) 0.1727(5) 0.4169(6)
C27 C 0.8429(5) 0.1336(5) 0.4405(6)
H14 H 0.8300 0.1101 0.4167
C28 C 0.8450(5) 0.1264(5) 0.4969(6)
H15 H 0.8344 0.0989 0.5107
C29 C 0.8602(6) 0.1789(6) 0.3542(5)
C30 C 0.8117(4) 0.0712(5) 0.7049(5)
C31 C 0.7681(4) 0.0526(5) 0.6915(5)
H16 H 0.7591 0.0666 0.6671
C32 C 0.7394(5) 0.0146(5) 0.7137(6)
H17 H 0.7108 0.0027 0.7041
C33 C 0.7524(5) -0.0083(6) 0.7529(6)
C34 C 0.7951(5) 0.0099(6) 0.7663(6)
H18 H 0.8039 -0.0045 0.7905
C35 C 0.8257(4) 0.0497(5) 0.7440(5)
H19 H 0.8543 0.0621 0.7542
C36 C 0.7218(5) -0.0510(6) 0.7707(7)
O10 O 0.6018(3) -0.0944(4) 0.7019(5)
In1A In 0.12772(3) -0.23791(4) 0.73985(3)
In1B In 0.23791(4) -0.63437(3) 0.73985(3)
In1N In 1.09542(4) 0.30104(3) 0.92682(3)
In1J In 0.87228(3) 0.23791(4) 0.26015(3)
In1M In 0.20561(3) -0.09542(4) 0.92682(3)
In1H In 0.57124(4) 0.03230(3) 1.40652(3)
In1K In 0.76209(4) -0.36563(3) 0.26015(3)
In1D In 0.79439(3) 0.09542(4) 0.07318(3)
In1L In 0.69896(3) -0.20561(3) 0.92682(3)
Cu1L Cu 0.63192(5) -0.21042(6) 0.82099(7)
Cu1M Cu 0.21042(6) -0.15765(8) 0.82099(7)
Cu1N Cu 1.15765(8) 0.36808(5) 0.82099(7)
Cu1N_2 Cu 0.15765(8) -0.63192(5) 0.82099(7)
Cu1K Cu 0.82432(8) -0.29859(5) 0.15432(7)
Cu1D Cu 0.78958(6) 0.15765(8) 0.17901(7)
Cu1A Cu 0.12291(6) -0.17568(8) 0.84568(7)
O1L O 0.66781(18) -0.1751(2) 0.8869(2)
O1A O 0.1582(2) -0.17628(27) 0.7798(2)
O1B O 0.17628(27) -0.66552(18) 0.7798(2)
O1M O 0.1751(2) -0.15705(27) 0.8869(2)
O2A O 0.2304(3) -0.1913(4) 0.7846(4)
O2B O 0.1913(4) -0.5783(2) 0.7846(4)
O2L O 0.7550(2) -0.1029(3) 0.8821(4)
O3A O 0.1837(3) -0.2370(4) 0.7225(3)
O3B O 0.2370(4) -0.5793(2) 0.7225(3)
O4M O 0.2663(3) -0.0853(4) 0.9146(5)
O4K O 0.7520(4) -0.3150(3) 0.2479(5)
O4A O 0.0670(3) -0.2480(4) 0.7521(5)
O4B O 0.2480(4) -0.6850(3) 0.7521(5)
O5M O 0.2630(4) -0.1368(5) 0.8634(4)
O5K O 0.8035(5) -0.2668(3) 0.1967(4)
O5L O 0.6001(3) -0.2630(4) 0.8634(4)
O6M O 0.6569(3) -0.1009(4) 0.8792(4)
O6K O 0.7676(4) 0.0912(3) 0.2125(4)
O6A O 0.6764(3) -0.2324(4) 0.7875(4)
O6B O 0.2324(4) -0.0912(3) 0.7875(4)
O7M O 0.4803(4) -0.0306(6) 1.3432(4)
O7K O 0.6973(6) -0.1557(4) 0.6765(4)
O8M O 0.6064(4) -0.1252(5) 0.8135(4)
O8K O 0.7919(5) 0.0650(3) 0.1468(4)
O8N O 0.1252(5) -0.2683(3) 0.8135(4)
O8L O 0.2683(3) -0.6064(4) 0.8135(4)
O9M O 0.5497(3) 0.0111(4) 1.3279(3)
O9K O 0.6556(4) -0.1280(3) 0.6612(3)
O9I O 0.1280(3) -0.2164(3) 0.6612(3)
O9J O 0.2164(3) -0.6556(4) 0.6612(3)
C1A C 0.2186(4) -0.2189(6) 0.7517(6)
C1B C 0.2189(6) -0.5625(4) 0.7517(6)
C2A C 0.2448(4) -0.2422(6) 0.7455(5)
C2B C 0.2422(6) -0.5130(4) 0.7455(5)
C3A C 0.2809(4) -0.2269(6) 0.7743(5)
C3B C 0.2269(6) -0.4922(4) 0.7743(5)
H1A H 0.2906 -0.2022 0.7958
H1B H 0.2022 -0.5072 0.7958
C4A C 0.3043(4) -0.2479(6) 0.7721(5)
C4B C 0.2479(6) -0.4478(4) 0.7721(5)
H2A H 0.3304 -0.2365 0.7907
H2B H 0.2365 -0.4331 0.7907
C5A C 0.2886(3) -0.2856(4) 0.7424(5)
C5B C 0.2856(4) -0.4258(3) 0.7424(5)
C6A C 0.2522(4) -0.2995(6) 0.7111(5)
C6B C 0.2995(6) -0.4483(4) 0.7111(5)
H3A H 0.2425 -0.3237 0.6885
H3B H 0.3237 -0.4338 0.6885
C7A C 0.2301(3) -0.2783(5) 0.7130(4)
C7B C 0.2783(5) -0.4916(4) 0.7130(4)
H4A H 0.2051 -0.2882 0.6923
H4B H 0.2882 -0.5067 0.6923
C8A C 0.3116(4) -0.3100(6) 0.7419(4)
C8B C 0.3100(6) -0.3784(4) 0.7419(4)
C9A C 0.2909(3) -0.3534(6) 0.7426(5)
C9B C 0.3534(6) -0.3557(5) 0.7426(5)
H5B H 0.3675 -0.3712 0.7436
H5A H 0.2613 -0.3675 0.7436
C10M C 0.6212(6) -0.1061(12) 0.8578(15)
C10K C 0.7728(12) 0.0607(10) 0.1911(15)
C11M C 0.5987(6) -0.0897(8) 0.8918(8)
C11K C 0.7564(8) 0.0218(6) 0.2251(8)
C12M C 0.6037(7) -0.0826(10) 0.9446(9)
C12K C 0.7493(10) 0.0197(7) 0.2779(9)
H6M H 0.6243 -0.0859 0.9638
H6K H 0.7526 0.0436 0.2971
C13M C 0.5783(8) -0.0698(11) 0.9742(10)
C13K C 0.7365(11) -0.0185(8) 0.3075(10)
H7M H 0.5869 -0.0585 1.0103
H7K H 0.7252 -0.0212 0.3436
C14M C 0.5409(8) -0.0806(11) 0.9003(12)
C14K C 0.7473(11) -0.0451(8) 0.2336(12)
H8M H 0.5166 -0.0839 0.8824
H8K H 0.7506 -0.0661 0.2157
C15M C 0.5423(4) -0.0728(6) 0.9532(5)
C15K C 0.7395(6) -0.0515(4) 0.2865(5)
C16M C 0.5671(6) -0.0849(7) 0.8662(6)
C16K C 0.7516(7) -0.0146(4) 0.1995(6)
C17M C 0.5111(5) -0.0653(7) 0.9839(5)
C17K C 0.7320(7) -0.0902(5) 0.3172(5)
C18M C 0.5168(5) -0.0554(7) 1.0406(6)
C18K C 0.7221(7) -0.0944(5) 0.3739(6)
H9M H 0.5404 -0.0535 1.0589
H9K H 0.7202 -0.0727 0.3922
C19M C 0.4879(5) -0.0479(6) 1.0719(5)
C19K C 0.7146(6) -0.1308(4) 0.4052(5)
C20M C 0.4524(5) -0.0534(7) 1.0432(5)
C20K C 0.7201(7) -0.1608(5) 0.3765(5)
H10M H 0.4328 -0.0486 1.0627
H10K H 0.7153 -0.1852 0.3960
C21M C 0.4445(5) -0.0651(7) 0.9892(5)
C21K C 0.7318(7) -0.1570(5) 0.3225(5)
C22M C 0.4756(5) -0.0696(7) 0.9592(5)
C22K C 0.7363(7) -0.1214(5) 0.2925(5)
H11M H 0.4715 -0.0758 0.9207
H11K H 0.7425 -0.1193 0.2540
C23M C 0.4940(5) -0.0358(8) 1.1341(6)
C23K C 0.7025(8) -0.1368(6) 0.4674(6)
C24M C 0.5357(5) -0.0105(7) 1.1552(5)
C24K C 0.6772(7) -0.1204(5) 0.4885(5)
H12M H 0.5594 0.0011 1.1317
H12K H 0.6656 -0.1083 0.4650
C25M C 0.5390(5) -0.0041(7) 1.2142(6)
C25K C 0.6708(7) -0.1235(5) 0.5475(6)
H13M H 0.5662 0.0117 1.2294
H13K H 0.6550 -0.1121 0.5627
C26M C 0.5060(5) -0.0190(7) 1.2498(6)
C26K C 0.6857(7) -0.1416(5) 0.5831(6)
C27M C 0.4669(5) -0.0426(7) 1.2262(6)
C27K C 0.7093(7) -0.1571(5) 0.5595(6)
H14M H 0.4434 -0.0532 1.2500
H14K H 0.7199 -0.1700 0.5833
C28M C 0.4597(5) -0.0519(7) 1.1698(6)
C28K C 0.7186(7) -0.1550(5) 0.5031(6)
H15M H 0.4322 -0.0688 1.1560
H15K H 0.7355 -0.1656 0.4893
C29M C 0.5122(6) -0.0146(8) 1.3125(5)
C29K C 0.6813(8) -0.1398(6) 0.6458(5)
C30M C 0.4045(5) -0.0738(6) 0.9618(5)
C30K C 0.7405(6) -0.1883(4) 0.2951(5)
C31M C 0.3859(5) -0.0488(6) 0.9752(5)
C31K C 0.7155(6) -0.2319(4) 0.3085(5)
H16M H 0.3999 -0.0258 0.9996
H16K H 0.6925 -0.2409 0.3329
C32M C 0.3479(5) -0.0581(7) 0.9530(6)
C32K C 0.7248(7) -0.2606(5) 0.2863(6)
H17M H 0.3360 -0.0414 0.9626
H17K H 0.7081 -0.2892 0.2959
C33M C 0.3250(6) -0.0940(8) 0.9138(6)
C33K C 0.7607(8) -0.2476(5) 0.2471(6)
C34M C 0.3432(6) -0.1185(8) 0.9004(6)
C34K C 0.7852(8) -0.2049(5) 0.2337(6)
H18M H 0.3288 -0.1417 0.8762
H18K H 0.8084 -0.1961 0.2095
C35M C 0.3830(5) -0.1093(6) 0.9227(5)
C35K C 0.7760(6) -0.1743(4) 0.2560(5)
H19M H 0.3954 -0.1255 0.9125
H19K H 0.7922 -0.1457 0.2458
C36M C 0.2823(6) -0.1061(8) 0.8960(7)
C36K C 0.7728(8) -0.2782(5) 0.2293(7)
O10A O 0.0944(4) -0.3038(5) 0.7019(5)
O10B O 0.3038(5) -0.6018(3) 0.7019(5)
C37? C 0.6118(12) -0.1220(7) 0.859(2)
C38? C 0.5826(6) -0.1134(7) 0.8960(10)
C39? C 0.5769(7) -0.1187(8) 0.9490(12)
C40? C 0.5564(6) -0.0987(8) 0.9807(13)
C41? C 0.5469(7) -0.0633(8) 0.8918(15)
H20? H 0.5857 -0.1355 0.9681
H21? H 0.5526 -0.1030 1.0196
H22? H 0.5383 -0.0463 0.8730
O14? O 0.7900(8) -0.0643(8) 1.0834(10)
O15? O 0.6201(14) -0.0441(16) 1.1943(19)
loop_
_geom_bond_atom_site_label_1
_geom_bond_atom_site_label_2
_geom_bond_site_symmetry_1
_geom_bond_site_symmetry_2
In1 O1 1_555 1_555
Cu1 O1 1_555 1_555
O1 Cu1L 1_555 1_555
O2 C1 1_555 1_555
O3 In1 1_555 1_555
O4 In1 1_555 1_555
O5 Cu1 1_555 1_555
O6 C10 1_555 1_555
O7 C29 1_555 1_555
O8 C10 1_555 1_555
O9 C29 1_555 1_555
C1 O3 1_555 1_555
C2 C1 1_555 1_555
C3 C2 1_555 1_555
H1 C3 1_555 1_555
C4 C3 1_555 1_555
H2 C4 1_555 1_555
C5 C4 1_555 1_555
C6 C5 1_555 1_555
H3 C6 1_555 1_555
C7 C2 1_555 1_555
H4 C7 1_555 1_555
C8 C5 1_555 1_555
C9 C8 1_555 1_555
H5 C9 1_555 1_555
C10 C11 1_555 1_555
C11 C12 1_555 1_555
C12 H6 1_555 1_555
C13 C12 1_555 1_555
H7 C13 1_555 1_555
C14 H8 1_555 1_555
C15 C13 1_555 1_555
C16 C11 1_555 1_555
C17 C15 1_555 1_555
C18 C17 1_555 1_555
H9 C18 1_555 1_555
C19 C18 1_555 1_555
C20 C19 1_555 1_555
H10 C20 1_555 1_555
C21 C20 1_555 1_555
C22 C17 1_555 1_555
H11 C22 1_555 1_555
C23 C19 1_555 1_555
C24 C23 1_555 1_555
H12 C24 1_555 1_555
C25 C24 1_555 1_555
H13 C25 1_555 1_555
C26 C25 1_555 1_555
C27 C26 1_555 1_555
H14 C27 1_555 1_555
C28 C23 1_555 1_555
H15 C28 1_555 1_555
C29 C26 1_555 1_555
C30 C21 1_555 1_555
C31 C30 1_555 1_555
H16 C31 1_555 1_555
C32 C31 1_555 1_555
H17 C32 1_555 1_555
C33 C32 1_555 1_555
C34 C33 1_555 1_555
H18 C34 1_555 1_555
C35 C30 1_555 1_555
H19 C35 1_555 1_555
C36 O4 1_555 1_555
O10 In1 1_555 1_555
In1A O1A 1_555 1_555
In1B O1B 1_555 1_555
In1N O8 1_555 1_555
In1J O9 1_555 1_555
In1M O1M 1_555 1_555
In1H O9M 1_555 1_555
In1K O4K 1_555 1_555
In1D O8K 1_555 1_555
In1L O1L 1_555 1_555
Cu1L O2 1_555 1_555
Cu1M O1A 1_555 1_555
Cu1N O6 1_555 1_555
Cu1N_2 O1B 1_555 1_555
Cu1K O5K 1_555 1_555
Cu1D O6K 1_555 1_555
Cu1A O1A 1_555 1_555
O1L Cu1 1_555 1_555
O1M Cu1M 1_555 1_555
O2A Cu1M 1_555 1_555
O2B Cu1N_2 1_555 1_555
O2L Cu1 1_555 1_555
O3A In1A 1_555 1_555
O3B In1B 1_555 1_555
O4M In1M 1_555 1_555
O4K C36K 1_555 1_555
O4A In1A 1_555 1_555
O4B In1B 1_555 1_555
O5M Cu1M 1_555 1_555
O5K C36K 1_555 1_555
O5L Cu1L 1_555 1_555
O6M Cu1 1_555 1_555
O6K C10K 1_555 1_555
O6A Cu1L 1_555 1_555
O6B Cu1M 1_555 1_555
O7M C29M 1_555 1_555
O7K C29K 1_555 1_555
O8M In1 1_555 1_555
O8K C10K 1_555 1_555
O8N In1A 1_555 1_555
O8L In1B 1_555 1_555
O9M C29M 1_555 1_555
O9K In1 1_555 1_555
O9I In1A 1_555 1_555
O9J In1B 1_555 1_555
C1A O2A 1_555 1_555
C1B O2B 1_555 1_555
C2A C1A 1_555 1_555
C2B C1B 1_555 1_555
C3A C2A 1_555 1_555
C3B C2B 1_555 1_555
H1A C3A 1_555 1_555
H1B C3B 1_555 1_555
C4A C3A 1_555 1_555
C4B C3B 1_555 1_555
H2A C4A 1_555 1_555
H2B C4B 1_555 1_555
C5A C4A 1_555 1_555
C5B C4B 1_555 1_555
C6A C5A 1_555 1_555
C6B C5B 1_555 1_555
H3A C6A 1_555 1_555
H3B C6B 1_555 1_555
C7A C2A 1_555 1_555
C7B C2B 1_555 1_555
H4A C7A 1_555 1_555
H4B C7B 1_555 1_555
C8A C9 1_555 1_555
C8B C5B 1_555 1_555
C9A C8A 1_555 1_555
C9B C8 1_555 1_555
H5B C9B 1_555 1_555
H5A C9A 1_555 1_555
C10M O6M 1_555 1_555
C10K C11K 1_555 1_555
C11M C10M 1_555 1_555
C11K C12K 1_555 1_555
C12M C11M 1_555 1_555
C12K H6K 1_555 1_555
H6M C12M 1_555 1_555
C13M C12M 1_555 1_555
C13K C12K 1_555 1_555
H7M C13M 1_555 1_555
H7K C13K 1_555 1_555
C14M H8M 1_555 1_555
C14K H8K 1_555 1_555
C15M C13M 1_555 1_555
C15K C13K 1_555 1_555
C16M C11M 1_555 1_555
C16K C11K 1_555 1_555
C17M C15M 1_555 1_555
C17K C15K 1_555 1_555
C18M C17M 1_555 1_555
C18K C17K 1_555 1_555
H9M C18M 1_555 1_555
H9K C18K 1_555 1_555
C19M C18M 1_555 1_555
C19K C18K 1_555 1_555
C20M C19M 1_555 1_555
C20K C19K 1_555 1_555
H10M C20M 1_555 1_555
H10K C20K 1_555 1_555
C21M C20M 1_555 1_555
C21K C20K 1_555 1_555
C22M C17M 1_555 1_555
C22K C17K 1_555 1_555
H11M C22M 1_555 1_555
H11K C22K 1_555 1_555
C23M C19M 1_555 1_555
C23K C19K 1_555 1_555
C24M C23M 1_555 1_555
C24K C23K 1_555 1_555
H12M C24M 1_555 1_555
H12K C24K 1_555 1_555
C25M C24M 1_555 1_555
C25K C24K 1_555 1_555
H13M C25M 1_555 1_555
H13K C25K 1_555 1_555
C26M C25M 1_555 1_555
C26K C25K 1_555 1_555
C27M C26M 1_555 1_555
C27K C26K 1_555 1_555
H14M C27M 1_555 1_555
H14K C27K 1_555 1_555
C28M C23M 1_555 1_555
C28K C23K 1_555 1_555
H15M C28M 1_555 1_555
H15K C28K 1_555 1_555
C29M C26M 1_555 1_555
C29K O9K 1_555 1_555
C30M C21M 1_555 1_555
C30K C21K 1_555 1_555
C31M C30M 1_555 1_555
C31K C30K 1_555 1_555
H16M C31M 1_555 1_555
H16K C31K 1_555 1_555
C32M C31M 1_555 1_555
C32K C31K 1_555 1_555
H17M C32M 1_555 1_555
H17K C32K 1_555 1_555
C33M C32M 1_555 1_555
C33K C32K 1_555 1_555
C34M C33M 1_555 1_555
C34K C33K 1_555 1_555
H18M C34M 1_555 1_555
H18K C34K 1_555 1_555
C35M C30M 1_555 1_555
C35K C30K 1_555 1_555
H19M C35M 1_555 1_555
H19K C35K 1_555 1_555
C36M O4M 1_555 1_555
C36K C33K 1_555 1_555
O10A In1A 1_555 1_555
O10B In1B 1_555 1_555
O5 C36 1_555 1_555
C6 C7 1_555 1_555
C14 C15 1_555 1_555
C14 C16 1_555 1_555
C21 C22 1_555 1_555
C27 C28 1_555 1_555
C33 C36 1_555 1_555
C34 C35 1_555 1_555
Cu1L O1L 1_555 1_555
Cu1A O1M 1_555 1_555
O3A C1A 1_555 1_555
O3B C1B 1_555 1_555
O5M C36M 1_555 1_555
O8M C10M 1_555 1_555
C5A C8A 1_555 1_555
C6A C7A 1_555 1_555
C6B C7B 1_555 1_555
C8B C9A 1_555 1_555
C8B C9B 1_555 1_555
C14M C15M 1_555 1_555
C14M C16M 1_555 1_555
C14K C15K 1_555 1_555
C14K C16K 1_555 1_555
C21M C22M 1_555 1_555
C21K C22K 1_555 1_555
C26K C29K 1_555 1_555
C27M C28M 1_555 1_555
C27K C28K 1_555 1_555
C33M C36M 1_555 1_555
C34M C35M 1_555 1_555
C34K C35K 1_555 1_555

#END
