
#######################################################################
#
#                 Cambridge Crystallographic Data Centre
#                                CCDC 
#
#######################################################################
#
# If this CIF has been generated from an entry in the Cambridge 
# Structural Database, then it will include bibliographic, chemical, 
# crystal, experimental, refinement or atomic coordinate data resulting 
# from the CCDC's data processing and validation procedures.
#
#######################################################################

data_WEDQED
_symmetry_cell_setting           monoclinic
_symmetry_space_group_name_H-M   'C 2/c'
_symmetry_Int_Tables_number      15
_space_group_name_Hall           '-C 2yn'
loop_
_symmetry_equiv_pos_site_id
_symmetry_equiv_pos_as_xyz
1 x,y,z
2 -x,y,1/2-z
3 1/2+x,1/2+y,z
4 1/2-x,1/2+y,1/2-z
5 -x,-y,-z
6 x,-y,1/2+z
7 1/2-x,1/2-y,-z
8 1/2+x,1/2-y,1/2+z
_cell_length_a                   20.6969(19)
_cell_length_b                   18.0075(16)
_cell_length_c                   14.8130(13)
_cell_angle_alpha                90
_cell_angle_beta                 90.320(2)
_cell_angle_gamma                90
_cell_volume                     5520.71
loop_
_atom_site_label
_atom_site_type_symbol
_atom_site_fract_x
_atom_site_fract_y
_atom_site_fract_z
N3 N 0.5560(8) 0.3812(13) -0.5363(13)
C23 C 0.5391(14) 0.252(2) -0.2685(12)
C24 C 0.4798(11) 0.2371(11) -0.3283(12)
C25 C 0.5062(5) 0.2883(6) -0.3997(7)
C26 C 0.4762(6) 0.3533(6) -0.4260(8)
C27 C 0.5004(7) 0.3965(9) -0.4906(9)
C28 C 0.5844(12) 0.3173(12) -0.5091(13)
C29 C 0.5611(6) 0.2706(11) -0.4423(11)
N3A N 0.4440(8) 0.3812(13) 0.0363(13)
C23A C 0.4609(14) 0.252(2) -0.2315(12)
C24A C 0.5202(11) 0.2371(11) -0.1717(12)
C25A C 0.4938(5) 0.2883(6) -0.1003(7)
C26A C 0.5238(6) 0.3533(6) -0.0740(8)
C27A C 0.4996(7) 0.3965(9) -0.0094(9)
C28A C 0.4156(12) 0.3173(12) 0.0091(13)
C29A C 0.4389(6) 0.2706(11) -0.0577(11)
Co1 Co 0.62908(3) 0.07701(4) 0.03892(4)
Co2 Co 0.53315(3) -0.00899(4) -0.09039(4)
O1 O 0.53122(17) 0.06947(19) 0.0130(2)
H1 H 0.525(3) 0.1115(18) -0.011(4)
O2 O 0.62043(17) -0.0366(2) -0.0095(2)
O3 O 0.6535(3) -0.1447(3) -0.0636(3)
O4 O 0.61007(16) 0.03459(19) 0.1683(2)
O5 O 0.53922(16) -0.0579(2) 0.1488(2)
O6 O 0.59220(17) -0.0522(2) 0.3305(2)
O7 O 0.66852(18) -0.1067(2) 0.4146(2)
O8 O 0.5562(2) -0.0980(2) -0.1770(3)
H2 H 0.571(4) -0.083(5) -0.228(3)
H3 H 0.587(3) -0.118(5) -0.147(5)
N1 N 0.6219(2) 0.1908(2) 0.0744(3)
N2 N 0.7724(2) 0.5727(3) 0.4071(3)
C1 C 0.6741(2) -0.1199(3) 0.0901(3)
C2 C 0.6488(2) -0.0909(3) 0.1704(3)
C3 C 0.6720(2) -0.1165(3) 0.2533(3)
C4 C 0.7207(3) -0.1702(3) 0.2557(4)
H4 H 0.7360 -0.1873 0.3111
C5 C 0.7462(3) -0.1982(4) 0.1775(4)
H5 H 0.7790 -0.2335 0.1798
C6 C 0.7228(3) -0.1733(3) 0.0945(4)
H6 H 0.7399 -0.1925 0.0414
C7 C 0.6480(3) -0.0994(3) -0.0010(3)
C8 C 0.5945(2) -0.0336(3) 0.1631(3)
C9 C 0.6429(2) -0.0896(3) 0.3394(3)
C10 C 0.6617(3) 0.2417(4) 0.0385(4)
H7 H 0.6892 0.2265 -0.0075
C11 C 0.6645(4) 0.3142(4) 0.0650(5)
H8 H 0.6926 0.3471 0.0369
C12 C 0.6257(5) 0.3381(4) 0.1331(7)
C13 C 0.5833(5) 0.2865(4) 0.1699(6)
H9 H 0.5559 0.3006 0.2163
C14 C 0.5816(3) 0.2139(4) 0.1377(5)
H10 H 0.5516 0.1808 0.1611
C15 C 0.6350(4) 0.4187(5) 0.1677(8)
H11 H 0.6783 0.4232 0.1926
H12 H 0.6320 0.4522 0.1165
C16 C 0.5888(5) 0.4428(5) 0.2361(8)
H13 H 0.5946 0.4131 0.2902
H14 H 0.5452 0.4345 0.2138
C17 C 0.5967(4) 0.5240(4) 0.2598(8)
H15 H 0.5599 0.5395 0.2954
H16 H 0.5963 0.5528 0.2045
C18 C 0.6584(3) 0.5421(4) 0.3123(6)
C19 C 0.7035(4) 0.5899(5) 0.2780(5)
H17 H 0.6965 0.6132 0.2227
C20 C 0.7605(3) 0.6035(4) 0.3273(5)
H18 H 0.7912 0.6354 0.3030
C21 C 0.7278(3) 0.5277(4) 0.4401(5)
H19 H 0.7348 0.5062 0.4964
C22 C 0.6701(3) 0.5109(4) 0.3932(6)
H20 H 0.6403 0.4784 0.4183
Co1E Co 0.62908(3) -0.07701(4) -0.46108(4)
Co1E_2 Co 0.62908(3) -0.07701(4) 0.53892(4)
Co1C Co 0.87092(3) 0.57701(4) 0.46108(4)
Co1C_2 Co 0.87092(3) -0.42299(4) 0.46108(4)
Co1D Co 0.37092(3) -0.07701(4) -0.03892(4)
Co2D Co 0.46685(3) 0.00899(4) 0.09039(4)
Co2E Co 0.53315(3) 0.00899(4) 0.40961(4)
Co2E_2 Co 0.53315(3) 0.00899(4) -0.59039(4)
Co2A Co 0.46685(3) -0.00899(4) -0.40961(4)
O1D O 0.46878(17) -0.06947(19) -0.0130(2)
O1E O 0.53122(17) -0.06947(19) -0.4870(2)
H1D H 0.475(3) -0.1115(18) 0.011(4)
H1E H 0.525(3) -0.1115(18) -0.511(4)
O2E O 0.62043(17) 0.0366(2) -0.5095(2)
O2D O 0.37957(17) 0.0366(2) 0.0095(2)
O3E O 0.6535(3) 0.1447(3) -0.5636(3)
O4E O 0.61007(16) -0.03459(19) -0.3317(2)
O5E O 0.53922(16) 0.0579(2) -0.3512(2)
O5D O 0.46078(16) 0.0579(2) -0.1488(2)
O6E O 0.59220(17) 0.0522(2) -0.1695(2)
O6A O 0.40780(17) -0.0522(2) 0.1695(2)
O7E O 0.66852(18) 0.1067(2) -0.0854(2)
O7_2 O 0.66852(18) -0.1067(2) -0.5854(2)
O8D O 0.4438(2) 0.0980(2) 0.1770(3)
H2D H 0.429(4) 0.083(5) 0.228(3)
H3D H 0.413(3) 0.118(5) 0.147(5)
N1C N 0.8781(2) -0.3092(2) 0.4256(3)
N1E N 0.6219(2) -0.1908(2) -0.4256(3)
N2C N 0.7276(2) 0.0727(3) 0.0929(3)
N2F N 0.7276(2) -0.0727(3) -0.4071(3)
C1E C 0.6741(2) 0.1199(3) -0.4099(3)
C2E C 0.6488(2) 0.0909(3) -0.3296(3)
C3E C 0.6720(2) 0.1165(3) -0.2467(3)
C4E C 0.7207(3) 0.1702(3) -0.2443(4)
H4E H 0.7360 0.1873 -0.1889
C5E C 0.7462(3) 0.1982(4) -0.3225(4)
H5E H 0.7790 0.2335 -0.3202
C6E C 0.7228(3) 0.1733(3) -0.4055(4)
H6E H 0.7399 0.1925 -0.4586
C7E C 0.6480(3) 0.0994(3) -0.5010(3)
C8E C 0.5945(2) 0.0336(3) -0.3369(3)
C9E C 0.6429(2) 0.0896(3) -0.1606(3)
C10C C 0.8383(3) -0.2583(4) 0.4615(4)
H7C H 0.8108 -0.2735 0.5075
C11C C 0.8355(4) -0.1858(4) 0.4350(5)
H8C H 0.8074 -0.1529 0.4631
C12C C 0.8743(5) -0.1619(4) 0.3669(7)
C13C C 0.9167(5) -0.2135(4) 0.3301(6)
H9C H 0.9441 -0.1994 0.2837
C14C C 0.9184(3) -0.2861(4) 0.3623(5)
H10C H 0.9484 -0.3192 0.3389
C15C C 0.8650(4) -0.0813(5) 0.3323(8)
H11C H 0.8217 -0.0768 0.3074
H12C H 0.8680 -0.0478 0.3835
C16C C 0.9112(5) -0.0572(5) 0.2639(8)
H13C H 0.9054 -0.0869 0.2098
H14C H 0.9548 -0.0655 0.2862
C17C C 0.9033(4) 0.0240(4) 0.2402(8)
H15C H 0.9401 0.0395 0.2046
H16C H 0.9037 0.0528 0.2955
C18C C 0.8416(3) 0.0421(4) 0.1877(6)
C19C C 0.7965(4) 0.0899(5) 0.2220(5)
H17C H 0.8035 0.1132 0.2773
C20C C 0.7395(3) 0.1035(4) 0.1727(5)
H18C H 0.7088 0.1354 0.1970
C21C C 0.7722(3) 0.0277(4) 0.0599(5)
H19C H 0.7652 0.0062 0.0036
C22C C 0.8299(3) 0.0109(4) 0.1068(6)
H20C H 0.8597 -0.0216 0.0817
loop_
_geom_bond_atom_site_label_1
_geom_bond_atom_site_label_2
_geom_bond_site_symmetry_1
_geom_bond_site_symmetry_2
Co1 O1 1_555 1_555
Co2 O1 1_555 1_555
O1 H1 1_555 1_555
O2 Co1 1_555 1_555
O3 C7 1_555 1_555
O4 Co1 1_555 1_555
O5 C8 1_555 1_555
O6 C9 1_555 1_555
O7 C9 1_555 1_555
O8 Co2 1_555 1_555
H2 O8 1_555 1_555
H3 O8 1_555 1_555
N1 Co1 1_555 1_555
N2 C20 1_555 1_555
C1 C2 1_555 1_555
C2 C3 1_555 1_555
C3 C4 1_555 1_555
C4 H4 1_555 1_555
C5 C4 1_555 1_555
H5 C5 1_555 1_555
C6 C1 1_555 1_555
H6 C6 1_555 1_555
C7 O2 1_555 1_555
C8 O4 1_555 1_555
C9 C3 1_555 1_555
C10 N1 1_555 1_555
H7 C10 1_555 1_555
C11 C10 1_555 1_555
H8 C11 1_555 1_555
C12 C11 1_555 1_555
C13 C12 1_555 1_555
H9 C13 1_555 1_555
C14 N1 1_555 1_555
H10 C14 1_555 1_555
C15 C12 1_555 1_555
H11 C15 1_555 1_555
H12 C15 1_555 1_555
C16 C15 1_555 1_555
H13 C16 1_555 1_555
H14 C16 1_555 1_555
C17 C16 1_555 1_555
H15 C17 1_555 1_555
H16 C17 1_555 1_555
C18 C17 1_555 1_555
C19 C18 1_555 1_555
H17 C19 1_555 1_555
C20 C19 1_555 1_555
H18 C20 1_555 1_555
C21 N2 1_555 1_555
H19 C21 1_555 1_555
C22 C18 1_555 1_555
H20 C22 1_555 1_555
N3 C27 1_555 1_555
C23 C24 1_555 1_555
C24 C25 1_555 1_555
C25 C26 1_555 1_555
C26 C27 1_555 1_555
C28 N3 1_555 1_555
C29 C25 1_555 1_555
Co1E O1E 1_555 1_555
Co1E_2 O7 1_555 1_555
Co1C N2 1_555 1_555
Co1C_2 N1C 1_555 1_555
Co1D O1D 1_555 1_555
Co2D O1 1_555 1_555
Co2E O6 1_555 1_555
Co2E_2 O1E 1_555 1_555
Co2A O1E 1_555 1_555
O1D Co2 1_555 1_555
O1E H1E 1_555 1_555
H1D O1D 1_555 1_555
O2E Co1E 1_555 1_555
O2D Co1D 1_555 1_555
O3E C7E 1_555 1_555
O4E Co1E 1_555 1_555
O5E Co2A 1_555 1_555
O5D Co2 1_555 1_555
O6E Co2 1_555 1_555
O6A Co2D 1_555 1_555
O7E Co1 1_555 1_555
O7_2 Co1E 1_555 1_555
O8D Co2D 1_555 1_555
H2D O8D 1_555 1_555
H3D O8D 1_555 1_555
N1C C10C 1_555 1_555
N1E Co1E 1_555 1_555
N2C Co1 1_555 1_555
N2F Co1E 1_555 1_555
C1E C2E 1_555 1_555
C2E C3E 1_555 1_555
C3E C4E 1_555 1_555
C4E H4E 1_555 1_555
C5E C4E 1_555 1_555
H5E C5E 1_555 1_555
C6E C1E 1_555 1_555
H6E C6E 1_555 1_555
C7E O2E 1_555 1_555
C8E O4E 1_555 1_555
C9E O6E 1_555 1_555
C10C H7C 1_555 1_555
C11C C10C 1_555 1_555
H8C C11C 1_555 1_555
C12C C11C 1_555 1_555
C13C C12C 1_555 1_555
H9C C13C 1_555 1_555
C14C N1C 1_555 1_555
H10C C14C 1_555 1_555
C15C C12C 1_555 1_555
H11C C15C 1_555 1_555
H12C C15C 1_555 1_555
C16C C15C 1_555 1_555
H13C C16C 1_555 1_555
H14C C16C 1_555 1_555
C17C C16C 1_555 1_555
H15C C17C 1_555 1_555
H16C C17C 1_555 1_555
C18C C17C 1_555 1_555
C19C C18C 1_555 1_555
H17C C19C 1_555 1_555
C20C N2C 1_555 1_555
H18C C20C 1_555 1_555
C21C N2C 1_555 1_555
H19C C21C 1_555 1_555
C22C C18C 1_555 1_555
H20C C22C 1_555 1_555
N3A C27A 1_555 1_555
C23A C23 1_555 1_555
C24A C23 1_555 1_555
C25A C24A 1_555 1_555
C26A C25A 1_555 1_555
C27A C26A 1_555 1_555
C28A N3A 1_555 1_555
C29A C25A 1_555 1_555
Co2 O2 1_555 1_555
O5 Co2D 1_555 1_555
C1 C7 1_555 1_555
C2 C8 1_555 1_555
C5 C6 1_555 1_555
C13 C14 1_555 1_555
C21 C22 1_555 1_555
C24 C23A 1_555 1_555
C28 C29 1_555 1_555
Co2D O1D 1_555 1_555
Co2D O2D 1_555 1_555
Co2E_2 O2E 1_555 1_555
O5E C8E 1_555 1_555
O7E C9E 1_555 1_555
C1E C7E 1_555 1_555
C2E C8E 1_555 1_555
C3E C9E 1_555 1_555
C5E C6E 1_555 1_555
C13C C14C 1_555 1_555
C19C C20C 1_555 1_555
C21C C22C 1_555 1_555
C23A C24A 1_555 1_555
C28A C29A 1_555 1_555

#END
