
#######################################################################
#
#                 Cambridge Crystallographic Data Centre
#                                CCDC 
#
#######################################################################
#
# If this CIF has been generated from an entry in the Cambridge 
# Structural Database, then it will include bibliographic, chemical, 
# crystal, experimental, refinement or atomic coordinate data resulting 
# from the CCDC's data processing and validation procedures.
#
#######################################################################

data_WEHJOK
_symmetry_cell_setting           orthorhombic
_symmetry_space_group_name_H-M   'P 21 21 21'
_symmetry_Int_Tables_number      19
_space_group_name_Hall           'P 2ac 2ab'
loop_
_symmetry_equiv_pos_site_id
_symmetry_equiv_pos_as_xyz
1 x,y,z
2 1/2-x,-y,1/2+z
3 1/2+x,1/2-y,-z
4 -x,1/2+y,1/2-z
_cell_length_a                   21.883(2)
_cell_length_b                   21.883(2)
_cell_length_c                   40.1840(17)
_cell_angle_alpha                90
_cell_angle_beta                 90
_cell_angle_gamma                90
_cell_volume                     19242.7
loop_
_atom_site_label
_atom_site_type_symbol
_atom_site_fract_x
_atom_site_fract_y
_atom_site_fract_z
Zn1 Zn 0.18185(3) 0.01029(2) 0.285765(14)
Zn2 Zn -0.26248(3) 0.56897(2) 0.035150(13)
Zn3 Zn 0.22033(3) -0.34323(3) 0.289750(15)
Zn4 Zn -0.19345(3) 0.48235(3) -0.025363(14)
Zn5 Zn 0.25956(3) 0.08619(3) 0.226112(15)
Zn6 Zn -0.19075(3) 0.07237(3) 0.010460(13)
Zn7 Zn 0.37019(3) -0.46669(3) 0.032950(19)
Zn8 Zn -0.20024(3) 0.03027(3) 0.255620(16)
Zn9 Zn 0.34440(3) -0.39563(3) 0.255540(16)
Zn10 Zn 0.25083(4) -0.42299(3) -0.01151(2)
C1 C 0.1226(3) 0.0731(3) 0.23076(15)
C2 C 0.2728(2) -0.0451(2) 0.24283(14)
C3 C 0.7235(3) -0.3816(2) 0.21030(17)
C4 C 0.6981(2) -0.3524(2) 0.18033(14)
C5 C 0.7101(2) -0.3758(3) 0.14899(16)
H1 H 0.7374 -0.4082 0.1472
C6 C 0.6843(3) -0.3539(3) 0.12112(14)
C7 C 0.6448(3) -0.3024(3) 0.12261(14)
H2 H 0.6282 -0.2860 0.1033
C8 C 0.6313(2) -0.2766(2) 0.15395(13)
C9 C 0.6588(2) -0.3048(3) 0.18266(14)
H3 H 0.6493 -0.2896 0.2036
C10 C 0.5582(2) -0.2132(2) 0.13137(12)
H4 H 0.5356 -0.2487 0.1237
H5 H 0.5835 -0.1987 0.1132
C11 C 0.5140(2) -0.1634(2) 0.14197(12)
C12 C 0.4693(2) -0.1515(2) 0.11290(11)
H6 H 0.4393 -0.1209 0.1191
H7 H 0.4912 -0.1372 0.0934
C13 C 0.4782(2) -0.1823(2) 0.17222(12)
H8 H 0.4553 -0.2193 0.1675
H9 H 0.5058 -0.1906 0.1905
C14 C 0.4016(2) -0.2112(2) 0.07951(13)
C15 C 0.3776(2) -0.1618(2) 0.06297(13)
H10 H 0.3881 -0.1222 0.0691
C16 C 0.3364(2) -0.1726(2) 0.03625(13)
C17 C 0.3222(2) -0.2293(2) 0.02570(12)
H11 H 0.2949 -0.2352 0.0083
C18 C 0.3492(3) -0.2783(2) 0.04132(16)
C19 C 0.3888(2) -0.2689(2) 0.06800(13)
H12 H 0.4070 -0.3024 0.0782
C20 C 0.3357(3) -0.3423(2) 0.02951(15)
C21 C 0.3925(2) -0.1463(2) 0.20474(12)
C22 C 0.3589(2) -0.0952(2) 0.21270(12)
H13 H 0.3685 -0.0576 0.2032
C23 C 0.3105(2) -0.1000(2) 0.23497(12)
C24 C 0.2973(2) -0.1571(2) 0.24902(12)
H14 H 0.2641 -0.1616 0.2633
C25 C 0.3335(2) -0.2060(2) 0.24158(12)
C26 C 0.3815(2) -0.2007(2) 0.21982(13)
H15 H 0.4063 -0.2343 0.2154
C27 C 0.3194(3) -0.2665(2) 0.25550(13)
C28 C 0.6879(3) 0.0777(2) 0.17630(13)
C29 C 0.6739(2) 0.0405(2) 0.14493(12)
C30 C 0.6317(2) -0.0040(2) 0.14738(12)
H16 H 0.6110 -0.0099 0.1673
C31 C 0.6188(2) -0.0417(2) 0.11988(12)
C32 C 0.5496(2) -0.1058(2) 0.14863(12)
H17 H 0.5222 -0.0733 0.1554
H18 H 0.5790 -0.1127 0.1663
C33 C 0.6473(2) -0.0277(2) 0.08953(12)
H19 H 0.6377 -0.0501 0.0705
C34 C 0.6889(2) 0.0186(2) 0.08787(11)
C35 C 0.7024(2) 0.0521(2) 0.11460(12)
H20 H 0.7310 0.0833 0.1130
C36 C 0.7209(2) 0.0282(3) 0.05479(14)
C37 C -0.1072(3) 0.0775(3) 0.22037(16)
C38 C 0.2263(4) 0.4966(3) 0.17856(16)
C39 C 0.2196(3) 0.4573(3) 0.14789(14)
C40 C 0.2548(3) 0.4669(2) 0.11935(14)
H21 H 0.2855 0.4963 0.1196
C41 C 0.2451(2) 0.4350(2) 0.09222(12)
C42 C 0.2811(3) 0.4491(2) 0.06131(13)
C43 C -0.0517(3) 0.0512(3) -0.00102(14)
C44 C 0.2047(3) 0.3877(2) 0.09135(12)
H22 H 0.1992 0.3654 0.0719
C45 C 0.1716(3) 0.3728(2) 0.11978(14)
C46 C 0.1771(3) 0.4098(2) 0.14804(12)
H23 H 0.1528 0.4028 0.1666
C47 C 0.1146(2) 0.2932(2) 0.09532(12)
H24 H 0.1478 0.2658 0.0897
H25 H 0.1063 0.3191 0.0762
C48 C 0.0574(2) 0.2568(2) 0.10480(11)
C49 C 0.0726(2) 0.2153(2) 0.13281(13)
H26 H 0.1044 0.1869 0.1261
H27 H 0.0874 0.2387 0.1516
C50 C 0.0205(3) 0.1495(2) 0.17021(13)
C51 C 0.0722(2) 0.1285(2) 0.18657(14)
H28 H 0.1108 0.1384 0.1786
C52 C 0.0664(2) 0.0938(2) 0.21385(13)
C53 C 0.0098(2) 0.0760(2) 0.22641(13)
H29 H 0.0070 0.0518 0.2454
C54 C -0.0440(2) 0.0961(2) 0.20932(13)
C55 C -0.0378(2) 0.1321(2) 0.18127(14)
H30 H -0.0723 0.1449 0.1697
C56 C 0.0071(2) 0.2983(2) 0.11595(12)
H31 H -0.0273 0.2744 0.1238
H32 H 0.0213 0.3240 0.1341
C57 C -0.0548(2) 0.3791(2) 0.09448(14)
C58 C -0.0756(2) 0.3961(2) 0.12580(13)
H33 H -0.0604 0.3763 0.1446
C59 C -0.1178(3) 0.4412(2) 0.12938(13)
C60 C -0.1377(3) 0.4595(3) 0.16324(17)
C61 C -0.1444(3) 0.4661(2) 0.10234(14)
H34 H -0.1735 0.4967 0.1049
C62 C -0.1281(3) 0.4456(2) 0.06971(13)
C63 C -0.0821(2) 0.4044(2) 0.06675(12)
H35 H -0.0688 0.3929 0.0457
C64 C -0.1574(3) 0.4725(3) 0.04077(16)
C65 C 0.3082(3) -0.1172(2) 0.01932(15)
C66 C 0.6964(3) -0.3756(3) 0.0843(2)
C67 C 0.1762(3) 0.0209(3) 0.00280(15)
C68 C 0.1197(2) 0.0547(2) 0.01134(13)
C69 C 0.1239(2) 0.1053(2) 0.03306(13)
H36 H 0.1617 0.1164 0.0418
C70 C 0.0731(3) 0.1377(2) 0.04136(13)
C71 C 0.0335(2) 0.2198(2) 0.07443(12)
H37 H 0.0001 0.1933 0.0810
H38 H 0.0193 0.2471 0.0571
C72 C 0.0152(2) 0.1219(2) 0.02964(13)
H39 H -0.0190 0.1447 0.0356
C73 C 0.0094(2) 0.0714(2) 0.00897(12)
C74 C 0.0592(2) 0.0381(2) 0.00063(11)
H40 H 0.0542 0.0034 -0.0124
O1 O 0.11762(16) 0.04197(16) 0.25753(10)
O2 O 0.17291(16) 0.09091(18) 0.21989(9)
O3 O 0.28690(17) 0.00284(16) 0.22861(9)
O4 O 0.23146(17) -0.05194(15) 0.26440(9)
O5 O 0.7615(2) -0.4200(2) 0.20797(11)
O6 O 0.70630(18) -0.36378(17) 0.23910(10)
O7 O 0.59563(16) -0.22944(15) 0.15898(8)
O8 O 0.43823(16) -0.13551(14) 0.18089(8)
O9 O 0.44002(16) -0.20839(14) 0.10612(9)
O10 O 0.35481(16) -0.30957(15) 0.24793(9)
O11 O 0.27459(18) -0.27059(14) 0.27553(9)
O12 O 0.37083(18) -0.38243(15) 0.04231(10)
O13 O 0.2964(2) -0.35061(17) 0.00973(12)
O14 O 0.24867(15) -0.39587(15) 0.24815(8)
O15 O 0.65512(17) 0.06690(17) 0.20111(8)
O16 O 0.72768(16) 0.11620(15) 0.17482(8)
O17 O -0.15105(18) 0.0953(2) 0.20226(10)
O18 O -0.11306(18) 0.0485(2) 0.24652(10)
O19 O 0.1925(2) 0.4849(2) 0.20303(10)
O20 O 0.2665(3) 0.5347(3) 0.17796(12)
O21 O -0.05541(15) 0.00532(17) -0.01998(9)
O22 O -0.09870(16) 0.08126(15) 0.00914(9)
O23 O 0.32188(19) 0.48844(19) 0.06525(8)
O24 O 0.27078(15) 0.42156(15) 0.03450(8)
O25 O -0.17991(15) -0.02158(13) 0.00763(9)
O26 O 0.1960(4) -0.4255(5) 0.03133(19)
O27 O 0.70267(17) -0.00386(17) 0.03020(9)
O28 O 0.2671(3) -0.3900(3) -0.06210(17)
O29 O -0.1966(2) 0.16463(16) 0.01360(10)
O30 O 0.2957(3) 0.1160(2) 0.18641(12)
O31 O 0.4490(3) -0.3992(3) 0.26030(17)
O32 O 0.3611(2) -0.4420(2) 0.21617(11)
O33 O -0.2270(3) -0.0314(2) 0.22152(13)
O34 O 0.1854(2) -0.28660(19) 0.32964(11)
O35 O 0.1458(3) -0.2961(3) 0.25881(18)
O36 O 0.76385(18) 0.06587(16) 0.05333(8)
O37 O 0.12987(18) 0.32840(16) 0.12255(8)
O38 O 0.57983(16) -0.08959(16) 0.11944(8)
O39 O 0.02042(16) 0.18359(17) 0.14155(9)
O40 O -0.1186(2) 0.4322(2) 0.18879(10)
O41 O -0.17118(19) 0.50437(18) 0.16622(9)
O42 O -0.14398(19) 0.45225(16) 0.01248(10)
O43 O -0.1943(2) 0.5133(2) 0.04504(10)
O44 O -0.1596(3) 0.4327(3) -0.06108(15)
O45 O 0.32276(19) -0.06657(15) 0.03151(9)
O46 O 0.27337(17) -0.12739(15) -0.00396(10)
O47 O 0.22279(19) 0.0383(2) 0.01561(12)
O48 O 0.16957(15) -0.02401(16) -0.01606(9)
O49 O 0.7324(2) -0.4198(3) 0.08379(11)
O50 O 0.6742(3) -0.3580(3) 0.06135(12)
O51 O 0.08507(16) 0.18427(16) 0.06293(9)
O52 O -0.01107(18) 0.33509(17) 0.08876(8)
N1 N 0.2783(12) -0.3529(9) -0.1146(4)
C75 C 0.2728(14) -0.3418(9) -0.0852(4)
C76 C 0.2936(13) -0.2795(7) -0.0680(6)
C77 C 0.3160(16) -0.4107(12) -0.1247(7)
C78 C 0.3590(14) -0.2953(15) -0.0547(9)
C79 C 0.2666(8) -0.3084(7) -0.1410(4)
C80 C -0.1888(14) 0.2169(9) 0.0315(6)
N2 N -0.2245(12) 0.2568(9) 0.0217(7)
C81 C -0.1616(12) 0.1892(11) 0.0922(6)
C82 C -0.2035(19) 0.3046(14) -0.0015(8)
C83 C -0.1443(10) 0.2179(12) 0.0611(5)
C84 C -0.2896(13) 0.243(3) 0.0332(14)
Zn1C Zn 0.81815(3) -0.48971(2) 0.214235(14)
Zn1C_2 Zn -0.18185(3) 0.51029(2) 0.214235(14)
Zn2B Zn 0.23752(3) -0.06897(2) -0.035150(13)
Zn2_2 Zn 0.73752(3) -0.43103(2) 0.035150(13)
Zn3C Zn 0.77967(3) 0.15677(3) 0.210250(15)
Zn3C_2 Zn -0.22033(3) 0.15677(3) 0.210250(15)
Zn4B Zn 0.30655(3) 0.01765(3) 0.025363(14)
Zn5C Zn 0.74044(3) -0.41381(3) 0.273888(15)
Zn6B Zn 0.30925(3) 0.42763(3) -0.010460(13)
Zn6_2 Zn 0.80925(3) 0.07237(3) 0.010460(13)
Zn7B Zn -0.12981(3) -0.03331(3) -0.032950(19)
Zn7_2 Zn 0.37019(3) 0.53331(3) 0.032950(19)
Zn8C Zn 0.20024(3) -0.46973(3) 0.244380(16)
Zn8C_2 Zn 0.20024(3) 0.53027(3) 0.244380(16)
Zn9C Zn 0.65560(3) 0.10437(3) 0.244460(16)
Zn10B Zn -0.24917(4) -0.07701(3) 0.01151(2)
Zn10B_2 Zn 0.75083(4) -0.07701(3) 0.01151(2)
O5C O 0.2385(2) 0.0800(2) 0.29203(11)
O6C O 0.29370(18) 0.13622(17) 0.26090(10)
O14C O -0.24867(15) 0.10413(15) 0.25185(8)
O15C O 0.34488(17) -0.43310(17) 0.29889(8)
O16C O 0.27232(16) -0.38380(15) 0.32518(8)
O17C O 0.15105(18) -0.4047(2) 0.29774(10)
O19C O -0.1925(2) -0.0151(2) 0.29697(10)
O21B O 0.44459(15) -0.50532(17) 0.01998(9)
O23_2 O 0.32188(19) -0.51156(19) 0.06525(8)
O24B O -0.22922(15) 0.07844(15) -0.03450(8)
O25B O 0.32009(15) -0.47842(13) -0.00763(9)
O27B O 0.20267(17) -0.49614(17) -0.03020(9)
O36_2 O -0.23615(18) 0.06587(16) 0.05333(8)
O41C O 0.17118(19) 0.00437(18) 0.33378(9)
O45B O -0.17724(19) 0.56657(15) -0.03151(9)
O46B O -0.22663(17) 0.62739(15) 0.00396(10)
O47B O -0.27721(19) 0.4617(2) -0.01561(12)
O48B O -0.33043(15) 0.52401(16) 0.01606(9)
O49_2 O -0.2676(2) 0.5802(3) 0.08379(11)
O53 O 0.5605(10) 0.0397(12) 0.4204(4)
loop_
_geom_bond_atom_site_label_1
_geom_bond_atom_site_label_2
_geom_bond_site_symmetry_1
_geom_bond_site_symmetry_2
Zn1 O1 1_555 1_555
Zn2 O43 1_555 1_555
Zn3 O11 1_555 1_555
Zn4 O42 1_555 1_555
Zn5 O2 1_555 1_555
Zn6 O22 1_555 1_555
Zn7 O12 1_555 1_555
Zn8 O18 1_555 1_555
Zn9 O10 1_555 1_555
Zn10 O13 1_555 1_555
C1 C52 1_555 1_555
C2 C23 1_555 1_555
C3 C4 1_555 1_555
C4 C5 1_555 1_555
C5 H1 1_555 1_555
C6 C5 1_555 1_555
C7 C6 1_555 1_555
H2 C7 1_555 1_555
C8 C7 1_555 1_555
C9 C4 1_555 1_555
H3 C9 1_555 1_555
C10 H4 1_555 1_555
H5 C10 1_555 1_555
C11 C10 1_555 1_555
C12 C11 1_555 1_555
H6 C12 1_555 1_555
H7 C12 1_555 1_555
C13 C11 1_555 1_555
H8 C13 1_555 1_555
H9 C13 1_555 1_555
C14 C15 1_555 1_555
C15 H10 1_555 1_555
C16 C15 1_555 1_555
C17 C16 1_555 1_555
H11 C17 1_555 1_555
C18 C17 1_555 1_555
C19 C14 1_555 1_555
H12 C19 1_555 1_555
C20 C18 1_555 1_555
C21 C22 1_555 1_555
C22 H13 1_555 1_555
C23 C22 1_555 1_555
C24 C23 1_555 1_555
H14 C24 1_555 1_555
C25 C24 1_555 1_555
C26 C21 1_555 1_555
H15 C26 1_555 1_555
C27 C25 1_555 1_555
C28 C29 1_555 1_555
C29 C30 1_555 1_555
C30 H16 1_555 1_555
C31 C30 1_555 1_555
C32 C11 1_555 1_555
H17 C32 1_555 1_555
H18 C32 1_555 1_555
C33 C31 1_555 1_555
H19 C33 1_555 1_555
C34 C33 1_555 1_555
C35 C29 1_555 1_555
H20 C35 1_555 1_555
C36 C34 1_555 1_555
C37 C54 1_555 1_555
C38 C39 1_555 1_555
C39 C40 1_555 1_555
C40 H21 1_555 1_555
C41 C40 1_555 1_555
C42 C41 1_555 1_555
C43 C73 1_555 1_555
C44 C41 1_555 1_555
H22 C44 1_555 1_555
C45 C44 1_555 1_555
C46 C39 1_555 1_555
H23 C46 1_555 1_555
C47 H24 1_555 1_555
H25 C47 1_555 1_555
C48 C47 1_555 1_555
C49 C48 1_555 1_555
H26 C49 1_555 1_555
H27 C49 1_555 1_555
C50 C51 1_555 1_555
C51 H28 1_555 1_555
C52 C51 1_555 1_555
C53 C52 1_555 1_555
H29 C53 1_555 1_555
C54 C53 1_555 1_555
C55 C50 1_555 1_555
H30 C55 1_555 1_555
C56 C48 1_555 1_555
H31 C56 1_555 1_555
H32 C56 1_555 1_555
C57 C58 1_555 1_555
C58 H33 1_555 1_555
C59 C58 1_555 1_555
C60 C59 1_555 1_555
C61 C59 1_555 1_555
H34 C61 1_555 1_555
C62 C61 1_555 1_555
C63 C57 1_555 1_555
H35 C63 1_555 1_555
C64 C62 1_555 1_555
C65 C16 1_555 1_555
C66 C6 1_555 1_555
C67 C68 1_555 1_555
C68 C69 1_555 1_555
C69 H36 1_555 1_555
C70 C69 1_555 1_555
C71 C48 1_555 1_555
H37 C71 1_555 1_555
H38 C71 1_555 1_555
C72 C70 1_555 1_555
H39 C72 1_555 1_555
C73 C72 1_555 1_555
C74 C68 1_555 1_555
H40 C74 1_555 1_555
O1 C1 1_555 1_555
O2 C1 1_555 1_555
O3 Zn5 1_555 1_555
O4 Zn1 1_555 1_555
O5 C3 1_555 1_555
O6 C3 1_555 1_555
O7 C8 1_555 1_555
O8 C13 1_555 1_555
O9 C12 1_555 1_555
O10 C27 1_555 1_555
O11 C27 1_555 1_555
O12 C20 1_555 1_555
O13 C20 1_555 1_555
O14 Zn3 1_555 1_555
O15 C28 1_555 1_555
O16 C28 1_555 1_555
O17 C37 1_555 1_555
O18 C37 1_555 1_555
O19 C38 1_555 1_555
O20 C38 1_555 1_555
O21 C43 1_555 1_555
O22 C43 1_555 1_555
O23 C42 1_555 1_555
O24 C42 1_555 1_555
O25 Zn6 1_555 1_555
O26 Zn10 1_555 1_555
O27 C36 1_555 1_555
O28 Zn10 1_555 1_555
O29 Zn6 1_555 1_555
O30 Zn5 1_555 1_555
O31 Zn9 1_555 1_555
O32 Zn9 1_555 1_555
O33 Zn8 1_555 1_555
O34 Zn3 1_555 1_555
O35 Zn3 1_555 1_555
O36 C36 1_555 1_555
O37 C45 1_555 1_555
O38 C31 1_555 1_555
O39 C49 1_555 1_555
O40 C60 1_555 1_555
O41 C60 1_555 1_555
O42 C64 1_555 1_555
O43 C64 1_555 1_555
O44 Zn4 1_555 1_555
O45 C65 1_555 1_555
O46 C65 1_555 1_555
O47 C67 1_555 1_555
O48 C67 1_555 1_555
O49 C66 1_555 1_555
O50 C66 1_555 1_555
O51 C70 1_555 1_555
O52 C56 1_555 1_555
N1 C75 1_555 1_555
C75 O28 1_555 1_555
C76 C75 1_555 1_555
C77 N1 1_555 1_555
C78 C76 1_555 1_555
C79 N1 1_555 1_555
C80 O29 1_555 1_555
N2 C80 1_555 1_555
C81 C83 1_555 1_555
C82 N2 1_555 1_555
C83 C80 1_555 1_555
C84 N2 1_555 1_555
Zn1C O5 1_555 1_555
Zn1C_2 O41 1_555 1_555
Zn2B O46 1_555 1_555
Zn2_2 O49 1_555 1_555
Zn3C O16 1_555 1_555
Zn3C_2 O17 1_555 1_555
Zn4B O45 1_555 1_555
Zn5C O6 1_555 1_555
Zn6B O24 1_555 1_555
Zn6_2 O36 1_555 1_555
Zn7B O21 1_555 1_555
Zn7_2 O23 1_555 1_555
Zn8C O14 1_555 1_555
Zn8C_2 O19 1_555 1_555
Zn9C O15 1_555 1_555
Zn10B O25 1_555 1_555
Zn10B_2 O27 1_555 1_555
O5C Zn1 1_555 1_555
O6C Zn5 1_555 1_555
O14C Zn8 1_555 1_555
O15C Zn9 1_555 1_555
O16C Zn3 1_555 1_555
O17C Zn3 1_555 1_555
O19C Zn8 1_555 1_555
O21B Zn7 1_555 1_555
O23_2 Zn7 1_555 1_555
O24B Zn6 1_555 1_555
O25B Zn7 1_555 1_555
O27B Zn10 1_555 1_555
O36_2 Zn6 1_555 1_555
O41C Zn1 1_555 1_555
O45B Zn4 1_555 1_555
O46B Zn2 1_555 1_555
O47B Zn4 1_555 1_555
O48B Zn2 1_555 1_555
O49_2 Zn2 1_555 1_555
Zn9 O14 1_555 1_555
Zn10 O25B 1_555 1_555
C2 O3 1_555 1_555
C2 O4 1_555 1_555
C8 C9 1_555 1_555
C10 O7 1_555 1_555
C14 O9 1_555 1_555
C18 C19 1_555 1_555
C21 O8 1_555 1_555
C25 C26 1_555 1_555
C32 O38 1_555 1_555
C34 C35 1_555 1_555
C45 C46 1_555 1_555
C47 O37 1_555 1_555
C50 O39 1_555 1_555
C54 C55 1_555 1_555
C57 O52 1_555 1_555
C62 C63 1_555 1_555
C71 O51 1_555 1_555
C73 C74 1_555 1_555
O25 Zn7B 1_555 1_555
O47 Zn4B 1_555 1_555
O48 Zn2B 1_555 1_555
Zn3C_2 O14C 1_555 1_555

#END
