
#######################################################################
#
#                 Cambridge Crystallographic Data Centre
#                                CCDC 
#
#######################################################################
#
# If this CIF has been generated from an entry in the Cambridge 
# Structural Database, then it will include bibliographic, chemical, 
# crystal, experimental, refinement or atomic coordinate data resulting 
# from the CCDC's data processing and validation procedures.
#
#######################################################################

data_WEHJEA
_symmetry_cell_setting           tetragonal
_symmetry_space_group_name_H-M   'P 43 21 2'
_symmetry_Int_Tables_number      96
_space_group_name_Hall           'P 4nw 2abw'
loop_
_symmetry_equiv_pos_site_id
_symmetry_equiv_pos_as_xyz
1 x,y,z
2 -x,-y,1/2+z
3 1/2+x,1/2-y,1/4-z
4 1/2-x,1/2+y,3/4-z
5 -y,-x,1/2-z
6 y,x,-z
7 1/2+y,1/2-x,1/4+z
8 1/2-y,1/2+x,3/4+z
_cell_length_a                   21.553(2)
_cell_length_b                   21.553(2)
_cell_length_c                   40.781(5)
_cell_angle_alpha                90
_cell_angle_beta                 90
_cell_angle_gamma                90
_cell_volume                     18944.1
loop_
_atom_site_label
_atom_site_type_symbol
_atom_site_fract_x
_atom_site_fract_y
_atom_site_fract_z
Zn1 Zn 0.62001(3) 0.91525(3) 0.627143(17)
Zn2 Zn 0.55000(4) 1.03371(3) 0.584620(15)
Zn3 Zn 1.05893(4) 1.06330(4) 0.606220(17)
Zn4 Zn 0.99125(3) 0.96549(4) 0.660625(17)
C1 C 0.8304(3) 1.2725(3) 0.52079(17)
C2 C 0.8030(3) 1.2450(3) 0.49053(15)
H1 H 0.7666 1.2209 0.4962
H2 H 0.7902 1.2779 0.4758
C3 C 0.8859(3) 1.3119(3) 0.51037(13)
H3 H 0.9162 1.2859 0.4994
H4 H 0.8724 1.3436 0.4951
C4 C 0.7831(3) 1.3134(3) 0.53705(13)
H5 H 0.7469 1.2894 0.5433
H6 H 0.8004 1.3325 0.5565
C5 C 0.8481(3) 1.2240(3) 0.54590(15)
H7 H 0.8791 1.1963 0.5368
H8 H 0.8656 1.2439 0.5651
C6 C 0.8036(2) 1.1378(4) 0.57216(15)
C7 C 0.7493(3) 1.1066(2) 0.58015(13)
H9 H 0.7111 1.1224 0.5736
C8 C 0.7519(3) 1.0516(3) 0.59797(15)
C9 C 0.6862(3) 1.0183(3) 0.60278(18)
C10 C 0.8059(2) 1.0295(4) 0.61021(13)
H10 H 0.8065 0.9936 0.6229
C11 C 0.8603(3) 1.0615(3) 0.60336(14)
C12 C 0.8586(3) 1.1147(3) 0.58414(14)
H11 H 0.8954 1.1352 0.5793
C13 C 0.9200(4) 1.0393(4) 0.6136(2)
C14 C 0.8319(3) 1.1730(4) 0.44732(17)
C15 C 0.7723(3) 1.1696(3) 0.43443(17)
H12 H 0.7400 1.1909 0.4445
C16 C 0.7611(3) 1.1342(3) 0.40656(19)
C17 C 0.6922(4) 1.1284(4) 0.3913(2)
C18 C 0.8090(3) 1.1039(4) 0.39297(14)
H13 H 0.8017 1.0791 0.3747
C19 C 0.8692(3) 1.1081(3) 0.40507(15)
C20 C 0.8812(3) 1.1433(3) 0.43292(17)
H14 H 0.9211 1.1465 0.4415
C21 C 0.9237(4) 1.0752(4) 0.39013(17)
C22 C 0.9532(3) 1.3905(3) 0.53376(15)
C23 C 0.9732(3) 1.4193(2) 0.56237(10)
H15 H 0.9615 1.4035 0.5827
C24 C 1.0106(3) 1.4717(3) 0.56064(15)
C25 C 1.0319(3) 1.4973(4) 0.59405(17)
C26 C 1.0225(2) 1.4979(2) 0.53068(16)
H16 H 1.0452 1.5345 0.5295
C27 C 1.0008(3) 1.4704(3) 0.50204(11)
C28 C 0.9649(3) 1.4170(3) 0.50365(12)
H17 H 0.9489 1.3993 0.4846
C29 C 1.0140(4) 1.4968(3) 0.46848(17)
C30 C 0.7095(3) 1.3873(3) 0.5167(2)
C31 C 0.6807(3) 1.4070(4) 0.48802(12)
H18 H 0.7003 1.4015 0.4679
C32 C 0.6227(3) 1.4350(4) 0.48941(18)
C33 C 0.5962(4) 1.4533(5) 0.4568(2)
C34 C 0.5910(3) 1.4439(3) 0.51959(19)
H19 H 0.5514 1.4610 0.5201
C35 C 0.6208(3) 1.4261(3) 0.54830(12)
C36 C 0.6779(3) 1.3963(3) 0.54678(15)
H20 H 0.6959 1.3819 0.5661
C37 C 0.5925(4) 1.4365(4) 0.5813(2)
O1 O 0.6377(2) 1.0419(2) 0.59199(11)
O2 O 0.6927(2) 0.96340(18) 0.61732(11)
O3 O 0.5348(2) 1.13140(17) 0.58406(9)
O4 O 1.0042(2) 1.4698(2) 0.44332(9)
O5 O 1.0308(2) 1.5527(2) 0.46774(9)
O6 O 1.0975(3) 1.0993(3) 0.56554(10)
O7 O 0.9218(2) 0.9948(2) 0.63491(11)
O8 O 0.9692(2) 1.0622(2) 0.60369(11)
O9 O 0.6205(3) 1.4456(3) 0.43198(11)
O10 O 0.5409(3) 1.4775(3) 0.45923(11)
O11 O 1.07260(19) 1.5417(2) 0.59050(10)
O12 O 1.01800(18) 1.4724(2) 0.61981(9)
O13 O 0.9131(2) 1.04540(19) 0.36384(11)
O14 O 0.9748(2) 1.0805(2) 0.40408(10)
O15 O 0.6170(2) 1.4204(2) 0.60757(12)
O16 O 0.5413(2) 1.4568(3) 0.58158(12)
O17 O 0.6555(2) 1.1564(2) 0.40459(10)
O18 O 0.6837(3) 1.0999(3) 0.36898(15)
O19 O 0.56970(17) 0.92585(17) 0.58499(8)
O20 O 0.7955(2) 1.19020(19) 0.55474(11)
O21 O 0.8470(2) 1.2062(2) 0.47455(12)
O22 O 0.7664(2) 1.3600(2) 0.51347(10)
O23 O 0.9136(2) 1.3404(2) 0.53832(9)
N1 N 0.5473(4) 0.8641(4) 0.5444(2)
C38 C 0.5255(4) 0.8840(4) 0.5768(2)
C39 C 0.6072(5) 0.8668(5) 0.5260(2)
C40 C 0.4948(5) 0.8204(5) 0.5343(2)
C41 C 0.4701(4) 0.8704(4) 0.59675(19)
Zn1B Zn 1.12001(3) 1.58475(3) 0.622857(17)
Zn1G Zn 0.58475(3) 1.12001(3) 0.377143(17)
Zn2E Zn 1.03371(3) 1.55000(4) 0.415380(15)
Zn2B Zn 1.05000(4) 1.46629(3) 0.665380(15)
Zn3E Zn 1.06330(4) 1.05893(4) 0.393780(17)
Zn3B Zn 0.55893(4) 1.43670(4) 0.643780(17)
Zn4G Zn 0.53451(4) 1.49125(3) 0.410625(17)
Zn4E Zn 0.96549(4) 0.99125(3) 0.339375(17)
Zn4B Zn 0.49125(3) 1.53451(4) 0.589375(17)
O4E O 0.4698(2) 1.0042(2) 0.55668(9)
O5E O 0.5527(2) 1.0308(2) 0.53226(9)
O9F O 0.9456(3) 0.8795(3) 0.68198(11)
O10F O 0.9775(3) 0.9591(3) 0.70923(11)
O11B O 0.57260(19) 0.9583(2) 0.65950(10)
O12B O 0.51800(18) 1.0276(2) 0.63019(9)
O13E O 1.04540(19) 0.9131(2) 0.63616(11)
O14E O 1.0805(2) 0.9748(2) 0.59592(10)
O15B O 1.1170(2) 1.0796(2) 0.64243(12)
O16B O 1.0413(2) 1.0432(3) 0.66842(12)
O17F O 0.6564(2) 0.8445(2) 0.65459(10)
O18F O 0.5999(3) 0.8163(3) 0.61898(15)
O24 O 0.6730(4) 0.4539(4) 0.85823(18)
loop_
_geom_bond_atom_site_label_1
_geom_bond_atom_site_label_2
_geom_bond_site_symmetry_1
_geom_bond_site_symmetry_2
Zn1 O2 1_555 1_555
Zn2 O1 1_555 1_555
Zn3 O6 1_555 1_555
Zn4 O7 1_555 1_555
C1 C2 1_555 1_555
C2 H1 1_555 1_555
H2 C2 1_555 1_555
C3 C1 1_555 1_555
H3 C3 1_555 1_555
H4 C3 1_555 1_555
C4 C1 1_555 1_555
H5 C4 1_555 1_555
H6 C4 1_555 1_555
C5 C1 1_555 1_555
H7 C5 1_555 1_555
H8 C5 1_555 1_555
C6 C7 1_555 1_555
C7 H9 1_555 1_555
C8 C7 1_555 1_555
C9 C8 1_555 1_555
C10 C8 1_555 1_555
H10 C10 1_555 1_555
C11 C10 1_555 1_555
C12 C6 1_555 1_555
H11 C12 1_555 1_555
C13 C11 1_555 1_555
C14 C15 1_555 1_555
C15 H12 1_555 1_555
C16 C15 1_555 1_555
C17 C16 1_555 1_555
C18 C16 1_555 1_555
H13 C18 1_555 1_555
C19 C18 1_555 1_555
C20 C14 1_555 1_555
H14 C20 1_555 1_555
C21 C19 1_555 1_555
C22 C23 1_555 1_555
C23 H15 1_555 1_555
C24 C23 1_555 1_555
C25 C24 1_555 1_555
C26 C24 1_555 1_555
H16 C26 1_555 1_555
C27 C26 1_555 1_555
C28 C22 1_555 1_555
H17 C28 1_555 1_555
C29 C27 1_555 1_555
C30 C31 1_555 1_555
C31 H18 1_555 1_555
C32 C31 1_555 1_555
C33 C32 1_555 1_555
C34 C32 1_555 1_555
H19 C34 1_555 1_555
C35 C34 1_555 1_555
C36 C30 1_555 1_555
H20 C36 1_555 1_555
C37 C35 1_555 1_555
O1 C9 1_555 1_555
O2 C9 1_555 1_555
O3 Zn2 1_555 1_555
O4 C29 1_555 1_555
O5 C29 1_555 1_555
O7 C13 1_555 1_555
O8 Zn3 1_555 1_555
O9 C33 1_555 1_555
O10 C33 1_555 1_555
O11 C25 1_555 1_555
O12 C25 1_555 1_555
O13 C21 1_555 1_555
O14 C21 1_555 1_555
O15 C37 1_555 1_555
O16 C37 1_555 1_555
O17 C17 1_555 1_555
O18 C17 1_555 1_555
O19 Zn1 1_555 1_555
O20 C5 1_555 1_555
O21 C2 1_555 1_555
O22 C4 1_555 1_555
O23 C3 1_555 1_555
N1 C38 1_555 1_555
C38 O19 1_555 1_555
C39 N1 1_555 1_555
C40 N1 1_555 1_555
C41 C38 1_555 1_555
Zn1B O11 1_555 1_555
Zn1G O17 1_555 1_555
Zn2E O4 1_555 1_555
Zn2B O12 1_555 1_555
Zn3E O14 1_555 1_555
Zn3B O15 1_555 1_555
Zn4G O9 1_555 1_555
Zn4E O13 1_555 1_555
Zn4B O16 1_555 1_555
O4E Zn2 1_555 1_555
O5E Zn2 1_555 1_555
O9F Zn4 1_555 1_555
O10F Zn4 1_555 1_555
O11B Zn1 1_555 1_555
O12B Zn2 1_555 1_555
O13E Zn4 1_555 1_555
O14E Zn3 1_555 1_555
O15B Zn3 1_555 1_555
O16B Zn4 1_555 1_555
O17F Zn1 1_555 1_555
O18F Zn1 1_555 1_555
C6 O20 1_555 1_555
C11 C12 1_555 1_555
C13 O8 1_555 1_555
C14 O21 1_555 1_555
C19 C20 1_555 1_555
C22 O23 1_555 1_555
C27 C28 1_555 1_555
C30 O22 1_555 1_555
C35 C36 1_555 1_555
O5 Zn2E 1_555 1_555
O10 Zn4G 1_555 1_555
O18 Zn1G 1_555 1_555

#END
