
#######################################################################
#
#                 Cambridge Crystallographic Data Centre
#                                CCDC 
#
#######################################################################
#
# If this CIF has been generated from an entry in the Cambridge 
# Structural Database, then it will include bibliographic, chemical, 
# crystal, experimental, refinement or atomic coordinate data resulting 
# from the CCDC's data processing and validation procedures.
#
#######################################################################

data_WEMFOL
_symmetry_cell_setting           monoclinic
_symmetry_space_group_name_H-M   'P 21/n'
_symmetry_Int_Tables_number      14
_space_group_name_Hall           '-P 2yn'
loop_
_symmetry_equiv_pos_site_id
_symmetry_equiv_pos_as_xyz
1 x,y,z
2 1/2-x,1/2+y,1/2-z
3 -x,-y,-z
4 1/2+x,1/2-y,1/2+z
_cell_length_a                   9.6205(19)
_cell_length_b                   11.564(2)
_cell_length_c                   12.229(2)
_cell_angle_alpha                90
_cell_angle_beta                 99.04(3)
_cell_angle_gamma                90
_cell_volume                     1343.6
loop_
_atom_site_label
_atom_site_type_symbol
_atom_site_fract_x
_atom_site_fract_y
_atom_site_fract_z
Ho1 Ho 0.21502(2) 0.487619(15) 0.832850(15)
O1 O 0.3113(4) 0.3646(2) 0.7075(3)
O2 O 0.3644(4) 0.1821(3) 0.6707(3)
O3 O 0.3970(4) 0.6122(3) 0.9373(3)
O4 O 0.5878(4) 0.6179(3) 1.0671(3)
O5 O 0.1787(4) 0.1066(3) 0.7955(3)
O6 O 0.1382(4) 0.2892(3) 0.8437(3)
O7 O -0.1821(4) 0.5113(3) 0.9779(3)
O8 O -0.0326(4) 0.4907(3) 0.8565(3)
O9 O 0.0539(4) 0.4807(3) 0.6574(3)
H1 H 0.0061 0.4186 0.6536
H2 H -0.0013 0.5385 0.6532
H3 H 0.1010 0.4830 0.6041
C1 C 0.2990(5) 0.2571(3) 0.7170(4)
C2 C 0.4958(5) 0.5662(4) 1.0014(4)
C3 C 0.1967(5) 0.2140(3) 0.7923(4)
C4 C -0.0627(5) 0.5001(3) 0.9523(4)
Ho1B Ho -0.21502(2) 0.512381(15) 1.167150(15)
Ho1A Ho 0.28498(2) -0.012381(15) 0.667150(15)
Ho1B_2 Ho 0.78498(2) 0.512381(15) 1.167150(15)
Ho1A_2 Ho 0.28498(2) 0.987619(15) 0.667150(15)
O1A O 0.1887(4) -0.1354(2) 0.7925(3)
O1A_2 O 0.1887(4) 0.8646(2) 0.7925(3)
O2A O 0.1356(4) 0.6821(3) 0.8293(3)
O3B O 0.6030(4) 0.3878(3) 1.0627(3)
O3A O 0.1030(4) 0.1122(3) 0.5627(3)
O4B O 0.4122(4) 0.3821(3) 0.9329(3)
O4C O 0.0878(4) -0.1179(3) 0.5671(3)
O5A O 0.3213(4) 0.6066(3) 0.7045(3)
O6A O 0.3618(4) -0.2108(3) 0.6563(3)
O6A_2 O 0.3618(4) 0.7892(3) 0.6563(3)
O7B O 0.1821(4) 0.4887(3) 1.0221(3)
O7C O 0.3179(4) -0.0113(3) 0.4779(3)
O8B O 0.0326(4) 0.5093(3) 1.1435(3)
O8A O 0.5326(4) -0.0093(3) 0.6435(3)
O9A O 0.4461(4) -0.0193(3) 0.8426(3)
H1A H 0.4939 -0.0814 0.8464
H2A H 0.5013 0.0385 0.8468
H3A H 0.3990 -0.0170 0.8959
C1A C 0.2010(5) 0.7571(3) 0.7830(4)
C2B C 0.5042(5) 0.4338(4) 0.9986(4)
C3A C 0.3033(5) 0.7140(3) 0.7077(4)
C4B C 0.0627(5) 0.4999(3) 1.0477(4)
O10 O -0.1891(11) 0.2508(8) 0.6663(8)
H4 H -0.1216 0.2536 0.6329
C5 C -0.3464(9) 0.3758(9) 0.7537(6)
H5 H -0.3646 0.4551 0.7698
H6 H -0.3255 0.3332 0.8217
H7 H -0.4278 0.3431 0.7090
C6 C -0.2284(5) 0.3696(5) 0.6950(4)
H8 H -0.1478 0.4054 0.7400
H9 H -0.2501 0.4142 0.6274
O11 O 0.3248(8) 0.5059(4) 0.4936(5)
H10 H 0.3009 0.5525 0.5411
H11 H 0.4088 0.5202 0.4843
O12 O 0.0829(7) 0.7811(4) 1.0322(4)
H12 H 0.0434 0.8101 1.0833
H13 H 0.1602 0.7498 1.0603
O13 O -0.0869(6) 0.6539(4) 0.5330(4)
H14 H -0.1701 0.6562 0.5481
H15 H -0.0594 0.7221 0.5219
loop_
_geom_bond_atom_site_label_1
_geom_bond_atom_site_label_2
_geom_bond_site_symmetry_1
_geom_bond_site_symmetry_2
Ho1 O1 1_555 1_555
O1 C1 1_555 1_555
O2 C1 1_555 1_555
O3 Ho1 1_555 1_555
O4 C2 1_555 1_555
O5 C3 1_555 1_555
O6 Ho1 1_555 1_555
O7 C4 1_555 1_555
O8 Ho1 1_555 1_555
O9 Ho1 1_555 1_555
H1 O9 1_555 1_555
H2 O9 1_555 1_555
H3 O9 1_555 1_555
C1 C3 1_555 1_555
C2 O3 1_555 1_555
C3 O6 1_555 1_555
C4 O8 1_555 1_555
O10 H4 1_555 1_555
C5 H5 1_555 1_555
H6 C5 1_555 1_555
H7 C5 1_555 1_555
C6 O10 1_555 1_555
H8 C6 1_555 1_555
H9 C6 1_555 1_555
O11 H10 1_555 1_555
H11 O11 1_555 1_555
O12 H12 1_555 1_555
H13 O12 1_555 1_555
O13 H14 1_555 1_555
H15 O13 1_555 1_555
Ho1B O7 1_555 1_555
Ho1A O2 1_555 1_555
Ho1B_2 O4 1_555 1_555
Ho1A_2 O1A_2 1_555 1_555
O1A Ho1A 1_555 1_555
O1A_2 C1A 1_555 1_555
O2A Ho1 1_555 1_555
O3B Ho1B_2 1_555 1_555
O3A Ho1A 1_555 1_555
O4B Ho1 1_555 1_555
O4C Ho1A 1_555 1_555
O5A Ho1 1_555 1_555
O6A Ho1A 1_555 1_555
O6A_2 Ho1A_2 1_555 1_555
O7B Ho1 1_555 1_555
O7C Ho1A 1_555 1_555
O8B Ho1B 1_555 1_555
O8A Ho1A 1_555 1_555
O9A Ho1A 1_555 1_555
H1A O9A 1_555 1_555
H2A O9A 1_555 1_555
H3A O9A 1_555 1_555
C1A O2A 1_555 1_555
C2B C2 1_555 1_555
C3A O5A 1_555 1_555
C4B C4 1_555 1_555
O5 Ho1A 1_555 1_555
C5 C6 1_555 1_555
O3B C2B 1_555 1_555
O4B C2B 1_555 1_555
O6A_2 C3A 1_555 1_555
O7B C4B 1_555 1_555
O8B C4B 1_555 1_555
C1A C3A 1_555 1_555

#END
