
#######################################################################
#
#                 Cambridge Crystallographic Data Centre
#                                CCDC 
#
#######################################################################
#
# If this CIF has been generated from an entry in the Cambridge 
# Structural Database, then it will include bibliographic, chemical, 
# crystal, experimental, refinement or atomic coordinate data resulting 
# from the CCDC's data processing and validation procedures.
#
#######################################################################

data_WEMFAX
_symmetry_cell_setting           monoclinic
_symmetry_space_group_name_H-M   'P 21/n'
_symmetry_Int_Tables_number      14
_space_group_name_Hall           '-P 2yn'
loop_
_symmetry_equiv_pos_site_id
_symmetry_equiv_pos_as_xyz
1 x,y,z
2 1/2-x,1/2+y,1/2-z
3 -x,-y,-z
4 1/2+x,1/2-y,1/2+z
_cell_length_a                   9.6590(19)
_cell_length_b                   11.718(2)
_cell_length_c                   12.281(3)
_cell_angle_alpha                90
_cell_angle_beta                 99.20(3)
_cell_angle_gamma                90
_cell_volume                     1372.13
loop_
_atom_site_label
_atom_site_type_symbol
_atom_site_fract_x
_atom_site_fract_y
_atom_site_fract_z
Gd1 Gd 0.214049(17) 0.514802(14) 0.331354(13)
O1 O 0.1397(3) 0.7143(2) 0.3439(2)
O2 O 0.1827(3) 0.8947(2) 0.2990(2)
O3 O 0.3084(3) 0.6395(2) 0.2060(2)
O4 O 0.3655(3) 0.8191(2) 0.1723(2)
O5 O -0.0334(3) 0.5125(2) 0.3571(2)
O6 O -0.1814(3) 0.4882(2) 0.4775(2)
O7 O 0.4155(3) 0.6180(2) 0.4337(2)
O8 O 0.6020(3) 0.6100(2) 0.5658(3)
O9 O 0.0487(3) 0.5222(2) 0.1542(2)
H1 H 0.0014 0.5836 0.1514
H2 H 0.0947 0.5204 0.1007
H3 H -0.0064 0.4653 0.1500
C1 C 0.1986(4) 0.7892(3) 0.2938(3)
C2 C 0.2994(4) 0.7454(3) 0.2168(3)
C3 C -0.0629(4) 0.5005(3) 0.4525(3)
C4 C 0.5053(3) 0.5660(3) 0.4999(3)
Gd1B Gd -0.214049(17) 0.485198(14) 0.668646(13)
Gd1A Gd 0.285951(17) 1.014802(14) 0.168646(13)
Gd1B_2 Gd 0.785951(17) 0.485198(14) 0.668646(13)
Gd1A_2 Gd 0.285951(17) 0.014802(14) 0.168646(13)
O1A O 0.3603(3) 1.2143(2) 0.1561(2)
O1A_2 O 0.3603(3) 0.2143(2) 0.1561(2)
O2A O 0.3173(3) 0.3947(2) 0.2010(2)
O3A O 0.1916(3) 1.1395(2) 0.2940(2)
O3A_2 O 0.1916(3) 0.1395(2) 0.2940(2)
O4A O 0.1345(3) 0.3191(2) 0.3277(2)
O5B O 0.0334(3) 0.4875(2) 0.6429(2)
O5A O 0.5334(3) 1.0125(2) 0.1429(2)
O6B O 0.1814(3) 0.5118(2) 0.5225(2)
O6C O 0.3186(3) 1.0118(2) -0.0225(2)
O7B O 0.5845(3) 0.3820(2) 0.5663(2)
O7A O 0.0845(3) 1.1180(2) 0.0663(2)
O8B O 0.3980(3) 0.3900(2) 0.4342(3)
O8C O 0.1020(3) 0.8900(2) 0.0658(3)
O9A O 0.4513(3) 1.0222(2) 0.3458(2)
H1A H 0.4986 1.0836 0.3486
H2A H 0.4053 1.0204 0.3993
H3A H 0.5064 0.9653 0.3500
C1A C 0.3014(4) 0.2892(3) 0.2062(3)
C2A C 0.2006(4) 0.2454(3) 0.2832(3)
C3B C 0.0629(4) 0.4995(3) 0.5475(3)
C4B C 0.4947(3) 0.4340(3) 0.5001(3)
O10 O -0.1950(8) 0.7485(7) 0.1672(6)
H4 H -0.1278 0.7474 0.1340
C5 C -0.3496(6) 0.6230(7) 0.2555(5)
H5 H -0.3676 0.5447 0.2717
H6 H -0.4312 0.6552 0.2112
H7 H -0.3281 0.6651 0.3232
C6 C -0.2311(4) 0.6291(4) 0.1955(3)
H8 H -0.2530 0.5852 0.1280
H9 H -0.1499 0.5944 0.2399
O11 O -0.3272(6) 0.5082(4) 0.0079(4)
H10 H -0.3090 0.5112 -0.0575
H11 H -0.3716 0.4471 0.0163
O12 O 0.0855(5) 0.2186(4) 0.5313(4)
H12 H 0.1511 0.2047 0.5846
H13 H 0.0113 0.2358 0.5566
O13 O -0.0833(5) 0.3439(3) 0.0331(3)
H14 H -0.0446 0.2841 0.0130
H15 H -0.1608 0.3264 0.0532
loop_
_geom_bond_atom_site_label_1
_geom_bond_atom_site_label_2
_geom_bond_site_symmetry_1
_geom_bond_site_symmetry_2
Gd1 O1 1_555 1_555
O1 C1 1_555 1_555
O2 C1 1_555 1_555
O3 Gd1 1_555 1_555
O4 C2 1_555 1_555
O5 Gd1 1_555 1_555
O6 C3 1_555 1_555
O7 Gd1 1_555 1_555
O8 C4 1_555 1_555
O9 Gd1 1_555 1_555
H1 O9 1_555 1_555
H2 O9 1_555 1_555
H3 O9 1_555 1_555
O10 H4 1_555 1_555
C1 C2 1_555 1_555
C2 O3 1_555 1_555
C3 O5 1_555 1_555
C4 O7 1_555 1_555
C5 H5 1_555 1_555
H6 C5 1_555 1_555
H7 C5 1_555 1_555
C6 O10 1_555 1_555
H8 C6 1_555 1_555
H9 C6 1_555 1_555
O11 H10 1_555 1_555
H11 O11 1_555 1_555
O12 H12 1_555 1_555
H13 O12 1_555 1_555
O13 H14 1_555 1_555
H15 O13 1_555 1_555
Gd1B O6 1_555 1_555
Gd1A O2 1_555 1_555
Gd1B_2 O8 1_555 1_555
Gd1A_2 O1A_2 1_555 1_555
O1A Gd1A 1_555 1_555
O1A_2 C1A 1_555 1_555
O2A Gd1 1_555 1_555
O3A Gd1A 1_555 1_555
O3A_2 Gd1A_2 1_555 1_555
O4A Gd1 1_555 1_555
O5B Gd1B 1_555 1_555
O5A Gd1A 1_555 1_555
O6B Gd1 1_555 1_555
O6C Gd1A 1_555 1_555
O7B Gd1B_2 1_555 1_555
O7A Gd1A 1_555 1_555
O8B Gd1 1_555 1_555
O8C Gd1A 1_555 1_555
O9A Gd1A 1_555 1_555
H1A O9A 1_555 1_555
H2A O9A 1_555 1_555
H3A O9A 1_555 1_555
C1A O2A 1_555 1_555
C2A O3A_2 1_555 1_555
C3B C3 1_555 1_555
C4B C4 1_555 1_555
O4 Gd1A 1_555 1_555
C5 C6 1_555 1_555
O4A C2A 1_555 1_555
O5B C3B 1_555 1_555
O6B C3B 1_555 1_555
O7B C4B 1_555 1_555
O8B C4B 1_555 1_555
C1A C2A 1_555 1_555

#END
