
#######################################################################
#
#                 Cambridge Crystallographic Data Centre
#                                CCDC 
#
#######################################################################
#
# If this CIF has been generated from an entry in the Cambridge 
# Structural Database, then it will include bibliographic, chemical, 
# crystal, experimental, refinement or atomic coordinate data resulting 
# from the CCDC's data processing and validation procedures.
#
#######################################################################

data_WEMFEB
_symmetry_cell_setting           monoclinic
_symmetry_space_group_name_H-M   'P 21/n'
_symmetry_Int_Tables_number      14
_space_group_name_Hall           '-P 2yn'
loop_
_symmetry_equiv_pos_site_id
_symmetry_equiv_pos_as_xyz
1 x,y,z
2 1/2-x,1/2+y,1/2-z
3 -x,-y,-z
4 1/2+x,1/2-y,1/2+z
_cell_length_a                   9.6515(19)
_cell_length_b                   11.655(2)
_cell_length_c                   12.264(3)
_cell_angle_alpha                90
_cell_angle_beta                 99.14(3)
_cell_angle_gamma                90
_cell_volume                     1362.04
loop_
_atom_site_label
_atom_site_type_symbol
_atom_site_fract_x
_atom_site_fract_y
_atom_site_fract_z
Tb1 Tb 0.28563(2) 0.513862(17) 0.668039(18)
O1 O 0.3614(4) 0.7131(3) 0.6563(3)
O2 O 0.3188(4) 0.8943(3) 0.7021(3)
O3 O 0.1022(4) 0.3892(3) 0.5649(3)
O4 O -0.0861(4) 0.3818(3) 0.4332(3)
O5 O 0.3176(3) 0.5114(3) 0.4780(3)
O6 O 0.4671(3) 0.4885(3) 0.3569(3)
O7 O 0.1348(3) 0.8182(3) 0.8285(3)
O8 O 0.1911(3) 0.6382(3) 0.7937(3)
O9 O 0.4494(4) 0.5208(3) 0.8443(3)
H1 H 0.4969 0.5824 0.8474
H2 H 0.4032 0.5188 0.8978
H3 H 0.5045 0.4635 0.8484
C1 C 0.3021(5) 0.7875(4) 0.7063(4)
C2 C 0.0045(5) 0.4343(4) 0.4996(4)
C3 C 0.4375(5) 0.4999(4) 0.4519(4)
C4 C 0.2007(5) 0.7437(4) 0.7835(4)
Tb1B Tb -0.28563(2) 0.486138(17) 0.331961(18)
Tb1A Tb 0.21437(2) 1.013862(17) 0.831961(18)
Tb1B_2 Tb 0.71437(2) 0.486138(17) 0.331961(18)
Tb1A_2 Tb 0.21437(2) 0.013862(17) 0.831961(18)
O1A O 0.1386(4) 1.2131(3) 0.8437(3)
O1A_2 O 0.1386(4) 0.2131(3) 0.8437(3)
O2A O 0.1812(4) 0.3943(3) 0.7979(3)
O3B O -0.1022(4) 0.6108(3) 0.4351(3)
O3A O 0.3978(4) 0.8892(3) 0.9351(3)
O4B O 0.0861(4) 0.6182(3) 0.5668(3)
O4C O 0.4139(4) 1.1182(3) 0.9332(3)
O5B O 0.6824(3) 0.4886(3) 0.5220(3)
O5A O 0.1824(3) 1.0114(3) 1.0220(3)
O6B O 0.5329(3) 0.5115(3) 0.6431(3)
O6C O -0.0329(3) 1.0115(3) 0.8569(3)
O7A O 0.3652(3) 0.3182(3) 0.6715(3)
O8A O 0.3089(3) 1.1382(3) 0.7063(3)
O8A_2 O 0.3089(3) 0.1382(3) 0.7063(3)
O9A O 0.0506(4) 1.0208(3) 0.6557(3)
H1A H 0.0031 1.0824 0.6526
H2A H 0.0968 1.0188 0.6022
H3A H -0.0045 0.9635 0.6516
C1A C 0.1979(5) 0.2875(4) 0.7937(4)
C2B C -0.0045(5) 0.5657(4) 0.5004(4)
C3B C 0.5625(5) 0.5001(4) 0.5481(4)
C4A C 0.2993(5) 0.2437(4) 0.7165(4)
O10 O 0.3070(10) 0.2525(8) 0.1670(8)
H4 H 0.3743 0.2542 0.1337
C5 C 0.1506(8) 0.3766(9) 0.2541(7)
H5 H 0.1319 0.4554 0.2692
H6 H 0.1714 0.3351 0.3223
H7 H 0.0696 0.3436 0.2095
C6 C 0.2703(5) 0.3701(5) 0.1951(4)
H8 H 0.3510 0.4048 0.2404
H9 H 0.2495 0.4145 0.1276
O11 O 0.4145(5) 0.2188(3) 0.4690(3)
H10 H 0.3639 0.2183 0.4056
H11 H 0.5002 0.2267 0.4618
O12 O 0.3274(5) 0.9916(3) 0.4926(3)
H12 H 0.3206 1.0399 0.5434
H13 H 0.4061 0.9998 0.4708
O13 O 0.5854(6) 0.3443(4) 0.9669(4)
H14 H 0.5583 0.2761 0.9763
H15 H 0.6687 0.3430 0.9526
loop_
_geom_bond_atom_site_label_1
_geom_bond_atom_site_label_2
_geom_bond_site_symmetry_1
_geom_bond_site_symmetry_2
Tb1 O1 1_555 1_555
O1 C1 1_555 1_555
O2 C1 1_555 1_555
O3 Tb1 1_555 1_555
O4 C2 1_555 1_555
O5 Tb1 1_555 1_555
O6 C3 1_555 1_555
O7 C4 1_555 1_555
O8 Tb1 1_555 1_555
O9 Tb1 1_555 1_555
H1 O9 1_555 1_555
H2 O9 1_555 1_555
H3 O9 1_555 1_555
O10 H4 1_555 1_555
C1 C4 1_555 1_555
C2 O3 1_555 1_555
C3 O5 1_555 1_555
C4 O8 1_555 1_555
C5 H5 1_555 1_555
H6 C5 1_555 1_555
H7 C5 1_555 1_555
C6 O10 1_555 1_555
H8 C6 1_555 1_555
H9 C6 1_555 1_555
O11 H10 1_555 1_555
H11 O11 1_555 1_555
O12 H12 1_555 1_555
H13 O12 1_555 1_555
O13 H14 1_555 1_555
H15 O13 1_555 1_555
Tb1B O4 1_555 1_555
Tb1A O2 1_555 1_555
Tb1B_2 O6 1_555 1_555
Tb1A_2 O1A_2 1_555 1_555
O1A Tb1A 1_555 1_555
O1A_2 C1A 1_555 1_555
O2A Tb1 1_555 1_555
O3B Tb1B 1_555 1_555
O3A Tb1A 1_555 1_555
O4B Tb1 1_555 1_555
O4C Tb1A 1_555 1_555
O5B Tb1B_2 1_555 1_555
O5A Tb1A 1_555 1_555
O6B Tb1 1_555 1_555
O6C Tb1A 1_555 1_555
O7A Tb1 1_555 1_555
O8A Tb1A 1_555 1_555
O8A_2 Tb1A_2 1_555 1_555
O9A Tb1A 1_555 1_555
H1A O9A 1_555 1_555
H2A O9A 1_555 1_555
H3A O9A 1_555 1_555
C1A O2A 1_555 1_555
C2B C2 1_555 1_555
C3B C3 1_555 1_555
C4A O7A 1_555 1_555
O7 Tb1A 1_555 1_555
C5 C6 1_555 1_555
O3B C2B 1_555 1_555
O4B C2B 1_555 1_555
O5B C3B 1_555 1_555
O6B C3B 1_555 1_555
O8A_2 C4A 1_555 1_555
C1A C4A 1_555 1_555

#END
