
#######################################################################
#
#                 Cambridge Crystallographic Data Centre
#                                CCDC 
#
#######################################################################
#
# If this CIF has been generated from an entry in the Cambridge 
# Structural Database, then it will include bibliographic, chemical, 
# crystal, experimental, refinement or atomic coordinate data resulting 
# from the CCDC's data processing and validation procedures.
#
#######################################################################

data_WIHCUM
_symmetry_cell_setting           monoclinic
_symmetry_space_group_name_H-M   'P a'
_symmetry_Int_Tables_number      7
_space_group_name_Hall           'P -2ya'
loop_
_symmetry_equiv_pos_site_id
_symmetry_equiv_pos_as_xyz
1 x,y,z
2 1/2+x,-y,z
_cell_length_a                   5.7328(2)
_cell_length_b                   10.9152(4)
_cell_length_c                   11.2665(4)
_cell_angle_alpha                90
_cell_angle_beta                 97.106(4)
_cell_angle_gamma                90
_cell_volume                     699.582
loop_
_atom_site_label
_atom_site_type_symbol
_atom_site_fract_x
_atom_site_fract_y
_atom_site_fract_z
S1 S 0.44292(10) 0.31465(5) 0.07585(5)
O1 O 0.5960(4) 0.41544(17) 0.12214(18)
O2 O 0.2687(4) 0.28386(18) 0.15533(17)
O3 O 0.5760(4) 0.20872(19) 0.04342(18)
C1 C 0.2838(5) 0.3722(2) -0.0587(2)
H1 H 0.2401 0.4585 -0.0457
H2 H 0.3883 0.3714 -0.1224
C2 C 0.0601(6) 0.2998(3) -0.1022(3)
H3 H -0.0269 0.3449 -0.1700
H4 H -0.0405 0.2983 -0.0368
S2 S 0.10126(14) 0.14314(6) -0.14969(7)
S3 S 0.32883(13) 0.15983(7) -0.27364(6)
C3 C 0.1429(6) 0.2132(3) -0.4068(3)
H5 H 0.0754 0.2937 -0.3894
H6 H 0.2414 0.2250 -0.4721
C4 C -0.0557(5) 0.1259(2) -0.4490(2)
H7 H -0.1568 0.1147 -0.3847
H8 H 0.0102 0.0451 -0.4668
S4 S -0.22768(11) 0.18324(5) -0.57943(5)
O4 O -0.0636(4) 0.21572(19) -0.66323(17)
O5 O -0.3898(4) 0.08517(19) -0.62452(17)
O6 O -0.3523(4) 0.2900(2) -0.53982(18)
Na1 Na 0.22800(19) 0.09442(9) 0.25452(9)
Na2 Na 0.97591(19) 0.40532(10) 0.23478(10)
O8 O -0.0935(4) 0.03360(18) 0.11922(19)
H11 H -0.184(6) 0.084(3) 0.102(4)
H12 H -0.074(7) -0.014(3) 0.072(3)
O9 O 1.3065(4) 0.45846(17) 0.3702(2)
H13 H 1.391(6) 0.406(3) 0.388(4)
H14 H 1.297(7) 0.488(3) 0.431(2)
O1A O 1.0960(4) 0.58456(17) 0.12214(18)
O2_2 O 1.2687(4) 0.28386(18) 0.15533(17)
O4_2 O -0.0636(4) 0.21572(19) 0.33677(17)
O4_3 O 0.9364(4) 0.21572(19) 0.33677(17)
O5_2 O 0.6102(4) 0.08517(19) 0.37548(17)
O5A O 0.1102(4) -0.08517(19) 0.37548(17)
Na1_2 Na 0.22800(19) 0.09442(9) -0.74548(9)
Na1_3 Na -0.77200(19) 0.09442(9) -0.74548(9)
Na1A Na -0.27200(19) -0.09442(9) -0.74548(9)
Na1A_2 Na -0.27200(19) -0.09442(9) 0.25452(9)
Na2A Na 0.47591(19) 0.59468(10) 0.23478(10)
Na2_2 Na -0.02409(19) 0.40532(10) 0.23478(10)
Na2_3 Na -0.02409(19) 0.40532(10) -0.76522(10)
Na2A_2 Na 1.47591(19) 0.59468(10) 0.23478(10)
O8A O 0.4065(4) -0.03360(18) 0.11922(19)
H11A H 0.316(6) -0.084(3) 0.102(4)
H12A H 0.426(7) 0.014(3) 0.072(3)
O9A O 0.8065(4) 0.54154(17) 0.3702(2)
H13A H 0.891(6) 0.594(3) 0.388(4)
H14A H 0.797(7) 0.512(3) 0.431(2)
O7 O -0.3003(5) 0.4610(2) -0.3525(3)
H9 H -0.423(5) 0.473(6) -0.335(5)
H10 H -0.325(11) 0.398(3) -0.381(5)
loop_
_geom_bond_atom_site_label_1
_geom_bond_atom_site_label_2
_geom_bond_site_symmetry_1
_geom_bond_site_symmetry_2
S1 O1 1_555 1_555
O1 Na2 1_555 1_555
O2 S1 1_555 1_555
O3 S1 1_555 1_555
C1 S1 1_555 1_555
H1 C1 1_555 1_555
H2 C1 1_555 1_555
C2 C1 1_555 1_555
H3 C2 1_555 1_555
H4 C2 1_555 1_555
S2 C2 1_555 1_555
S3 S2 1_555 1_555
C3 S3 1_555 1_555
H5 C3 1_555 1_555
H6 C3 1_555 1_555
C4 C3 1_555 1_555
H7 C4 1_555 1_555
H8 C4 1_555 1_555
S4 C4 1_555 1_555
O4 S4 1_555 1_555
O5 S4 1_555 1_555
O6 S4 1_555 1_555
Na1 O2 1_555 1_555
Na2 O9 1_555 1_555
O7 H9 1_555 1_555
H10 O7 1_555 1_555
O8 Na1 1_555 1_555
H11 O8 1_555 1_555
H12 O8 1_555 1_555
O9 H13 1_555 1_555
H14 O9 1_555 1_555
O1A Na2 1_555 1_555
O2_2 Na2 1_555 1_555
O4_2 Na1 1_555 1_555
O4_3 Na2 1_555 1_555
O5_2 Na1 1_555 1_555
O5A Na1 1_555 1_555
Na1_2 O4 1_555 1_555
Na1_3 O5 1_555 1_555
Na1A O5 1_555 1_555
Na1A_2 O8 1_555 1_555
Na2A O1 1_555 1_555
Na2_2 O2 1_555 1_555
Na2_3 O4 1_555 1_555
Na2A_2 O9 1_555 1_555
O8A Na1 1_555 1_555
H11A O8A 1_555 1_555
H12A O8A 1_555 1_555
O9A Na2 1_555 1_555
H13A O9A 1_555 1_555
H14A O9A 1_555 1_555
O1A Na2A_2 1_555 1_555
O4_2 Na2_2 1_555 1_555
O5A Na1A_2 1_555 1_555
Na2A O9A 1_555 1_555

#END
