
#######################################################################
#
#                 Cambridge Crystallographic Data Centre
#                                CCDC 
#
#######################################################################
#
# If this CIF has been generated from an entry in the Cambridge 
# Structural Database, then it will include bibliographic, chemical, 
# crystal, experimental, refinement or atomic coordinate data resulting 
# from the CCDC's data processing and validation procedures.
#
#######################################################################

data_WIHVEP
_symmetry_cell_setting           monoclinic
_symmetry_space_group_name_H-M   'P 21/c'
_symmetry_Int_Tables_number      14
_space_group_name_Hall           '-P 2ybc'
loop_
_symmetry_equiv_pos_site_id
_symmetry_equiv_pos_as_xyz
1 x,y,z
2 -x,1/2+y,1/2-z
3 -x,-y,-z
4 x,1/2-y,1/2+z
_cell_length_a                   11.7561(2)
_cell_length_b                   10.2072(2)
_cell_length_c                   18.7245(4)
_cell_angle_alpha                90
_cell_angle_beta                 127.0030(10)
_cell_angle_gamma                90
_cell_volume                     1794.37
loop_
_atom_site_label
_atom_site_type_symbol
_atom_site_fract_x
_atom_site_fract_y
_atom_site_fract_z
Mn1 Mn 0.37486(4) 0.08069(4) 0.13165(2)
Mn2 Mn 0.57366(4) -0.10688(4) 0.31282(2)
Mn3 Mn 0.5000 0.0000 0.0000
Mn4 Mn 0.0000 0.0000 0.0000
O1 O 0.44525(17) 0.20066(16) 0.24918(11)
O2 O 0.55605(19) 0.06690(17) 0.36781(12)
O3 O 0.58861(17) -0.00751(16) 0.21629(11)
O4 O 0.67791(19) -0.00210(18) 0.13988(12)
O5 O 0.45193(17) 0.25789(16) 0.10712(11)
O6 O 0.48315(19) 0.20998(18) 0.00331(12)
O7 O 0.34704(17) -0.08066(16) 0.19604(11)
O8 O 0.11403(18) -0.11890(19) 0.11860(13)
O9 O 0.33410(17) -0.02890(17) 0.02076(11)
O10 O 0.11153(18) -0.09836(18) -0.04434(13)
O11 O 0.16144(16) 0.15758(16) 0.06436(11)
O12 O 0.20205(17) 0.37107(17) 0.09719(12)
C1 C 0.5074(3) 0.1746(3) 0.33146(17)
C2 C 0.6887(3) -0.0186(3) 0.20859(18)
C3 C 0.4731(3) 0.2876(3) 0.04999(18)
C4 C 0.2394(3) -0.1404(3) 0.18048(17)
C5 C 0.2236(3) -0.0971(3) -0.03587(18)
C6 C 0.1229(3) 0.2755(3) 0.05969(17)
H1 H 0.524(3) 0.247(3) 0.3708(17)
H2 H 0.782(3) -0.034(3) 0.2653(18)
H3 H 0.475(3) 0.385(3) 0.0411(18)
H4 H 0.262(3) -0.214(3) 0.2238(18)
H5 H 0.229(3) -0.153(2) -0.0742(17)
H6 H 0.031(3) 0.293(3) 0.0273(19)
Mn1B Mn 0.62514(4) -0.08069(4) -0.13165(2)
Mn1A Mn 0.62514(4) -0.41931(4) 0.36835(2)
Mn1B_2 Mn -0.37486(4) -0.08069(4) -0.13165(2)
Mn2B Mn 0.42634(4) 0.10688(4) -0.31282(2)
Mn2A Mn 0.42634(4) 0.39312(4) 0.18718(2)
Mn2C Mn 0.57366(4) -0.39312(4) -0.18718(2)
Mn2A_2 Mn 0.42634(4) -0.60688(4) 0.18718(2)
Mn2B_2 Mn -0.57366(4) 0.10688(4) -0.31282(2)
Mn4_2 Mn 1.0000 0.0000 0.0000
Mn4A Mn 1.0000 -0.5000 0.5000
O1A O 0.55475(17) -0.29934(16) 0.25082(11)
O1B O 0.55475(17) -0.20066(16) -0.24918(11)
O1C O 0.44525(17) 0.29934(16) -0.25082(11)
O2A O 0.44395(19) -0.43310(17) 0.13219(12)
O2B O 0.44395(19) -0.06690(17) -0.36781(12)
O3B O 0.41139(17) 0.00751(16) -0.21629(11)
O4B O 0.32209(19) 0.00210(18) -0.13988(12)
O5B O 0.54807(17) -0.25789(16) -0.10712(11)
O5A O 0.54807(17) -0.24211(16) 0.39288(11)
O5C O 0.45193(17) 0.24211(16) -0.39288(11)
O6B O 0.51685(19) -0.20998(18) -0.00331(12)
O7B O -0.34704(17) 0.08066(16) -0.19604(11)
O7B_2 O 0.65296(17) 0.08066(16) -0.19604(11)
O8B O -0.11403(18) 0.11890(19) -0.11860(13)
O9B O 0.66590(17) 0.02890(17) -0.02076(11)
O10B O 0.88847(18) 0.09836(18) 0.04434(13)
O10B_2 O -0.11153(18) 0.09836(18) 0.04434(13)
O11A O 0.83856(16) -0.34242(16) 0.43564(11)
O11B O -0.16144(16) -0.15758(16) -0.06436(11)
O11B_2 O 0.83856(16) -0.15758(16) -0.06436(11)
O12A O 0.79795(17) -0.12893(17) 0.40281(12)
O12C O 0.20205(17) 0.12893(17) -0.40281(12)
C1A C 0.4926(3) -0.3254(3) 0.16854(17)
C2B C 0.3113(3) 0.0186(3) -0.20859(18)
C3B C 0.5269(3) -0.2876(3) -0.04999(18)
C4B C -0.2394(3) 0.1404(3) -0.18048(17)
C5B C 0.7764(3) 0.0971(3) 0.03587(18)
C6A C 0.8771(3) -0.2245(3) 0.44031(17)
H1A H 0.476(3) -0.253(3) 0.1292(17)
H2B H 0.218(3) 0.034(3) -0.2653(18)
H3B H 0.525(3) -0.385(3) -0.0411(18)
H4B H -0.262(3) 0.214(3) -0.2238(18)
H5B H 0.771(3) 0.153(2) 0.0742(17)
H6A H 0.969(3) -0.207(3) 0.4727(19)
C7 C 0.9115(4) 0.5645(4) 0.1979(2)
Cl1 Cl 0.7726(4) 0.4434(3) 0.1229(3)
C8 C 0.9599(14) 0.6337(12) 0.1473(9)
C9 C 0.815(2) 0.672(2) 0.2040(16)
O13 O 0.9342(11) 0.7430(9) 0.2893(6)
Cl2? Cl 0.9750(10) 0.6838(9) 0.1590(7)
C10? C 0.849(6) 0.624(3) 0.240(4)
C11? C 0.835(3) 0.4490(18) 0.1390(15)
O14? O 0.856(6) 0.436(4) 0.069(3)
Cl3? Cl 0.8261(5) 0.6398(4) 0.2287(3)
C12? C 0.976(4) 0.660(3) 0.162(2)
C13? C 0.827(3) 0.4584(18) 0.1226(16)
O15? O 0.8110(8) 0.3541(8) 0.1696(5)
Cl4? Cl 0.7410(14) 0.525(3) 0.1592(12)
C14? C 0.9007(14) 0.5513(14) 0.1026(8)
C15? C 0.953(3) 0.708(2) 0.2240(18)
O16? O 0.913(2) 0.7322(19) 0.2893(13)
loop_
_geom_bond_atom_site_label_1
_geom_bond_atom_site_label_2
_geom_bond_site_symmetry_1
_geom_bond_site_symmetry_2
Mn1 O1 1_555 1_555
Mn2 O2 1_555 1_555
Mn3 O4 1_555 1_555
Mn4 O8 1_555 1_555
O1 C1 1_555 1_555
O2 C1 1_555 1_555
O3 Mn1 1_555 1_555
O4 C2 1_555 1_555
O5 Mn1 1_555 1_555
O6 Mn3 1_555 1_555
O7 Mn1 1_555 1_555
O8 C4 1_555 1_555
O9 Mn1 1_555 1_555
O10 Mn4 1_555 1_555
O11 Mn1 1_555 1_555
O12 C6 1_555 1_555
C1 H1 1_555 1_555
C2 O3 1_555 1_555
C3 O5 1_555 1_555
C4 O7 1_555 1_555
C5 O9 1_555 1_555
C6 O11 1_555 1_555
H2 C2 1_555 1_555
H3 C3 1_555 1_555
H4 C4 1_555 1_555
H5 C5 1_555 1_555
H6 C6 1_555 1_555
C7 Cl1 1_555 1_555
C8 C7 1_555 1_555
C9 C7 1_555 1_555
O13 C9 1_555 1_555
Mn1B O1B 1_555 1_555
Mn1A O1A 1_555 1_555
Mn1B_2 O7B 1_555 1_555
Mn2B O1C 1_555 1_555
Mn2A O1 1_555 1_555
Mn2C O1B 1_555 1_555
Mn2A_2 O2A 1_555 1_555
Mn2B_2 O7B 1_555 1_555
Mn4_2 O10B 1_555 1_555
Mn4A O11A 1_555 1_555
O1A Mn2 1_555 1_555
O2A C1A 1_555 1_555
O2B Mn2B 1_555 1_555
O3B Mn1B 1_555 1_555
O4B Mn3 1_555 1_555
O5B Mn1B 1_555 1_555
O5A Mn2 1_555 1_555
O5C Mn2B 1_555 1_555
O6B Mn3 1_555 1_555
O7B C4B 1_555 1_555
O7B_2 Mn1B 1_555 1_555
O8B Mn4 1_555 1_555
O9B Mn3 1_555 1_555
O10B C5B 1_555 1_555
O10B_2 Mn4 1_555 1_555
O11A Mn1A 1_555 1_555
O11B Mn4 1_555 1_555
O11B_2 Mn1B 1_555 1_555
O12A Mn2 1_555 1_555
O12C Mn2B 1_555 1_555
C1A O1A 1_555 1_555
C2B O3B 1_555 1_555
C3B O5B 1_555 1_555
C4B O8B 1_555 1_555
C5B O9B 1_555 1_555
C6A O11A 1_555 1_555
H1A C1A 1_555 1_555
H2B C2B 1_555 1_555
H3B C3B 1_555 1_555
H4B C4B 1_555 1_555
H5B C5B 1_555 1_555
H6A C6A 1_555 1_555
Mn2 O3 1_555 1_555
Mn2 O7 1_555 1_555
Mn3 O9 1_555 1_555
Mn4 O11 1_555 1_555
O5 Mn2A 1_555 1_555
O6 C3 1_555 1_555
O10 C5 1_555 1_555
O12 Mn2A 1_555 1_555
Mn1B O9B 1_555 1_555
Mn1A O5A 1_555 1_555
Mn1B_2 O11B 1_555 1_555
Mn2B O3B 1_555 1_555
Mn2B O7B_2 1_555 1_555
Mn2C O5B 1_555 1_555
Mn4_2 O11B_2 1_555 1_555
O4B C2B 1_555 1_555
O6B C3B 1_555 1_555
O12A C6A 1_555 1_555

#END
