
#######################################################################
#
#                 Cambridge Crystallographic Data Centre
#                                CCDC 
#
#######################################################################
#
# If this CIF has been generated from an entry in the Cambridge 
# Structural Database, then it will include bibliographic, chemical, 
# crystal, experimental, refinement or atomic coordinate data resulting 
# from the CCDC's data processing and validation procedures.
#
#######################################################################

data_WIQTUN
_symmetry_cell_setting           monoclinic
_symmetry_space_group_name_H-M   'P 21/c'
_symmetry_Int_Tables_number      14
_space_group_name_Hall           '-P 2ybc'
loop_
_symmetry_equiv_pos_site_id
_symmetry_equiv_pos_as_xyz
1 x,y,z
2 -x,1/2+y,1/2-z
3 -x,-y,-z
4 x,1/2-y,1/2+z
_cell_length_a                   18.582(4)
_cell_length_b                   34.589(7)
_cell_length_c                   16.268(3)
_cell_angle_alpha                90
_cell_angle_beta                 103.81(3)
_cell_angle_gamma                90
_cell_volume                     10153.7
loop_
_atom_site_label
_atom_site_type_symbol
_atom_site_fract_x
_atom_site_fract_y
_atom_site_fract_z
C1 C 0.7084(4) 0.33305(18) 0.5283(4)
C2 C 0.7211(4) 0.37351(18) 0.5565(4)
C3 C 0.7040(4) 0.3862(2) 0.6308(5)
H1 H 0.6852 0.3685 0.6643
C4 C 0.7141(4) 0.4243(2) 0.6562(5)
H2 H 0.7006 0.4328 0.7053
C5 C 0.7454(4) 0.4505(2) 0.6066(5)
C6 C 0.7621(5) 0.4376(2) 0.5353(5)
H3 H 0.7839 0.4545 0.5030
C7 C 0.7479(4) 0.4004(2) 0.5091(5)
H4 H 0.7568 0.3929 0.4569
C8 C 0.7617(4) 0.5511(2) 0.7003(5)
C9 C 0.7140(4) 0.5761(2) 0.7278(4)
H5 H 0.6675 0.5673 0.7332
C10 C 0.7354(4) 0.6147(2) 0.7474(4)
C11 C 0.8025(4) 0.6274(2) 0.7365(5)
H6 H 0.8159 0.6535 0.7461
C12 C 0.8505(4) 0.6018(2) 0.7113(5)
C13 C 0.8302(4) 0.5637(2) 0.6954(5)
H7 H 0.8639 0.5461 0.6811
C14 C 0.9284(4) 0.6134(2) 0.7053(5)
C15 C 0.9972(4) 0.6626(2) 0.6478(4)
C16 C 0.9877(4) 0.6871(3) 0.5798(5)
H8 H 0.9398 0.6919 0.5463
C17 C 1.0488(4) 0.7050(3) 0.5603(5)
H9 H 1.0430 0.7190 0.5096
C18 C 1.1185(4) 0.7023(2) 0.6155(4)
C19 C 1.1266(4) 0.6790(2) 0.6856(4)
H10 H 1.1733 0.6766 0.7233
C20 C 1.0658(4) 0.6590(2) 0.7012(4)
H11 H 1.0722 0.6429 0.7489
C21 C 1.1840(3) 0.72308(18) 0.5966(4)
C22 C 0.5874(4) 0.6533(2) 0.8509(4)
C23 C 0.5663(4) 0.6913(2) 0.8268(4)
H12 H 0.5874 0.7043 0.7875
C24 C 0.5148(4) 0.7094(2) 0.8610(4)
H13 H 0.5009 0.7348 0.8441
C25 C 0.4827(3) 0.69194(18) 0.9188(4)
C26 C 0.5068(4) 0.65423(19) 0.9454(4)
H14 H 0.4879 0.6417 0.9871
C27 C 0.5575(4) 0.6361(2) 0.9105(4)
H15 H 0.5725 0.6108 0.9282
C28 C 0.4259(3) 0.71136(17) 0.9543(4)
C29 C 0.7445(3) 0.32942(17) 0.8546(4)
C30 C 0.7521(4) 0.37096(17) 0.8815(4)
C31 C 0.7977(4) 0.39589(19) 0.8541(4)
H16 H 0.8259 0.3867 0.8174
C32 C 0.8041(4) 0.43440(19) 0.8781(4)
H17 H 0.8363 0.4508 0.8579
C33 C 0.7625(4) 0.44867(19) 0.9326(4)
C34 C 0.7176(4) 0.4229(2) 0.9622(5)
H18 H 0.6911 0.4315 1.0012
C35 C 0.7106(4) 0.38473(19) 0.9359(4)
H19 H 0.6778 0.3681 0.9548
C36 C 0.7972(4) 0.5173(2) 0.9326(5)
C37 C 0.7903(4) 0.55596(18) 0.9707(4)
C38 C 0.8347(4) 0.58531(19) 0.9484(4)
H20 H 0.8672 0.5792 0.9141
C39 C 0.8314(3) 0.62266(19) 0.9759(4)
C40 C 0.7813(4) 0.63214(19) 1.0265(4)
H21 H 0.7782 0.6577 1.0448
C41 C 0.7367(3) 0.60337(19) 1.0490(4)
C42 C 0.7426(3) 0.56627(18) 1.0215(4)
H22 H 0.7132 0.5469 1.0376
C43 C 0.6819(4) 0.6107(2) 1.1002(4)
C44 C 0.6093(4) 0.6612(2) 1.1521(4)
C45 C 0.5926(3) 0.70147(19) 1.1400(4)
H23 H 0.6206 0.7174 1.1126
C46 C 0.5354(3) 0.71632(18) 1.1690(4)
H24 H 0.5244 0.7428 1.1617
C47 C 0.4926(3) 0.69308(18) 1.2095(4)
C48 C 0.5118(4) 0.65430(19) 1.2231(4)
H25 H 0.4858 0.6386 1.2533
C49 C 0.5691(4) 0.6384(2) 1.1923(4)
H26 H 0.5799 0.6119 1.1994
C50 C 0.4257(3) 0.70887(18) 1.2338(4)
C51 C 0.8792(4) 0.6547(2) 0.9550(4)
C52 C 1.0013(3) 0.66632(19) 0.9265(4)
C53 C 0.9860(4) 0.7000(2) 0.8796(4)
H27 H 0.9366 0.7083 0.8613
C54 C 1.0425(3) 0.72191(19) 0.8588(4)
H28 H 1.0314 0.7445 0.8260
C55 C 1.1159(3) 0.70946(18) 0.8880(4)
C56 C 1.1305(4) 0.67605(19) 0.9349(4)
H29 H 1.1798 0.6680 0.9551
C57 C 1.0739(4) 0.6541(2) 0.9530(4)
H30 H 1.0849 0.6309 0.9834
C58 C 1.1749(3) 0.73201(17) 0.8654(4)
C59 C 0.7334(4) 0.5107(2) 0.6813(5)
C60 C 0.6893(4) 0.6441(2) 0.7794(5)
C61 C 0.5363(4) 0.3121(2) 0.4857(5)
H31 H 0.5581 0.3049 0.5419
C62 C 0.4541(9) 0.3531(5) 0.3894(8)
H32 H 0.4891 0.3520 0.3537
H33 H 0.4373 0.3796 0.3920
H34 H 0.4120 0.3366 0.3660
C63 C 0.4840(7) 0.3659(4) 0.5463(7)
H35 H 0.5164 0.3568 0.5986
H36 H 0.4332 0.3659 0.5517
H37 H 0.4982 0.3919 0.5345
C64 C 0.6472(5) 0.1683(2) 0.7513(4)
H38 H 0.6324 0.1786 0.7981
C65 C 0.6658(8) 0.1144(4) 0.6683(9)
H39 H 0.6295 0.0963 0.6372
H40 H 0.7124 0.1012 0.6901
H41 H 0.6730 0.1352 0.6309
C66 C 0.6039(8) 0.1065(4) 0.7971(8)
H42 H 0.5860 0.0823 0.7696
H43 H 0.5627 0.1207 0.8096
H44 H 0.6404 0.1012 0.8494
La1 La 0.705000(19) 0.261862(9) 0.70703(2)
La2 La 0.67939(2) 0.251733(9) 0.45642(2)
N1 N 0.7657(4) 0.48972(18) 0.6330(4)
H45 H 0.8030 0.5005 0.6146
N2 N 0.6368(3) 0.6299(2) 0.8158(4)
H46 H 0.6334 0.6040 0.8186
N3 N 0.9341(3) 0.64432(19) 0.6624(4)
H47 H 0.8907 0.6561 0.6394
N4 N 0.7632(3) 0.48756(16) 0.9586(4)
H48 H 0.7387 0.4928 0.9987
N5 N 0.6674(3) 0.64792(16) 1.1155(3)
H49 H 0.6977 0.6660 1.1028
N6 N 0.9461(3) 0.64328(17) 0.9476(4)
H50 H 0.9575 0.6182 0.9583
N7 N 0.4907(6) 0.3398(3) 0.4755(5)
N8 N 0.6393(6) 0.1305(2) 0.7387(6)
O1 O 0.7032(3) 0.32583(11) 0.4505(3)
O2 O 0.7022(2) 0.30628(11) 0.5801(2)
O3 O 1.1818(3) 0.73279(13) 0.5209(3)
O4 O 1.2396(2) 0.73003(12) 0.6562(2)
O5 O 0.3970(2) 0.74317(11) 0.9196(3)
O6 O 0.4042(2) 0.69694(13) 1.0145(3)
O7 O 0.9831(4) 0.5935(2) 0.7375(6)
O8 O 0.6993(4) 0.67924(17) 0.7702(5)
O9 O 0.6832(4) 0.4984(2) 0.7142(5)
O10 O 0.7643(3) 0.31978(12) 0.7894(3)
O11 O 0.7191(2) 0.30695(12) 0.9017(3)
O12 O 1.1621(3) 0.75639(12) 0.8077(3)
O13 O 1.2437(2) 0.72552(12) 0.9055(2)
O14 O 0.3953(2) 0.73990(12) 1.1991(3)
O15 O 0.4022(2) 0.69159(13) 1.2889(3)
O16 O 0.8557(4) 0.68740(17) 0.9454(5)
O17 O 0.6526(3) 0.58358(16) 1.1273(4)
O18 O 0.8361(5) 0.51347(18) 0.8836(5)
O19 O 0.5553(2) 0.29343(13) 0.4293(3)
O20 O 0.6715(3) 0.19011(13) 0.7085(3)
La1A La 0.295000(19) 0.761862(9) 0.79297(2)
La1A_2 La 1.295000(19) 0.761862(9) 0.79297(2)
La1B La 0.295000(19) 0.738138(9) 1.29297(2)
La2A La 0.32061(2) 0.751733(9) 1.04358(2)
La2A_2 La 1.32061(2) 0.751733(9) 1.04358(2)
La2B La 1.32061(2) 0.748267(9) 0.54358(2)
La2C La 0.67939(2) 0.248267(9) 0.95642(2)
O3B O 0.8182(3) 0.26721(13) 0.4791(3)
O4A O 0.7604(2) 0.23003(12) 0.8438(2)
O4B O 0.7604(2) 0.26997(12) 0.3438(2)
O5A O 0.6030(2) 0.24317(11) 0.5804(3)
O6A O 0.5958(2) 0.19694(13) 0.4855(3)
O11C O 0.7191(2) 0.19305(12) 0.4017(3)
O12A O 0.8379(3) 0.25639(12) 0.6923(3)
O13A O 0.7563(2) 0.22552(12) 0.5945(2)
O14A O 0.6047(2) 0.23990(12) 0.3009(3)
O14B O 0.6047(2) 0.26010(12) 0.8009(3)
O15B O 0.5978(2) 0.30841(13) 0.7111(3)
loop_
_geom_bond_atom_site_label_1
_geom_bond_atom_site_label_2
_geom_bond_site_symmetry_1
_geom_bond_site_symmetry_2
C1 C2 1_555 1_555
C2 C3 1_555 1_555
C3 H1 1_555 1_555
C4 C3 1_555 1_555
H2 C4 1_555 1_555
C5 C4 1_555 1_555
C6 C5 1_555 1_555
H3 C6 1_555 1_555
C7 C2 1_555 1_555
H4 C7 1_555 1_555
C8 C9 1_555 1_555
C9 H5 1_555 1_555
C10 C9 1_555 1_555
C11 C10 1_555 1_555
H6 C11 1_555 1_555
C12 C11 1_555 1_555
C13 C8 1_555 1_555
H7 C13 1_555 1_555
C14 C12 1_555 1_555
C15 C16 1_555 1_555
C16 H8 1_555 1_555
C17 C16 1_555 1_555
H9 C17 1_555 1_555
C18 C17 1_555 1_555
C19 C18 1_555 1_555
H10 C19 1_555 1_555
C20 C15 1_555 1_555
H11 C20 1_555 1_555
C21 C18 1_555 1_555
C22 C23 1_555 1_555
C23 H12 1_555 1_555
C24 C23 1_555 1_555
H13 C24 1_555 1_555
C25 C24 1_555 1_555
C26 C25 1_555 1_555
H14 C26 1_555 1_555
C27 C22 1_555 1_555
H15 C27 1_555 1_555
C28 C25 1_555 1_555
C29 C30 1_555 1_555
C30 C31 1_555 1_555
C31 H16 1_555 1_555
C32 C31 1_555 1_555
H17 C32 1_555 1_555
C33 C32 1_555 1_555
C34 C33 1_555 1_555
H18 C34 1_555 1_555
C35 C30 1_555 1_555
H19 C35 1_555 1_555
C36 C37 1_555 1_555
C37 C38 1_555 1_555
C38 H20 1_555 1_555
C39 C38 1_555 1_555
C40 C39 1_555 1_555
H21 C40 1_555 1_555
C41 C40 1_555 1_555
C42 C37 1_555 1_555
H22 C42 1_555 1_555
C43 C41 1_555 1_555
C44 C45 1_555 1_555
C45 H23 1_555 1_555
C46 C45 1_555 1_555
H24 C46 1_555 1_555
C47 C46 1_555 1_555
C48 C47 1_555 1_555
H25 C48 1_555 1_555
C49 C44 1_555 1_555
H26 C49 1_555 1_555
C50 C47 1_555 1_555
C51 C39 1_555 1_555
C52 C53 1_555 1_555
C53 H27 1_555 1_555
C54 C53 1_555 1_555
H28 C54 1_555 1_555
C55 C54 1_555 1_555
C56 C55 1_555 1_555
H29 C56 1_555 1_555
C57 C52 1_555 1_555
H30 C57 1_555 1_555
C58 C55 1_555 1_555
C59 C8 1_555 1_555
C60 C10 1_555 1_555
C61 H31 1_555 1_555
C62 H32 1_555 1_555
H33 C62 1_555 1_555
H34 C62 1_555 1_555
C63 H35 1_555 1_555
H36 C63 1_555 1_555
H37 C63 1_555 1_555
C64 H38 1_555 1_555
C65 H39 1_555 1_555
H40 C65 1_555 1_555
H41 C65 1_555 1_555
C66 H42 1_555 1_555
H43 C66 1_555 1_555
H44 C66 1_555 1_555
La1 O2 1_555 1_555
La2 O1 1_555 1_555
N1 C5 1_555 1_555
H45 N1 1_555 1_555
N2 C22 1_555 1_555
H46 N2 1_555 1_555
N3 C14 1_555 1_555
H47 N3 1_555 1_555
N4 C33 1_555 1_555
H48 N4 1_555 1_555
N5 C43 1_555 1_555
H49 N5 1_555 1_555
N6 C51 1_555 1_555
H50 N6 1_555 1_555
N7 C61 1_555 1_555
N8 C64 1_555 1_555
O1 C1 1_555 1_555
O2 C1 1_555 1_555
O3 C21 1_555 1_555
O4 C21 1_555 1_555
O5 C28 1_555 1_555
O6 C28 1_555 1_555
O7 C14 1_555 1_555
O8 C60 1_555 1_555
O9 C59 1_555 1_555
O10 C29 1_555 1_555
O11 C29 1_555 1_555
O12 C58 1_555 1_555
O13 C58 1_555 1_555
O14 C50 1_555 1_555
O15 C50 1_555 1_555
O16 C51 1_555 1_555
O17 C43 1_555 1_555
O18 C36 1_555 1_555
O19 C61 1_555 1_555
O20 C64 1_555 1_555
La1A O5 1_555 1_555
La1A_2 O4 1_555 1_555
La1B O14 1_555 1_555
La2A O5 1_555 1_555
La2A_2 O13 1_555 1_555
La2B O3 1_555 1_555
La2C O11 1_555 1_555
O3B La2 1_555 1_555
O4A La1 1_555 1_555
O4B La2 1_555 1_555
O5A La1 1_555 1_555
O6A La2 1_555 1_555
O11C La2 1_555 1_555
O12A La1 1_555 1_555
O13A La1 1_555 1_555
O14A La2 1_555 1_555
O14B La1 1_555 1_555
O15B La1 1_555 1_555
C6 C7 1_555 1_555
C12 C13 1_555 1_555
C15 N3 1_555 1_555
C19 C20 1_555 1_555
C26 C27 1_555 1_555
C34 C35 1_555 1_555
C36 N4 1_555 1_555
C41 C42 1_555 1_555
C44 N5 1_555 1_555
C48 C49 1_555 1_555
C52 N6 1_555 1_555
C56 C57 1_555 1_555
C59 N1 1_555 1_555
C60 N2 1_555 1_555
C62 N7 1_555 1_555
C63 N7 1_555 1_555
C65 N8 1_555 1_555
C66 N8 1_555 1_555
La1 O10 1_555 1_555
La1 O20 1_555 1_555
La2 O2 1_555 1_555
La2 O19 1_555 1_555
La2 O5A 1_555 1_555
La2 O13A 1_555 1_555
O4 La2B 1_555 1_555
O6 La2A 1_555 1_555
O12 La1A_2 1_555 1_555
O13 La1A_2 1_555 1_555
O14 La2A 1_555 1_555
O15 La1B 1_555 1_555
La2C O4A 1_555 1_555
La2C O14B 1_555 1_555

#END
