
#######################################################################
#
#                 Cambridge Crystallographic Data Centre
#                                CCDC 
#
#######################################################################
#
# If this CIF has been generated from an entry in the Cambridge 
# Structural Database, then it will include bibliographic, chemical, 
# crystal, experimental, refinement or atomic coordinate data resulting 
# from the CCDC's data processing and validation procedures.
#
#######################################################################

data_WISVEB
_symmetry_cell_setting           monoclinic
_symmetry_space_group_name_H-M   'P 21/c'
_symmetry_Int_Tables_number      14
_space_group_name_Hall           '-P 2ybc'
loop_
_symmetry_equiv_pos_site_id
_symmetry_equiv_pos_as_xyz
1 x,y,z
2 -x,1/2+y,1/2-z
3 -x,-y,-z
4 x,1/2-y,1/2+z
_cell_length_a                   14.319(3)
_cell_length_b                   14.490(3)
_cell_length_c                   22.598(5)
_cell_angle_alpha                90
_cell_angle_beta                 98.21(3)
_cell_angle_gamma                90
_cell_volume                     4640.63
loop_
_atom_site_label
_atom_site_type_symbol
_atom_site_fract_x
_atom_site_fract_y
_atom_site_fract_z
C1 C 1.0183(4) 0.4782(4) 0.9235(2)
C2 C 0.9615(4) 0.5403(3) 0.88697(19)
H1 H 0.9254 0.5833 0.9042
C3 C 0.9584(3) 0.5386(3) 0.82578(19)
C4 C 1.0150(3) 0.4763(3) 0.80102(19)
H2 H 1.0152 0.4759 0.7599
C5 C 1.0714(3) 0.4146(3) 0.8368(2)
C6 C 1.0727(3) 0.4165(4) 0.8980(2)
H3 H 1.1109 0.3755 0.9220
C7 C 0.8946(3) 0.6032(3) 0.7869(2)
C8 C 1.1344(3) 0.3484(3) 0.8103(3)
C9 C 0.4929(4) 0.4794(4) 0.5777(2)
C10 C 0.5572(4) 0.5386(4) 0.6105(2)
H4 H 0.5982 0.5739 0.5914
C11 C 0.5594(4) 0.5441(4) 0.6717(2)
C12 C 0.4991(4) 0.4897(4) 0.7003(2)
H5 H 0.5012 0.4934 0.7416
C13 C 0.4359(3) 0.4300(4) 0.6673(2)
C14 C 0.4325(3) 0.4252(4) 0.6057(2)
H6 H 0.3899 0.3859 0.5833
C15 C 0.6254(3) 0.6107(3) 0.7082(2)
C16 C 0.3697(3) 0.3700(4) 0.6970(2)
C17 C 0.9679(4) 0.4462(4) 0.6187(3)
H7 H 0.9816 0.4011 0.5900
H8 H 1.0115 0.4392 0.6548
H9 H 0.9739 0.5070 0.6028
C18 C 0.8691(5) 0.4324(5) 0.6319(3)
C19 C 0.9348(5) 0.2788(4) 0.6764(3)
H10 H 0.9508 0.2436 0.6433
H11 H 0.9172 0.2377 0.7062
H12 H 0.9883 0.3149 0.6933
C20 C 0.7558(4) 0.3038(4) 0.6512(3)
H13 H 0.7365 0.3041 0.6902
H14 H 0.7544 0.2418 0.6362
H15 H 0.7136 0.3416 0.6246
C21 C 0.6484(4) 0.7856(4) 0.5509(3)
H16 H 0.6300 0.8397 0.5275
H17 H 0.6760 0.8037 0.5904
H18 H 0.5939 0.7480 0.5532
C22 C 0.7188(4) 0.7321(4) 0.5220(2)
C23 C 0.8180(4) 0.7165(4) 0.4436(3)
H19 H 0.8753 0.7125 0.4713
H20 H 0.8308 0.7447 0.4072
H21 H 0.7930 0.6557 0.4353
C24 C 0.7200(4) 0.8606(4) 0.4397(3)
H22 H 0.6702 0.8493 0.4073
H23 H 0.7733 0.8867 0.4243
H24 H 0.6984 0.9029 0.4675
Cd1 Cd 0.82123(3) 0.63256(3) 0.639985(14)
Cd2 Cd 0.74414(2) 0.75077(3) 0.758831(15)
N1 N 1.0285(3) 0.4769(3) 0.98777(17)
N2 N 0.4854(3) 0.4671(3) 0.51444(18)
N3 N 0.8542(4) 0.3414(4) 0.6552(2)
N4 N 0.7479(3) 0.7734(3) 0.47025(19)
O1 O 0.8973(3) 0.5988(3) 0.73204(14)
O2 O 0.8475(2) 0.6580(2) 0.81254(16)
O3 O 1.1425(3) 0.3563(3) 0.7560(2)
O4 O 1.1777(3) 0.2884(3) 0.84404(19)
O5 O 0.6845(2) 0.6552(2) 0.68135(16)
O6 O 0.6200(3) 0.6246(3) 0.76130(16)
O7 O 0.3782(3) 0.3678(3) 0.75226(15)
O8 O 0.3117(3) 0.3225(3) 0.66444(16)
O9 O 0.7958(3) 0.4816(2) 0.62420(17)
O10 O 0.7494(3) 0.6611(3) 0.54736(16)
O11 O 0.9614(3) 0.6336(3) 0.60778(19)
H25 H 1.0088 0.6539 0.6394
H26 H 0.9596 0.6747 0.5743
C1B C 0.9817(4) 0.5218(4) 1.0765(2)
C2B C 1.0385(4) 0.4597(3) 1.11303(19)
H1B H 1.0746 0.4167 1.0958
C3B C 1.0416(3) 0.4614(3) 1.17422(19)
C4B C 0.9850(3) 0.5237(3) 1.19898(19)
H2B H 0.9848 0.5241 1.2401
C5B C 0.9286(3) 0.5854(3) 1.1632(2)
C6B C 0.9273(3) 0.5835(4) 1.1020(2)
H3B H 0.8891 0.6245 1.0780
C7B C 1.1054(3) 0.3968(3) 1.2131(2)
C8B C 0.8656(3) 0.6516(3) 1.1897(3)
N1B N 0.9715(3) 0.5231(3) 1.01223(17)
O1B O 1.1027(3) 0.4012(3) 1.26796(14)
O2B O 1.1525(2) 0.3420(2) 1.18746(16)
O3B O 0.8575(3) 0.6437(3) 1.2440(2)
O4B O 0.8223(3) 0.7116(3) 1.15596(19)
C9B C 0.5071(4) 0.5206(4) 0.4223(2)
C10B C 0.4428(4) 0.4614(4) 0.3895(2)
H4B H 0.4018 0.4261 0.4086
C11B C 0.4406(4) 0.4559(4) 0.3283(2)
C12B C 0.5009(4) 0.5103(4) 0.2997(2)
H5B H 0.4988 0.5066 0.2584
C13B C 0.5641(3) 0.5700(4) 0.3327(2)
C14B C 0.5675(3) 0.5748(4) 0.3943(2)
H6B H 0.6101 0.6141 0.4167
C15B C 0.3746(3) 0.3893(3) 0.2918(2)
C16B C 0.6303(3) 0.6300(4) 0.3030(2)
N2B N 0.5146(3) 0.5329(3) 0.48556(18)
O5B O 0.3155(2) 0.3448(2) 0.31865(16)
O6B O 0.3800(3) 0.3754(3) 0.23870(16)
O7B O 0.6218(3) 0.6322(3) 0.24774(15)
O8B O 0.6883(3) 0.6775(3) 0.33556(16)
C17B C 0.0321(4) 0.5538(4) 0.3813(3)
H7B H 0.0184 0.5989 0.4100
H8B H -0.0115 0.5608 0.3452
H9B H 0.0261 0.4930 0.3972
C18B C 0.1309(5) 0.5676(5) 0.3681(3)
C19B C 0.0652(5) 0.7212(4) 0.3236(3)
H10B H 0.0492 0.7564 0.3567
H11B H 0.0828 0.7623 0.2938
H12B H 0.0117 0.6851 0.3067
C20B C 0.2442(4) 0.6962(4) 0.3488(3)
H13B H 0.2635 0.6959 0.3098
H14B H 0.2456 0.7582 0.3638
H15B H 0.2864 0.6584 0.3754
C21B C 0.3516(4) 0.2144(4) 0.4491(3)
H16B H 0.3700 0.1603 0.4725
H17B H 0.3240 0.1963 0.4096
H18B H 0.4061 0.2520 0.4468
C22B C 0.2812(4) 0.2679(4) 0.4780(2)
C23B C 0.1820(4) 0.2835(4) 0.5564(3)
H19B H 0.1247 0.2875 0.5287
H20B H 0.1692 0.2553 0.5928
H21B H 0.2070 0.3443 0.5647
C24B C 0.2800(4) 0.1394(4) 0.5603(3)
H22B H 0.3298 0.1507 0.5927
H23B H 0.2267 0.1133 0.5757
H24B H 0.3016 0.0971 0.5325
Cd1B Cd 0.17877(3) 0.36744(3) 0.360015(14)
Cd2B Cd 0.25586(2) 0.24923(3) 0.241169(15)
N3B N 0.1458(4) 0.6586(4) 0.3448(2)
N4B N 0.2521(3) 0.2266(3) 0.52975(19)
O9B O 0.2042(3) 0.5184(2) 0.37580(17)
O10B O 0.2506(3) 0.3389(3) 0.45264(16)
O11B O 0.0386(3) 0.3664(3) 0.39222(19)
H25B H -0.0088 0.3461 0.3606
H26B H 0.0404 0.3253 0.4257
Cd1A Cd 1.17877(3) 0.13256(3) 0.860015(14)
Cd1B_2 Cd 1.17877(3) 0.36744(3) 1.360015(14)
Cd1C Cd 0.82123(3) 0.86744(3) 1.139985(14)
Cd2A Cd 0.25586(2) 0.25077(3) 0.741169(15)
Cd2A_2 Cd 1.25586(2) 0.25077(3) 0.741169(15)
Cd2B_2 Cd 1.25586(2) 0.24923(3) 1.241169(15)
Cd2C Cd 0.74414(2) 0.74923(3) 0.258831(15)
Cd2C_2 Cd 0.74414(2) 0.74923(3) 1.258831(15)
O1B_2 O 0.1027(3) 0.4012(3) 0.26796(14)
O2B_2 O 0.1525(2) 0.3420(2) 0.18746(16)
O3A O 0.8575(3) 0.8563(3) 0.7440(2)
O3C O 0.1425(3) 0.1437(3) 0.2560(2)
O4A O 0.8223(3) 0.7884(3) 0.65596(19)
O4C O 0.1777(3) 0.2116(3) 0.34404(19)
O7A O 0.6218(3) 0.8678(3) 0.74774(15)
O7C O 0.3782(3) 0.1322(3) 0.25226(15)
O8A O 0.6883(3) 0.8225(3) 0.83556(16)
O8C O 0.3117(3) 0.1775(3) 0.16444(16)
C25 C 0.6896(4) 0.0108(4) 0.5908(3)
H27 H 0.6796 -0.0093 0.5499
H28 H 0.6814 -0.0405 0.6165
H29 H 0.7525 0.0346 0.6004
C26 C 0.6210(4) 0.0837(4) 0.5994(3)
C27 C 0.6822(4) 0.0887(4) 0.7094(2)
H30 H 0.6784 0.0226 0.7114
H31 H 0.6649 0.1150 0.7453
H32 H 0.7455 0.1066 0.7054
C28 C 0.5519(4) 0.2031(4) 0.6629(3)
H33 H 0.5473 0.2411 0.6278
H34 H 0.5771 0.2388 0.6973
H35 H 0.4904 0.1807 0.6678
N5 N 0.6159(4) 0.1229(3) 0.6563(2)
O12 O 0.5642(3) 0.1097(3) 0.5553(2)
C29 C 0.8329(4) 0.1719(4) 0.5006(3)
H36 H 0.7667 0.1600 0.4897
H37 H 0.8513 0.1572 0.5420
H38 H 0.8682 0.1346 0.4765
C30 C 0.8520(5) 0.2703(4) 0.4906(3)
C31 C 0.8032(4) 0.4384(4) 0.4870(3)
H39 H 0.8463 0.4586 0.5211
H40 H 0.7460 0.4737 0.4843
H41 H 0.8314 0.4470 0.4514
C32 C 0.6849(4) 0.3093(4) 0.5069(3)
H42 H 0.6573 0.3590 0.5265
H43 H 0.6907 0.2559 0.5323
H44 H 0.6454 0.2948 0.4700
N6 N 0.7811(4) 0.3376(4) 0.4940(2)
O13 O 0.9290(3) 0.2939(3) 0.4764(2)
C33 C 0.5735(4) 0.2737(4) 0.3334(3)
H45 H 0.5961 0.3360 0.3323
H46 H 0.5465 0.2643 0.3694
H47 H 0.5264 0.2630 0.2994
C34 C 0.6535(4) 0.2084(4) 0.3318(2)
C35 C 0.5558(4) 0.0790(4) 0.3652(3)
H48 H 0.5361 0.1184 0.3953
H49 H 0.5649 0.0175 0.3807
H50 H 0.5081 0.0786 0.3307
C36 C 0.7263(4) 0.0496(5) 0.3498(3)
H51 H 0.7806 0.0831 0.3411
H52 H 0.7111 0.0020 0.3205
H53 H 0.7398 0.0223 0.3888
N7 N 0.6450(3) 0.1138(3) 0.3483(2)
O14 O 0.7174(3) 0.2393(3) 0.3188(2)
O15 O 0.1482(3) 0.8742(3) 0.17229(19)
H54 H 0.1845 0.8577 0.2036
H55 H 0.1731 0.8599 0.1416
loop_
_geom_bond_atom_site_label_1
_geom_bond_atom_site_label_2
_geom_bond_site_symmetry_1
_geom_bond_site_symmetry_2
C1 C2 1_555 1_555
C2 H1 1_555 1_555
C3 C2 1_555 1_555
C4 C3 1_555 1_555
H2 C4 1_555 1_555
C5 C4 1_555 1_555
C6 C1 1_555 1_555
H3 C6 1_555 1_555
C7 C3 1_555 1_555
C8 C5 1_555 1_555
C9 C10 1_555 1_555
C10 H4 1_555 1_555
C11 C10 1_555 1_555
C12 C11 1_555 1_555
H5 C12 1_555 1_555
C13 C12 1_555 1_555
C14 C9 1_555 1_555
H6 C14 1_555 1_555
C15 C11 1_555 1_555
C16 C13 1_555 1_555
C17 H7 1_555 1_555
H8 C17 1_555 1_555
H9 C17 1_555 1_555
C18 C17 1_555 1_555
C19 H10 1_555 1_555
H11 C19 1_555 1_555
H12 C19 1_555 1_555
C20 H13 1_555 1_555
H14 C20 1_555 1_555
H15 C20 1_555 1_555
C21 H16 1_555 1_555
H17 C21 1_555 1_555
H18 C21 1_555 1_555
C22 C21 1_555 1_555
C23 H19 1_555 1_555
H20 C23 1_555 1_555
H21 C23 1_555 1_555
C24 H22 1_555 1_555
H23 C24 1_555 1_555
H24 C24 1_555 1_555
Cd1 O1 1_555 1_555
Cd2 O2 1_555 1_555
N1 C1 1_555 1_555
N2 C9 1_555 1_555
N3 C18 1_555 1_555
N4 C22 1_555 1_555
O1 C7 1_555 1_555
O2 C7 1_555 1_555
O3 C8 1_555 1_555
O4 C8 1_555 1_555
O5 C15 1_555 1_555
O6 C15 1_555 1_555
O7 C16 1_555 1_555
O8 C16 1_555 1_555
O9 C18 1_555 1_555
O10 C22 1_555 1_555
O11 Cd1 1_555 1_555
H25 O11 1_555 1_555
H26 O11 1_555 1_555
C25 H27 1_555 1_555
H28 C25 1_555 1_555
H29 C25 1_555 1_555
C26 C25 1_555 1_555
C27 H30 1_555 1_555
H31 C27 1_555 1_555
H32 C27 1_555 1_555
C28 H33 1_555 1_555
H34 C28 1_555 1_555
H35 C28 1_555 1_555
N5 C26 1_555 1_555
O12 C26 1_555 1_555
C29 H36 1_555 1_555
H37 C29 1_555 1_555
H38 C29 1_555 1_555
C30 C29 1_555 1_555
C31 H39 1_555 1_555
H40 C31 1_555 1_555
H41 C31 1_555 1_555
C32 H42 1_555 1_555
H43 C32 1_555 1_555
H44 C32 1_555 1_555
N6 C30 1_555 1_555
O13 C30 1_555 1_555
C33 H45 1_555 1_555
H46 C33 1_555 1_555
H47 C33 1_555 1_555
C34 C33 1_555 1_555
C35 H48 1_555 1_555
H49 C35 1_555 1_555
H50 C35 1_555 1_555
C36 H51 1_555 1_555
H52 C36 1_555 1_555
H53 C36 1_555 1_555
N7 C34 1_555 1_555
O14 C34 1_555 1_555
O15 H54 1_555 1_555
H55 O15 1_555 1_555
C1B C2B 1_555 1_555
C2B H1B 1_555 1_555
C3B C2B 1_555 1_555
C4B C3B 1_555 1_555
H2B C4B 1_555 1_555
C5B C4B 1_555 1_555
C6B C1B 1_555 1_555
H3B C6B 1_555 1_555
C7B C3B 1_555 1_555
C8B C5B 1_555 1_555
N1B N1 1_555 1_555
O1B C7B 1_555 1_555
O2B C7B 1_555 1_555
O3B C8B 1_555 1_555
O4B C8B 1_555 1_555
C9B C10B 1_555 1_555
C10B H4B 1_555 1_555
C11B C10B 1_555 1_555
C12B C11B 1_555 1_555
H5B C12B 1_555 1_555
C13B C12B 1_555 1_555
C14B C9B 1_555 1_555
H6B C14B 1_555 1_555
C15B C11B 1_555 1_555
C16B C13B 1_555 1_555
N2B N2 1_555 1_555
O5B C15B 1_555 1_555
O6B C15B 1_555 1_555
O7B C16B 1_555 1_555
O8B C16B 1_555 1_555
C17B H7B 1_555 1_555
H8B C17B 1_555 1_555
H9B C17B 1_555 1_555
C18B C17B 1_555 1_555
C19B H10B 1_555 1_555
H11B C19B 1_555 1_555
H12B C19B 1_555 1_555
C20B H13B 1_555 1_555
H14B C20B 1_555 1_555
H15B C20B 1_555 1_555
C21B H16B 1_555 1_555
H17B C21B 1_555 1_555
H18B C21B 1_555 1_555
C22B C21B 1_555 1_555
C23B H19B 1_555 1_555
H20B C23B 1_555 1_555
H21B C23B 1_555 1_555
C24B H22B 1_555 1_555
H23B C24B 1_555 1_555
H24B C24B 1_555 1_555
Cd1B O5B 1_555 1_555
Cd2B O5B 1_555 1_555
N3B C18B 1_555 1_555
N4B C22B 1_555 1_555
O9B C18B 1_555 1_555
O10B C22B 1_555 1_555
O11B Cd1B 1_555 1_555
H25B O11B 1_555 1_555
H26B O11B 1_555 1_555
Cd1A O4 1_555 1_555
Cd1B_2 O1B 1_555 1_555
Cd1C O4B 1_555 1_555
Cd2A O7 1_555 1_555
Cd2A_2 O3 1_555 1_555
Cd2B_2 O2B 1_555 1_555
Cd2C O7B 1_555 1_555
Cd2C_2 O3B 1_555 1_555
O1B_2 Cd1B 1_555 1_555
O2B_2 Cd2B 1_555 1_555
O3A Cd2 1_555 1_555
O3C Cd2B 1_555 1_555
O4A Cd1 1_555 1_555
O4C Cd1B 1_555 1_555
O7A Cd2 1_555 1_555
O7C Cd2B 1_555 1_555
O8A Cd2 1_555 1_555
O8C Cd2B 1_555 1_555
C5 C6 1_555 1_555
C13 C14 1_555 1_555
C19 N3 1_555 1_555
C20 N3 1_555 1_555
C23 N4 1_555 1_555
C24 N4 1_555 1_555
Cd1 O5 1_555 1_555
Cd1 O9 1_555 1_555
Cd1 O10 1_555 1_555
Cd2 O5 1_555 1_555
Cd2 O6 1_555 1_555
Cd2 O4A 1_555 1_555
O4 Cd2A_2 1_555 1_555
O8 Cd2A 1_555 1_555
C27 N5 1_555 1_555
C28 N5 1_555 1_555
C31 N6 1_555 1_555
C32 N6 1_555 1_555
C35 N7 1_555 1_555
C36 N7 1_555 1_555
C1B N1B 1_555 1_555
C5B C6B 1_555 1_555
O4B Cd2C_2 1_555 1_555
C9B N2B 1_555 1_555
C13B C14B 1_555 1_555
O6B Cd2B 1_555 1_555
O8B Cd2C 1_555 1_555
C19B N3B 1_555 1_555
C20B N3B 1_555 1_555
C23B N4B 1_555 1_555
C24B N4B 1_555 1_555
Cd1B O9B 1_555 1_555
Cd1B O10B 1_555 1_555
Cd2B O4C 1_555 1_555

#END
