
#######################################################################
#
#                 Cambridge Crystallographic Data Centre
#                                CCDC 
#
#######################################################################
#
# If this CIF has been generated from an entry in the Cambridge 
# Structural Database, then it will include bibliographic, chemical, 
# crystal, experimental, refinement or atomic coordinate data resulting 
# from the CCDC's data processing and validation procedures.
#
#######################################################################

data_WITFIQ
_symmetry_cell_setting           hexagonal
_symmetry_space_group_name_H-M   'P 61 2 2'
_symmetry_Int_Tables_number      178
_space_group_name_Hall           "P 61 2' (0,0,5)"
loop_
_symmetry_equiv_pos_site_id
_symmetry_equiv_pos_as_xyz
1 x,y,z
2 -y,x-y,1/3+z
3 -x+y,-x,2/3+z
4 -x,-y,1/2+z
5 y,-x+y,5/6+z
6 x-y,x,1/6+z
7 y,x,1/3-z
8 x-y,-y,-z
9 -x,-x+y,2/3-z
10 -y,-x,5/6-z
11 -x+y,y,1/2-z
12 x,x-y,1/6-z
_cell_length_a                   18.615(3)
_cell_length_b                   18.615(3)
_cell_length_c                   29.464(6)
_cell_angle_alpha                90
_cell_angle_beta                 90
_cell_angle_gamma                120
_cell_volume                     8841.96
loop_
_atom_site_label
_atom_site_type_symbol
_atom_site_fract_x
_atom_site_fract_y
_atom_site_fract_z
Zn1 Zn 0.35933(3) 0.179666(15) 0.5833
Zn2 Zn 0.02576(3) 0.512881(15) 0.5833
O1 O 0.33848(19) 0.2683(2) 0.54660(10)
O2 O 0.27134(19) 0.2114(2) 0.60731(9)
O3 O 0.05687(14) 0.42775(14) 0.59418(8)
O4 O 0.13667(19) 0.50608(16) 0.53970(10)
N1 N 0.45393(15) 0.20136(15) 0.53585(7)
N2 N 0.53871(16) 0.06279(16) 0.30267(8)
C1 C 0.4723(2) 0.14558(19) 0.52127(11)
H1 H 0.4394 0.0910 0.5308
C2 C 0.5381(2) 0.16411(18) 0.49245(11)
H2 H 0.5498 0.1230 0.4837
C3 C 0.58641(17) 0.24466(16) 0.47688(8)
C4 C 0.5664(2) 0.30273(18) 0.49174(10)
H3 H 0.5972 0.3575 0.4821
C5 C 0.5008(2) 0.27945(19) 0.52087(11)
H4 H 0.4883 0.3195 0.5306
C6 C 0.65673(16) 0.26713(16) 0.44435(8)
H5 H 0.6801 0.2308 0.4491
C7 C 0.6183(2) 0.1201(3) 0.30080(15)
H6 H 0.6513 0.1144 0.2791
C8 C 0.6549(2) 0.1881(3) 0.32938(15)
H7 H 0.7110 0.2270 0.3265
C9 C 0.60728(17) 0.19752(17) 0.36246(8)
C10 C 0.52542(19) 0.1369(2) 0.36491(11)
H8 H 0.4913 0.1400 0.3869
C11 C 0.49312(19) 0.0707(2) 0.33472(11)
H9 H 0.4374 0.0305 0.3370
C12 C 0.64116(16) 0.27261(15) 0.39238(8)
H10 H 0.6056 0.2972 0.3892
C13 C 0.2835(2) 0.2572(2) 0.57307(11)
C14 C 0.23129(18) 0.29779(19) 0.56692(10)
C15 C 0.2005(3) 0.3131(3) 0.60529(15)
H11 H 0.2074 0.2939 0.6331
C16 C 0.15817(17) 0.35785(17) 0.60306(9)
H12 H 0.1354 0.3658 0.6294
C17 C 0.14982(17) 0.38988(16) 0.56298(9)
C18 C 0.17630(17) 0.37069(19) 0.52153(10)
C19 C 0.1619(3) 0.3953(3) 0.47848(12)
H13 H 0.1377 0.4285 0.4769
C20 C 0.1829(4) 0.3713(4) 0.43938(13)
H14 H 0.1722 0.3873 0.4115
C21 C 0.2207(4) 0.3219(4) 0.44129(12)
H15 H 0.2348 0.3054 0.4145
C22 C 0.2368(3) 0.2983(3) 0.48178(12)
H16 H 0.2619 0.2659 0.4824
C23 C 0.21599(19) 0.3220(2) 0.52332(10)
C24 C 0.11234(18) 0.44509(17) 0.56495(11)
N1I N 0.79864(15) 0.54607(15) 0.29748(7)
N2I N 0.93721(16) 0.46129(16) 0.53066(8)
C1I C 0.85442(19) 0.5277(2) 0.31206(11)
H1I H 0.9090 0.5606 0.3025
C2I C 0.83589(18) 0.4619(2) 0.34088(11)
H2I H 0.8770 0.4502 0.3496
C3I C 0.75534(16) 0.41359(17) 0.35645(8)
C4I C 0.69727(18) 0.4336(2) 0.34159(10)
H3I H 0.6425 0.4028 0.3512
C5I C 0.72055(19) 0.4992(2) 0.31246(11)
H4I H 0.6805 0.5117 0.3027
C6I C 0.73287(16) 0.34327(16) 0.38898(8)
H5I H 0.7692 0.3199 0.3842
C7I C 0.8799(3) 0.3817(2) 0.53253(15)
H6I H 0.8856 0.3487 0.5542
C8I C 0.8119(3) 0.3451(2) 0.50395(15)
H7I H 0.7730 0.2890 0.5068
C9I C 0.80248(17) 0.39272(17) 0.47087(8)
C10I C 0.8631(2) 0.47458(19) 0.46842(11)
H8I H 0.8600 0.5087 0.4464
C11I C 0.9293(2) 0.50688(19) 0.49861(11)
H9I H 0.9695 0.5626 0.4963
C12I C 0.72739(15) 0.35884(16) 0.44095(8)
H10I H 0.7028 0.3944 0.4441
O1K O 0.33848(19) 0.07018(28) 0.62007(10)
O2K O 0.27134(19) 0.05994(28) 0.55936(9)
O3K O 0.05687(14) -0.37088(20) 0.57249(8)
O4K O 0.13667(19) -0.36941(25) 0.62697(10)
C13K C 0.2835(2) 0.0263(3) 0.59360(11)
C14K C 0.23129(18) -0.06650(26) 0.59975(10)
C15K C 0.2005(3) -0.1126(4) 0.56138(15)
H11K H 0.2074 -0.0865 0.5336
C16K C 0.15817(17) -0.19968(24) 0.56361(9)
H12K H 0.1354 -0.2304 0.5373
C17K C 0.14982(17) -0.24006(23) 0.60369(9)
C18K C 0.17630(17) -0.19439(25) 0.64514(10)
C19K C 0.1619(3) -0.2334(4) 0.68819(12)
H13K H 0.1377 -0.2908 0.6898
C20K C 0.1829(4) -0.1884(6) 0.72729(13)
H14K H 0.1722 -0.2151 0.7552
C21K C 0.2207(4) -0.1012(6) 0.72538(12)
H15K H 0.2348 -0.0706 0.7522
C22K C 0.2368(3) -0.0615(4) 0.68489(12)
H16K H 0.2619 -0.0040 0.6843
C23K C 0.21599(19) -0.10601(28) 0.64335(10)
C24K C 0.11234(18) -0.33275(25) 0.60172(11)
Zn1B Zn 0.820336(34) 0.64067(3) 0.2500
Zn2_2 Zn 0.02576(3) -0.487119(15) 0.5833
Zn2_3 Zn 1.02576(3) 0.512881(15) 0.5833
Zn2B Zn 0.487121(34) -0.02576(3) 0.2500
O3K_2 O 0.05687(14) 0.62912(20) 0.57249(8)
O4K_2 O 0.13667(19) 0.63059(25) 0.62697(10)
N1K N 0.45393(15) 0.25257(21) 0.63082(7)
N2A N -0.06279(16) 0.47592(23) 0.63600(8)
N2I_2 N -0.06279(16) 0.46129(16) 0.53066(8)
loop_
_geom_bond_atom_site_label_1
_geom_bond_atom_site_label_2
_geom_bond_site_symmetry_1
_geom_bond_site_symmetry_2
Zn1 O1 1_555 1_555
Zn2 O3 1_555 1_555
O1 C13 1_555 1_555
O2 Zn1 1_555 1_555
O3 C24 1_555 1_555
O4 Zn2 1_555 1_555
N1 Zn1 1_555 1_555
N2 C7 1_555 1_555
C1 N1 1_555 1_555
H1 C1 1_555 1_555
C2 C1 1_555 1_555
H2 C2 1_555 1_555
C3 C2 1_555 1_555
C4 C3 1_555 1_555
H3 C4 1_555 1_555
C5 N1 1_555 1_555
H4 C5 1_555 1_555
C6 C3 1_555 1_555
H5 C6 1_555 1_555
C7 H6 1_555 1_555
C8 C7 1_555 1_555
H7 C8 1_555 1_555
C9 C8 1_555 1_555
C10 C9 1_555 1_555
H8 C10 1_555 1_555
C11 N2 1_555 1_555
H9 C11 1_555 1_555
C12 C6 1_555 1_555
H10 C12 1_555 1_555
C13 O2 1_555 1_555
C14 C13 1_555 1_555
C15 C14 1_555 1_555
H11 C15 1_555 1_555
C16 C15 1_555 1_555
H12 C16 1_555 1_555
C17 C16 1_555 1_555
C18 C17 1_555 1_555
C19 C18 1_555 1_555
H13 C19 1_555 1_555
C20 C19 1_555 1_555
H14 C20 1_555 1_555
C21 C20 1_555 1_555
H15 C21 1_555 1_555
C22 C21 1_555 1_555
H16 C22 1_555 1_555
C23 C14 1_555 1_555
C24 O4 1_555 1_555
N1I C1I 1_555 1_555
N2I C7I 1_555 1_555
C1I H1I 1_555 1_555
C2I C1I 1_555 1_555
H2I C2I 1_555 1_555
C3I C2I 1_555 1_555
C4I C3I 1_555 1_555
H3I C4I 1_555 1_555
C5I N1I 1_555 1_555
H4I C5I 1_555 1_555
C6I C12 1_555 1_555
H5I C6I 1_555 1_555
C7I H6I 1_555 1_555
C8I C7I 1_555 1_555
H7I C8I 1_555 1_555
C9I C8I 1_555 1_555
C10I C9I 1_555 1_555
H8I C10I 1_555 1_555
C11I N2I 1_555 1_555
H9I C11I 1_555 1_555
C12I C6 1_555 1_555
H10I C12I 1_555 1_555
O1K Zn1 1_555 1_555
O2K Zn1 1_555 1_555
O3K C24K 1_555 1_555
O4K C24K 1_555 1_555
C13K O1K 1_555 1_555
C14K C13K 1_555 1_555
C15K C14K 1_555 1_555
H11K C15K 1_555 1_555
C16K C15K 1_555 1_555
H12K C16K 1_555 1_555
C17K C16K 1_555 1_555
C18K C17K 1_555 1_555
C19K C18K 1_555 1_555
H13K C19K 1_555 1_555
C20K C19K 1_555 1_555
H14K C20K 1_555 1_555
C21K C20K 1_555 1_555
H15K C21K 1_555 1_555
C22K C21K 1_555 1_555
H16K C22K 1_555 1_555
C23K C14K 1_555 1_555
C24K C17K 1_555 1_555
Zn1B N1I 1_555 1_555
Zn2_2 O3K 1_555 1_555
Zn2_3 N2I 1_555 1_555
Zn2B N2 1_555 1_555
O3K_2 Zn2 1_555 1_555
O4K_2 Zn2 1_555 1_555
N1K Zn1 1_555 1_555
N2A Zn2 1_555 1_555
N2I_2 Zn2 1_555 1_555
C4 C5 1_555 1_555
C9 C12 1_555 1_555
C10 C11 1_555 1_555
C17 C24 1_555 1_555
C18 C23 1_555 1_555
C22 C23 1_555 1_555
C3I C6I 1_555 1_555
C4I C5I 1_555 1_555
C6I C12I 1_555 1_555
C9I C12I 1_555 1_555
C10I C11I 1_555 1_555
O2K C13K 1_555 1_555
O4K Zn2_2 1_555 1_555
C18K C23K 1_555 1_555
C22K C23K 1_555 1_555

#END
