
#######################################################################
#
#                 Cambridge Crystallographic Data Centre
#                                CCDC 
#
#######################################################################
#
# If this CIF has been generated from an entry in the Cambridge 
# Structural Database, then it will include bibliographic, chemical, 
# crystal, experimental, refinement or atomic coordinate data resulting 
# from the CCDC's data processing and validation procedures.
#
#######################################################################

data_WIVKAP
_symmetry_cell_setting           monoclinic
_symmetry_space_group_name_H-M   'P 21/c'
_symmetry_Int_Tables_number      14
_space_group_name_Hall           '-P 2ybc'
loop_
_symmetry_equiv_pos_site_id
_symmetry_equiv_pos_as_xyz
1 x,y,z
2 -x,1/2+y,1/2-z
3 -x,-y,-z
4 x,1/2-y,1/2+z
_cell_length_a                   10.6043(7)
_cell_length_b                   16.4306(11)
_cell_length_c                   21.8094(14)
_cell_angle_alpha                90
_cell_angle_beta                 90.4930(10)
_cell_angle_gamma                90
_cell_volume                     3799.82
loop_
_atom_site_label
_atom_site_type_symbol
_atom_site_fract_x
_atom_site_fract_y
_atom_site_fract_z
U1 U 0.257317(14) 0.484576(10) 0.026754(7)
P1 P -0.02277(10) 0.58609(7) 0.08546(5)
Cl1 Cl -0.41524(14) 0.56333(8) 0.30074(6)
O1 O 0.2514(3) 0.4043(2) 0.08148(14)
C1 C -0.0172(5) 0.6950(3) 0.0954(2)
U2 U -0.234858(15) 0.551682(10) 0.215479(7)
P2 P 0.46537(10) 0.40668(7) -0.08884(5)
Cl2 Cl -0.04716(13) 0.53292(9) 0.29711(6)
O2 O 0.2671(3) 0.5642(2) -0.02827(14)
C2 C -0.1304(6) 0.7379(3) 0.0996(2)
H1 H -0.2083 0.7093 0.0989
O3 O -0.2545(3) 0.44404(19) 0.21252(15)
C3 C -0.1300(7) 0.8217(4) 0.1047(3)
H2 H -0.2075 0.8502 0.1083
O4 O -0.2158(3) 0.65908(19) 0.22140(14)
C4 C -0.0194(9) 0.8639(4) 0.1048(3)
H3 H -0.0198 0.9215 0.1088
O5 O 0.1119(3) 0.5552(2) 0.08266(15)
C5 C 0.0928(8) 0.8228(4) 0.0990(4)
H4 H 0.1699 0.8523 0.0982
O6 O -0.0944(3) 0.57268(19) 0.02516(14)
C6 C 0.0942(6) 0.7378(4) 0.0943(3)
H5 H 0.1720 0.7098 0.0903
O7 O 0.3922(3) 0.40425(19) -0.02923(14)
C7 C 0.5107(5) 0.3047(3) -0.1087(2)
O8 O 0.5844(3) 0.45827(19) -0.08385(15)
C8 C 0.4746(8) 0.2388(4) -0.0757(4)
H6 H 0.4267 0.2459 -0.0395
O9 O -0.0937(3) 0.54843(19) 0.13924(14)
C9 C 0.5076(10) 0.1607(5) -0.0948(6)
H7 H 0.4851 0.1150 -0.0706
O10 O 0.3849(3) 0.4377(2) -0.14215(15)
C10 C 0.5701(8) 0.1497(5) -0.1466(5)
H8 H 0.5898 0.0960 -0.1595
C11 C 0.6061(8) 0.2126(5) -0.1811(4)
H9 H 0.6530 0.2040 -0.2174
C12 C 0.5734(7) 0.2914(4) -0.1627(3)
H10 H 0.5948 0.3364 -0.1880
U1B U -0.257317(14) 0.515424(10) -0.026754(7)
U1B_2 U 0.742683(14) 0.515424(10) -0.026754(7)
U2B U 0.234858(15) 0.448318(10) -0.215479(7)
O6B O 0.0944(3) 0.42732(19) -0.02516(14)
O8B O 0.4156(3) 0.54173(19) 0.08385(15)
O10B O -0.3849(3) 0.5623(2) 0.14215(15)
N1 N 0.4640(5) 0.3354(3) 0.1716(2)
N2 N 0.3442(5) 0.4074(3) 0.2272(3)
C13 C 0.4362(5) 0.4095(4) 0.1877(3)
H11 H 0.4764 0.4574 0.1732
C14 C 0.3862(5) 0.2830(4) 0.2032(3)
H12 H 0.3858 0.2253 0.2002
C15 C 0.3135(5) 0.3272(3) 0.2377(3)
H13 H 0.2510 0.3077 0.2650
C16 C 0.2717(14) 0.4821(9) 0.2368(9)
C17 C 0.5359(11) 0.3249(7) 0.1145(5)
C18 C 0.5619(14) 0.2507(9) 0.0941(7)
C19 C 0.6734(12) 0.2148(8) 0.0614(6)
C20 C 0.7485(13) 0.1387(9) 0.0943(6)
N3 N 0.077(5) 0.250(2) 0.1041(7)
N4 N -0.0142(4) 0.2956(3) 0.1820(2)
C21 C 0.0474(7) 0.2341(4) 0.1616(3)
H14 H 0.0679 0.1862 0.1839
C22 C -0.0034(6) 0.3085(4) 0.0844(3)
H15 H -0.0230 0.3218 0.0430
C23 C -0.0477(6) 0.3427(4) 0.1322(3)
H16 H -0.0951 0.3917 0.1332
C24 C -0.0268(14) 0.3238(10) 0.2456(5)
C25 C 0.0726(11) 0.1557(7) 0.0619(5)
C26 C 0.1752(14) 0.1281(9) 0.0584(5)
C27 C 0.232(2) 0.0601(15) 0.0298(8)
C28 C 0.374(2) 0.0377(14) 0.0280(10)
C29? C 0.2907(16) 0.4735(10) 0.2718(10)
C30? C 0.5872(18) 0.3003(12) 0.1374(9)
C31? C 0.6176(14) 0.2385(9) 0.1277(7)
N5? N 0.028(3) 0.2258(18) 0.0990(8)
C32? C -0.068(2) 0.2915(15) 0.2491(8)
C33? C 0.1846(16) 0.2158(11) 0.0670(8)
C34? C 0.225(2) 0.1550(13) 0.0699(8)
C35? C 0.2837(17) 0.0933(11) 0.0283(6)
C36? C 0.243(3) 0.0105(18) 0.0332(12)
loop_
_geom_bond_atom_site_label_1
_geom_bond_atom_site_label_2
_geom_bond_site_symmetry_1
_geom_bond_site_symmetry_2
U1 O1 1_555 1_555
P1 C1 1_555 1_555
Cl1 U2 1_555 1_555
C1 C2 1_555 1_555
U2 Cl2 1_555 1_555
P2 O7 1_555 1_555
O2 U1 1_555 1_555
C2 H1 1_555 1_555
O3 U2 1_555 1_555
C3 C2 1_555 1_555
H2 C3 1_555 1_555
O4 U2 1_555 1_555
C4 C3 1_555 1_555
H3 C4 1_555 1_555
O5 U1 1_555 1_555
C5 C4 1_555 1_555
H4 C5 1_555 1_555
O6 P1 1_555 1_555
C6 C1 1_555 1_555
H5 C6 1_555 1_555
O7 U1 1_555 1_555
C7 P2 1_555 1_555
O8 P2 1_555 1_555
C8 C7 1_555 1_555
H6 C8 1_555 1_555
O9 P1 1_555 1_555
C9 C8 1_555 1_555
H7 C9 1_555 1_555
O10 P2 1_555 1_555
C10 C9 1_555 1_555
H8 C10 1_555 1_555
C11 C10 1_555 1_555
H9 C11 1_555 1_555
C12 C7 1_555 1_555
H10 C12 1_555 1_555
N1 C13 1_555 1_555
N2 C13 1_555 1_555
C13 H11 1_555 1_555
C14 N1 1_555 1_555
H12 C14 1_555 1_555
C15 N2 1_555 1_555
H13 C15 1_555 1_555
C16 N2 1_555 1_555
C17 N1 1_555 1_555
C18 C17 1_555 1_555
C19 C18 1_555 1_555
C20 C19 1_555 1_555
N3 C21 1_555 1_555
N4 C21 1_555 1_555
C21 H14 1_555 1_555
C22 N3 1_555 1_555
H15 C22 1_555 1_555
C23 N4 1_555 1_555
H16 C23 1_555 1_555
C24 N4 1_555 1_555
C25 N3 1_555 1_555
C26 C25 1_555 1_555
C27 C26 1_555 1_555
C28 C27 1_555 1_555
U1B O6 1_555 1_555
U1B_2 O8 1_555 1_555
U2B O10 1_555 1_555
O6B U1 1_555 1_555
O8B U1 1_555 1_555
O10B U2 1_555 1_555
P1 O5 1_555 1_555
U2 O9 1_555 1_555
C5 C6 1_555 1_555
C11 C12 1_555 1_555
C14 C15 1_555 1_555
C22 C23 1_555 1_555

#END
