
#######################################################################
#
#                 Cambridge Crystallographic Data Centre
#                                CCDC 
#
#######################################################################
#
# If this CIF has been generated from an entry in the Cambridge 
# Structural Database, then it will include bibliographic, chemical, 
# crystal, experimental, refinement or atomic coordinate data resulting 
# from the CCDC's data processing and validation procedures.
#
#######################################################################

data_WIYFAM
_symmetry_cell_setting           tetragonal
_symmetry_space_group_name_H-M   'P 42/m c m'
_symmetry_Int_Tables_number      132
_space_group_name_Hall           '-P 4c 2c'
loop_
_symmetry_equiv_pos_site_id
_symmetry_equiv_pos_as_xyz
1 x,y,z
2 -y,x,1/2+z
3 y,-x,1/2+z
4 y,x,-z
5 -x,-y,z
6 -x,y,1/2-z
7 x,-y,1/2-z
8 -y,-x,-z
9 -x,-y,-z
10 y,-x,1/2-z
11 -y,x,1/2-z
12 -y,-x,z
13 x,y,-z
14 x,-y,1/2+z
15 -x,y,1/2+z
16 y,x,z
_cell_length_a                   11.5228(4)
_cell_length_b                   11.5228(4)
_cell_length_c                   25.7692(19)
_cell_angle_alpha                90
_cell_angle_beta                 90
_cell_angle_gamma                90
_cell_volume                     3421.5
loop_
_atom_site_label
_atom_site_type_symbol
_atom_site_fract_x
_atom_site_fract_y
_atom_site_fract_z
Zn1 Zn 0.40139(3) 0.40139(3) 0.20782(2)
N1 N 0.2477(2) 0.4615(3) 0.22942(11)
O1 O 0.4316(3) 0.4316(3) 0.13381(14)
O2 O 0.5000 0.5000 0.2500
C1 C 0.1077(4) 0.3599(6) 0.1737(2)
H1 H 0.0905 0.2841 0.1872
H2 H 0.1722 0.3549 0.1502
H3 H 0.0412 0.3894 0.1556
C2 C 0.1375(3) 0.4390(4) 0.21722(16)
C3 C 0.0648(4) 0.5000 0.2500
C4 C 0.5000 0.5000 0.1119(3)
C5 C 0.5000 0.5000 0.0540(3)
C6 C 0.4286(4) 0.4286(4) 0.0267(3)
H4 H 0.3789 0.3789 0.0444
Zn1I Zn 0.40139(3) 0.59861(3) 0.29218(2)
Zn1K Zn -0.40139(3) 0.59861(3) 0.20782(2)
Zn1J Zn -0.40139(3) 0.40139(3) 0.29218(2)
Zn1J_2 Zn 0.59861(3) 0.40139(3) 0.29218(2)
Zn1K_2 Zn 0.59861(3) 0.59861(3) 0.20782(2)
Zn1C Zn 0.40139(3) 0.40139(3) -0.20782(2)
Zn1H Zn 0.59861(3) 0.59861(3) -0.20782(2)
Zn1K_3 Zn 0.59861(3) -0.40139(3) 0.20782(2)
Zn1I_2 Zn 0.40139(3) -0.40139(3) 0.29218(2)
N1F N 0.2477(2) 0.5385(3) 0.27058(11)
N1D N -0.2477(2) 0.5385(3) 0.22942(11)
N1E N -0.2477(2) 0.4615(3) 0.27058(11)
N1O N 0.4615(3) 0.2477(2) 0.22942(11)
N1J N 0.5385(3) 0.2477(2) 0.27058(11)
N1K N 0.5385(3) -0.2477(2) 0.22942(11)
N1I N 0.4615(3) -0.2477(2) 0.27058(11)
N1I_2 N 0.4615(3) 0.7523(2) 0.27058(11)
N1K_2 N -0.4615(3) 0.7523(2) 0.22942(11)
N1J_2 N -0.4615(3) 0.2477(2) 0.27058(11)
O1K O 0.5684(3) 0.5684(3) 0.13381(14)
O1C O 0.4316(3) 0.4316(3) -0.13381(14)
O1H O 0.5684(3) 0.5684(3) -0.13381(14)
O1I O 0.4316(3) 0.5684(3) 0.36619(14)
O1K_2 O -0.4316(3) 0.5684(3) 0.13381(14)
O1J O -0.4316(3) 0.4316(3) 0.36619(14)
O2_2 O -0.5000 0.5000 0.2500
C1F C 0.1077(4) 0.6401(6) 0.3263(2)
C1E C -0.1077(4) 0.3599(6) 0.3263(2)
C1D C -0.1077(4) 0.6401(6) 0.1737(2)
C1O C 0.3599(6) 0.1077(4) 0.1737(2)
C1J C 0.6401(6) 0.1077(4) 0.3263(2)
C1I C 0.3599(6) -0.1077(4) 0.3263(2)
C1K C 0.6401(6) -0.1077(4) 0.1737(2)
H1F H 0.0905 0.7159 0.3128
H1E H -0.0905 0.2841 0.3128
H1D H -0.0905 0.7159 0.1872
H1O H 0.2841 0.0905 0.1872
H1J H 0.7159 0.0905 0.3128
H1I H 0.2841 -0.0905 0.3128
H1K H 0.7159 -0.0905 0.1872
H2F H 0.1722 0.6451 0.3498
H2E H -0.1722 0.3549 0.3498
H2D H -0.1722 0.6451 0.1502
H2O H 0.3549 0.1722 0.1502
H2J H 0.6451 0.1722 0.3498
H2I H 0.3549 -0.1722 0.3498
H2K H 0.6451 -0.1722 0.1502
H3F H 0.0412 0.6106 0.3444
H3E H -0.0412 0.3894 0.3444
H3D H -0.0412 0.6106 0.1556
H3O H 0.3894 0.0412 0.1556
H3J H 0.6106 0.0412 0.3444
H3I H 0.3894 -0.0412 0.3444
H3K H 0.6106 -0.0412 0.1556
C2F C 0.1375(3) 0.5610(4) 0.28278(16)
C2D C -0.1375(3) 0.5610(4) 0.21722(16)
C2E C -0.1375(3) 0.4390(4) 0.28278(16)
C2O C 0.4390(4) 0.1375(3) 0.21722(16)
C2J C 0.5610(4) 0.1375(3) 0.28278(16)
C2K C 0.5610(4) -0.1375(3) 0.21722(16)
C2I C 0.4390(4) -0.1375(3) 0.28278(16)
C3D C -0.0648(4) 0.5000 0.2500
C3O C 0.5000 0.0648(4) 0.2500
C3I C 0.5000 -0.0648(4) 0.2500
C4C C 0.5000 0.5000 -0.1119(3)
C5C C 0.5000 0.5000 -0.0540(3)
C6C C 0.4286(4) 0.4286(4) -0.0267(3)
C6H C 0.5714(4) 0.5714(4) -0.0267(3)
C6K C 0.5714(4) 0.5714(4) 0.0267(3)
H4K H 0.6211 0.6211 0.0444
H4H H 0.6211 0.6211 -0.0444
H4C H 0.3789 0.3789 -0.0444
C7 C 0.8675(18) 0.1325(18) 0.1102(11)
C8 C 0.7892(19) 0.2108(19) 0.1870(11)
H5 H 0.8427 0.1547 0.2006
H6 H 0.7122 0.1929 0.1988
H7 H 0.8106 0.2869 0.1988
C9 C 0.722(2) 0.278(2) 0.0993(15)
H8 H 0.7379 0.2608 0.0637
H9 H 0.7381 0.3588 0.1058
N2 N 0.7922(16) 0.2078(16) 0.1321(10)
O3 O 0.875(3) 0.125(3) 0.0633(12)
H9K H 0.6412 0.2619 0.1058
O4 O 0.163(5) 0.163(5) 0.0000
O5 O 0.396(3) 0.074(4) 0.0000
H10? H 0.6412 0.2633 0.1064
O6? O 0.9261(18) 0.0739(18) 0.1399(16)
loop_
_geom_bond_atom_site_label_1
_geom_bond_atom_site_label_2
_geom_bond_site_symmetry_1
_geom_bond_site_symmetry_2
Zn1 N1 1_555 1_555
N1 C2 1_555 1_555
O1 Zn1 1_555 1_555
O2 Zn1 1_555 1_555
C1 H1 1_555 1_555
H2 C1 1_555 1_555
H3 C1 1_555 1_555
C2 C1 1_555 1_555
C3 C2 1_555 1_555
C4 O1 1_555 1_555
C5 C4 1_555 1_555
C6 C5 1_555 1_555
H4 C6 1_555 1_555
C7 N2 1_555 1_555
C8 H5 1_555 1_555
H6 C8 1_555 1_555
H7 C8 1_555 1_555
C9 H8 1_555 1_555
H9 C9 1_555 1_555
N2 C8 1_555 1_555
O3 C7 1_555 1_555
Zn1I O2 1_555 1_555
Zn1K N1D 1_555 1_555
Zn1J N1E 1_555 1_555
Zn1J_2 O2 1_555 1_555
Zn1K_2 O2 1_555 1_555
Zn1C O1C 1_555 1_555
Zn1H O1H 1_555 1_555
Zn1K_3 N1K 1_555 1_555
Zn1I_2 N1I 1_555 1_555
N1F N1 1_555 1_555
N1D N1E 1_555 1_555
N1E C2E 1_555 1_555
N1O Zn1 1_555 1_555
N1J Zn1J_2 1_555 1_555
N1K N1I 1_555 1_555
N1I C2I 1_555 1_555
N1I_2 Zn1I 1_555 1_555
N1K_2 Zn1K 1_555 1_555
N1J_2 Zn1J 1_555 1_555
O1K C4 1_555 1_555
O1C C4C 1_555 1_555
O1H C4C 1_555 1_555
O1I Zn1I 1_555 1_555
O1K_2 Zn1K 1_555 1_555
O1J Zn1J 1_555 1_555
O2_2 Zn1K 1_555 1_555
C1F H1F 1_555 1_555
C1E H1E 1_555 1_555
C1D H1D 1_555 1_555
C1O H1O 1_555 1_555
C1J H1J 1_555 1_555
C1I H1I 1_555 1_555
C1K H1K 1_555 1_555
H2F C1F 1_555 1_555
H2E C1E 1_555 1_555
H2D C1D 1_555 1_555
H2O C1O 1_555 1_555
H2J C1J 1_555 1_555
H2I C1I 1_555 1_555
H2K C1K 1_555 1_555
H3F C1F 1_555 1_555
H3E C1E 1_555 1_555
H3D C1D 1_555 1_555
H3O C1O 1_555 1_555
H3J C1J 1_555 1_555
H3I C1I 1_555 1_555
H3K C1K 1_555 1_555
C2F C3 1_555 1_555
C2D N1D 1_555 1_555
C2E C1E 1_555 1_555
C2O N1O 1_555 1_555
C2J N1J 1_555 1_555
C2K N1K 1_555 1_555
C2I C1I 1_555 1_555
C3D C3 1_555 1_555
C3O C2O 1_555 1_555
C3I C2K 1_555 1_555
C4C C5C 1_555 1_555
C5C C6C 1_555 1_555
C6C C6 1_555 1_555
C6H C5C 1_555 1_555
C6K C5 1_555 1_555
H4K C6K 1_555 1_555
H4H C6H 1_555 1_555
H4C C6C 1_555 1_555
H9K C9 1_555 1_555
C9 N2 1_555 1_555
Zn1I N1F 1_555 1_555
Zn1J O2_2 1_555 1_555
Zn1K_2 O1K 1_555 1_555
N1F C2F 1_555 1_555
N1O N1J 1_555 1_555
C1F C2F 1_555 1_555
C1D C2D 1_555 1_555
C1O C2O 1_555 1_555
C1J C2J 1_555 1_555
C1K C2K 1_555 1_555
C2D C3D 1_555 1_555
C2E C3D 1_555 1_555
C2J C3O 1_555 1_555
C2I C3I 1_555 1_555
C3O C3I 1_555 1_555
C6H C6K 1_555 1_555

#END
