
#######################################################################
#
#                 Cambridge Crystallographic Data Centre
#                                CCDC 
#
#######################################################################
#
# If this CIF has been generated from an entry in the Cambridge 
# Structural Database, then it will include bibliographic, chemical, 
# crystal, experimental, refinement or atomic coordinate data resulting 
# from the CCDC's data processing and validation procedures.
#
#######################################################################

data_WOCWAN
_symmetry_cell_setting           monoclinic
_symmetry_space_group_name_H-M   'C 2/c'
_symmetry_Int_Tables_number      15
_space_group_name_Hall           '-C 2yn'
loop_
_symmetry_equiv_pos_site_id
_symmetry_equiv_pos_as_xyz
1 x,y,z
2 1/2+x,1/2+y,z
3 -x,y,1/2-z
4 1/2-x,1/2+y,1/2-z
5 -x,-y,-z
6 1/2-x,1/2-y,-z
7 x,-y,1/2+z
8 1/2+x,1/2-y,1/2+z
_cell_length_a                   24.706(7)
_cell_length_b                   13.153(4)
_cell_length_c                   8.509(2)
_cell_angle_alpha                90
_cell_angle_beta                 90.725(18)
_cell_angle_gamma                90
_cell_volume                     2764.85
loop_
_atom_site_label
_atom_site_type_symbol
_atom_site_fract_x
_atom_site_fract_y
_atom_site_fract_z
Cu1 Cu 0.705645(10) 0.795262(18) 0.44619(3)
O1 O 0.67583(7) 0.77730(14) 0.65882(18)
O2 O 0.75238(7) 0.70850(14) 0.74953(18)
O3 O 0.68012(7) 0.34376(13) 0.9037(2)
O4 O 0.75548(7) 0.41981(12) 0.9890(2)
N1 N 0.63983(7) 0.87023(15) 0.3236(2)
C1 C 0.64079(9) 0.97131(19) 0.2992(3)
H1 H 0.6687 1.0101 0.3484
C2 C 0.60296(9) 1.0211(2) 0.2058(3)
H2 H 0.6049 1.0928 0.1935
C3 C 0.56174(8) 0.9666(2) 0.1317(3)
C4 C 0.56141(9) 0.8612(2) 0.1539(3)
H3 H 0.5347 0.8204 0.1030
C5 C 0.60063(10) 0.81710(18) 0.2495(3)
H4 H 0.5997 0.7455 0.2637
C6 C 0.52115(9) 1.0211(2) 0.0363(3)
H5 H 0.5254 1.0925 0.0252
C7 C 0.70406(9) 0.73461(15) 0.7645(2)
C8 C 0.67754(9) 0.71217(16) 0.9204(2)
H6 H 0.6378 0.7094 0.9039
H7 H 0.6855 0.7680 0.9952
C9 C 0.69652(10) 0.61065(16) 0.9904(2)
H8 H 0.6777 0.5981 1.0906
H9 H 0.7358 0.6146 1.0133
C10 C 0.68558(11) 0.52224(17) 0.8783(3)
H10 H 0.6459 0.5148 0.8649
H11 H 0.7006 0.5400 0.7745
C11 C 0.70875(9) 0.42091(16) 0.9290(2)
Cu1E Cu 0.794355(10) 0.704738(18) 0.55381(3)
Cu1F Cu 0.705645(10) 0.204738(18) 0.94619(3)
Cu1C Cu 0.794355(10) 0.295262(18) 1.05381(3)
Cu1D Cu 0.294355(10) 1.204738(18) -0.44619(3)
Cu1C_2 Cu 0.794355(10) 1.295262(18) 0.05381(3)
Cu1F_2 Cu 0.705645(10) 1.204738(18) -0.05381(3)
O1E O 0.82417(7) 0.72270(14) 0.34118(18)
O2E O 0.74762(7) 0.79150(14) 0.25047(18)
O3E O 0.81988(7) 1.15624(13) 0.0963(2)
O3F O 0.68012(7) 0.65624(13) 0.4037(2)
O3C O 0.81988(7) 0.84376(13) 0.5963(2)
O4E O 0.74452(7) 1.08019(12) 0.0110(2)
O4C O 0.74452(7) 0.91981(12) 0.5110(2)
O4F O 0.75548(7) 0.58019(12) 0.4890(2)
N1D N 0.36017(7) 1.12977(15) -0.3236(2)
N1E N 0.86017(7) 0.62977(15) 0.6764(2)
C1D C 0.35921(9) 1.02869(19) -0.2992(3)
H1D H 0.3313 0.9899 -0.3484
C2D C 0.39704(9) 0.9789(2) -0.2058(3)
H2D H 0.3951 0.9072 -0.1935
C3D C 0.43826(8) 1.0334(2) -0.1317(3)
C4D C 0.43859(9) 1.1388(2) -0.1539(3)
H3D H 0.4653 1.1796 -0.1030
C5D C 0.39937(10) 1.18290(18) -0.2495(3)
H4D H 0.4003 1.2545 -0.2637
C6D C 0.47885(9) 0.9789(2) -0.0363(3)
H5D H 0.4746 0.9075 -0.0252
C7E C 0.79594(9) 0.76539(15) 0.2355(2)
C8E C 0.82246(9) 0.78783(16) 0.0796(2)
H6E H 0.8622 0.7906 0.0961
H7E H 0.8145 0.7320 0.0048
C9E C 0.80348(10) 0.88935(16) 0.0096(2)
H8E H 0.8223 0.9019 -0.0906
H9E H 0.7642 0.8854 -0.0133
C10E C 0.81442(11) 0.97776(17) 0.1217(3)
H10E H 0.8541 0.9852 0.1351
H11E H 0.7994 0.9600 0.2255
C11E C 0.79125(9) 1.07909(16) 0.0710(2)
O5 O 0.5770(6) 0.6517(19) 0.633(2)
O6 O 0.4741(4) 0.6781(7) 0.5976(11)
O7 O 0.4471(7) 0.5628(13) 0.286(3)
O8? O 0.5492(7) 0.5713(13) 0.135(3)
O9? O 0.5672(6) 0.7005(14) 0.5979(19)
O10? O 0.5825(4) 0.6218(13) 0.6017(18)
O11? O 0.5040(6) 0.6383(12) 0.4037(17)
O12? O 0.4496(7) 0.5027(14) 0.128(2)
O13? O 0.5738(7) 0.6242(13) 0.517(2)
loop_
_geom_bond_atom_site_label_1
_geom_bond_atom_site_label_2
_geom_bond_site_symmetry_1
_geom_bond_site_symmetry_2
Cu1 O1 1_555 1_555
O1 C7 1_555 1_555
O2 C7 1_555 1_555
O3 C11 1_555 1_555
O4 C11 1_555 1_555
N1 Cu1 1_555 1_555
C1 N1 1_555 1_555
H1 C1 1_555 1_555
C2 C1 1_555 1_555
H2 C2 1_555 1_555
C3 C2 1_555 1_555
C4 C3 1_555 1_555
H3 C4 1_555 1_555
C5 N1 1_555 1_555
H4 C5 1_555 1_555
C6 C3 1_555 1_555
H5 C6 1_555 1_555
C7 C8 1_555 1_555
C8 H6 1_555 1_555
H7 C8 1_555 1_555
C9 C8 1_555 1_555
H8 C9 1_555 1_555
H9 C9 1_555 1_555
C10 C9 1_555 1_555
H10 C10 1_555 1_555
H11 C10 1_555 1_555
C11 C10 1_555 1_555
Cu1E O2 1_555 1_555
Cu1F O3 1_555 1_555
Cu1C O4 1_555 1_555
Cu1D N1D 1_555 1_555
Cu1C_2 O3E 1_555 1_555
Cu1F_2 O4E 1_555 1_555
O1E Cu1E 1_555 1_555
O2E Cu1 1_555 1_555
O3E C11E 1_555 1_555
O3F Cu1 1_555 1_555
O3C Cu1E 1_555 1_555
O4E C11E 1_555 1_555
O4C Cu1 1_555 1_555
O4F Cu1E 1_555 1_555
N1D C1D 1_555 1_555
N1E Cu1E 1_555 1_555
C1D H1D 1_555 1_555
C2D C1D 1_555 1_555
H2D C2D 1_555 1_555
C3D C2D 1_555 1_555
C4D C3D 1_555 1_555
H3D C4D 1_555 1_555
C5D N1D 1_555 1_555
H4D C5D 1_555 1_555
C6D C6 1_555 1_555
H5D C6D 1_555 1_555
C7E O1E 1_555 1_555
C8E C7E 1_555 1_555
H6E C8E 1_555 1_555
H7E C8E 1_555 1_555
C9E C8E 1_555 1_555
H8E C9E 1_555 1_555
H9E C9E 1_555 1_555
C10E C9E 1_555 1_555
H10E C10E 1_555 1_555
H11E C10E 1_555 1_555
C11E C10E 1_555 1_555
C4 C5 1_555 1_555
O2E C7E 1_555 1_555
C3D C6D 1_555 1_555
C4D C5D 1_555 1_555

#END
