
#######################################################################
#
#                 Cambridge Crystallographic Data Centre
#                                CCDC 
#
#######################################################################
#
# If this CIF has been generated from an entry in the Cambridge 
# Structural Database, then it will include bibliographic, chemical, 
# crystal, experimental, refinement or atomic coordinate data resulting 
# from the CCDC's data processing and validation procedures.
#
#######################################################################

data_WOHTUK
_symmetry_cell_setting           orthorhombic
_symmetry_space_group_name_H-M   'P n n n'
_symmetry_Int_Tables_number      48
_space_group_name_Hall           '-P 2ab 2bc'
loop_
_symmetry_equiv_pos_site_id
_symmetry_equiv_pos_as_xyz
1 x,y,z
2 1/2-x,1/2-y,z
3 x,1/2-y,1/2-z
4 1/2-x,y,1/2-z
5 -x,-y,-z
6 1/2+x,1/2+y,-z
7 -x,1/2+y,1/2+z
8 1/2+x,-y,1/2+z
_cell_length_a                   10.2646(13)
_cell_length_b                   32.685(2)
_cell_length_c                   33.689(4)
_cell_angle_alpha                90
_cell_angle_beta                 90
_cell_angle_gamma                90
_cell_volume                     11302.6
loop_
_atom_site_label
_atom_site_type_symbol
_atom_site_fract_x
_atom_site_fract_y
_atom_site_fract_z
Cu1 Cu 0.07097(12) 0.42167(3) 0.15675(4)
Cu2 Cu 0.57527(14) 0.23037(3) 0.02822(5)
Cu3 Cu 0.7500 0.2500 0.09743(6)
Cu4 Cu 0.20625(13) 0.47613(3) 0.09133(4)
Cu5 Cu -0.05682(16) 0.50611(4) 0.13168(5)
C1 C 0.4463(8) 0.32917(18) 0.0905(2)
C2 C 0.3620(7) 0.36276(18) 0.1001(2)
N1 N 0.2010(6) 0.39997(16) 0.12762(19)
N2 N 0.2664(7) 0.42500(17) 0.1006(2)
N3 N 0.6033(7) 0.28051(16) 0.0926(2)
N4 N -0.1235(8) 0.4769(2) 0.1732(2)
N5 N 0.1426(7) 0.52683(18) 0.0806(2)
C3 C 0.2588(7) 0.36333(15) 0.1258(2)
C4 C 0.4401(7) 0.3035(2) 0.05979(18)
C5 C -0.2112(9) 0.4600(2) 0.2332(3)
C6 C 0.3627(6) 0.40180(19) 0.0854(2)
C7 C -0.2118(6) 0.4865(2) 0.2019(3)
N6 N -0.0602(7) 0.4427(2) 0.1865(2)
N7 N 0.5334(7) 0.27423(18) 0.0592(3)
N8 N 0.0226(8) 0.53846(19) 0.0950(2)
C8 C -0.1126(7) 0.4335(2) 0.2217(2)
C9 C 0.5504(7) 0.3146(2) 0.1111(2)
C10 C 0.1037(8) 0.3032(3) 0.1311(4)
H1 H 0.0476 0.3211 0.1163
H2 H 0.0533 0.2883 0.1503
H3 H 0.1451 0.2843 0.1133
C11 C 0.6128(7) 0.3290(3) 0.1505(2)
H4 H 0.6342 0.3054 0.1666
H5 H 0.5508 0.3456 0.1650
C12 C 0.2089(8) 0.3288(2) 0.1527(2)
H6 H 0.1722 0.3404 0.1767
H7 H 0.2809 0.3113 0.1602
C13 C 0.1846(5) 0.5587(2) 0.0589(3)
C14 C 0.1228(10) 0.6328(2) 0.0441(3)
C15 C 0.0021(6) 0.5778(2) 0.0830(3)
C16 C 0.1083(11) 0.59220(19) 0.0604(3)
C17 C 0.4589(7) 0.4227(2) 0.0566(2)
H8 H 0.4118 0.4406 0.0386
H9 H 0.5040 0.4022 0.0409
C18 C -0.1530(13) 0.6199(4) 0.1251(3)
H10 H -0.1954 0.6043 0.1455
H11 H -0.2028 0.6441 0.1197
H12 H -0.0673 0.6275 0.1338
C19 C 0.3151(6) 0.5530(3) 0.0359(2)
H13 H 0.3178 0.5713 0.0132
H14 H 0.3226 0.5251 0.0264
C20 C -0.3014(7) 0.5250(2) 0.1968(3)
H15 H -0.3294 0.5348 0.2226
H16 H -0.2538 0.5467 0.1836
C21 C 0.3368(8) 0.3025(3) 0.0262(2)
H17 H 0.2998 0.2753 0.0242
H18 H 0.2670 0.3215 0.0323
C22 C -0.0576(7) 0.3967(2) 0.2449(3)
H19 H -0.1241 0.3862 0.2626
H20 H -0.0348 0.3751 0.2264
C23 C 0.4009(13) 0.3144(5) -0.0137(2)
H21 H 0.3574 0.3379 -0.0245
H22 H 0.3939 0.2920 -0.0320
H23 H 0.4911 0.3207 -0.0094
C24 C 0.5596(8) 0.4482(4) 0.0811(4)
H24 H 0.5147 0.4637 0.1011
H25 H 0.6054 0.4666 0.0637
H26 H 0.6207 0.4301 0.0936
C25 C 0.7383(8) 0.3544(4) 0.1426(4)
H27 H 0.7865 0.3422 0.1212
H28 H 0.7912 0.3547 0.1661
H29 H 0.7149 0.3819 0.1357
C26 C -0.4216(8) 0.5123(5) 0.1715(4)
H30 H -0.4890 0.5325 0.1744
H31 H -0.4533 0.4863 0.1804
H32 H -0.3968 0.5105 0.1441
C27 C 0.0637(8) 0.4086(4) 0.2692(3)
H33 H 0.1404 0.4046 0.2533
H34 H 0.0686 0.3918 0.2925
H35 H 0.0576 0.4369 0.2768
C28 C 0.4296(7) 0.5631(6) 0.0650(4)
H36 H 0.4201 0.5905 0.0747
H37 H 0.5111 0.5605 0.0512
H38 H 0.4278 0.5443 0.0869
N9 N 0.1146(8) 0.68786(17) 0.0038(2)
C29 C 0.0758(8) 0.6480(2) 0.00833(18)
C30 C 0.1871(10) 0.6635(3) 0.06164(19)
C31 C 0.0041(7) 0.6263(3) -0.0262(2)
H39 H -0.0570 0.6451 -0.0384
H40 H -0.0450 0.6032 -0.0158
C32 C 0.2815(9) 0.6641(4) 0.0986(2)
H41 H 0.3146 0.6369 0.1039
H42 H 0.3548 0.6821 0.0936
C33 C -0.1423(8) 0.5937(4) 0.0867(3)
H43 H -0.1648 0.6101 0.0637
H44 H -0.2021 0.5707 0.0881
C34 C 0.1028(11) 0.6108(4) -0.0581(3)
H45 H 0.1496 0.6337 -0.0689
H46 H 0.0564 0.5972 -0.0790
H47 H 0.1630 0.5921 -0.0461
N10 N 0.1772(11) 0.69792(18) 0.0372(3)
C35 C 0.2018(16) 0.6799(6) 0.1350(2)
H48 H 0.1880 0.7089 0.1325
H49 H 0.2493 0.6745 0.1590
H50 H 0.1192 0.6662 0.1360
Cu6 Cu 0.2500 0.7500 0.04086(7)
N4C N -0.3765(8) 0.4769(2) 0.3268(2)
C5C C -0.2888(9) 0.4600(2) 0.2668(3)
C7C C -0.2882(6) 0.4865(2) 0.2981(3)
N6C N -0.4398(7) 0.4427(2) 0.3135(2)
C8C C -0.3874(7) 0.4335(2) 0.2783(2)
C20C C -0.1986(7) 0.5250(2) 0.3032(3)
H15C H -0.1706 0.5348 0.2774
H16C H -0.2462 0.5467 0.3164
C22C C -0.4424(7) 0.3967(2) 0.2551(3)
H19C H -0.3759 0.3862 0.2374
H20C H -0.4652 0.3751 0.2736
C26C C -0.0784(8) 0.5123(5) 0.3285(4)
H30C H -0.0110 0.5325 0.3256
H31C H -0.0467 0.4863 0.3196
H32C H -0.1032 0.5105 0.3559
C27C C -0.5637(8) 0.4086(4) 0.2308(3)
H33C H -0.6404 0.4046 0.2467
H34C H -0.5686 0.3918 0.2075
H35C H -0.5576 0.4369 0.2232
Cu1A Cu 0.42903(12) 1.07833(3) 0.15675(4)
Cu2A Cu -0.07527(14) 1.26963(3) 0.02822(5)
Cu4A Cu 0.29375(13) 1.02387(3) 0.09133(4)
Cu5A Cu 0.55682(16) 0.99389(4) 0.13168(5)
C1A C 0.0537(8) 1.17083(18) 0.0905(2)
C2A C 0.1380(7) 1.13724(18) 0.1001(2)
N1A N 0.2990(6) 1.10003(16) 0.12762(19)
N2A N 0.2336(7) 1.07500(17) 0.1006(2)
N3A N -0.1033(7) 1.21949(16) 0.0926(2)
N5A N 0.3574(7) 0.97317(18) 0.0806(2)
C3A C 0.2412(7) 1.13667(15) 0.1258(2)
C4A C 0.0599(7) 1.1965(2) 0.05979(18)
C6A C 0.1373(6) 1.09820(19) 0.0854(2)
N7A N -0.0334(7) 1.22577(18) 0.0592(3)
N8A N 0.4774(8) 0.96154(19) 0.0950(2)
C9A C -0.0504(7) 1.1854(2) 0.1111(2)
C10A C 0.3963(8) 1.1968(3) 0.1311(4)
H1A H 0.4524 1.1789 0.1163
H2A H 0.4467 1.2117 0.1503
H3A H 0.3549 1.2157 0.1133
C11A C -0.1128(7) 1.1710(3) 0.1505(2)
H4A H -0.1342 1.1946 0.1666
H5A H -0.0508 1.1544 0.1650
C12A C 0.2911(8) 1.1712(2) 0.1527(2)
H6A H 0.3278 1.1596 0.1767
H7A H 0.2191 1.1887 0.1602
C13A C 0.3154(5) 0.9413(2) 0.0589(3)
C14A C 0.3772(10) 0.8672(2) 0.0441(3)
C15A C 0.4979(6) 0.9222(2) 0.0830(3)
C16A C 0.3917(11) 0.90780(19) 0.0604(3)
C17A C 0.0411(7) 1.0773(2) 0.0566(2)
H8A H 0.0882 1.0594 0.0386
H9A H -0.0040 1.0978 0.0409
C18A C 0.6530(13) 0.8801(4) 0.1251(3)
H10A H 0.6954 0.8957 0.1455
H11A H 0.7028 0.8559 0.1197
H12A H 0.5673 0.8725 0.1338
C19A C 0.1849(6) 0.9470(3) 0.0359(2)
H13A H 0.1822 0.9287 0.0132
H14A H 0.1774 0.9749 0.0264
C21A C 0.1632(8) 1.1975(3) 0.0262(2)
H17A H 0.2002 1.2247 0.0242
H18A H 0.2330 1.1785 0.0323
C23A C 0.0991(13) 1.1856(5) -0.0137(2)
H21A H 0.1426 1.1621 -0.0245
H22A H 0.1061 1.2080 -0.0320
H23A H 0.0089 1.1793 -0.0094
C24A C -0.0596(8) 1.0518(4) 0.0811(4)
H24A H -0.0147 1.0363 0.1011
H25A H -0.1054 1.0334 0.0637
H26A H -0.1207 1.0699 0.0936
C25A C -0.2383(8) 1.1456(4) 0.1426(4)
H27A H -0.2865 1.1578 0.1212
H28A H -0.2912 1.1453 0.1661
H29A H -0.2149 1.1181 0.1357
C28A C 0.0704(7) 0.9369(6) 0.0650(4)
H36A H 0.0799 0.9095 0.0747
H37A H -0.0111 0.9395 0.0512
H38A H 0.0722 0.9557 0.0869
N9A N 0.3854(8) 0.81214(17) 0.0038(2)
C29A C 0.4242(8) 0.8520(2) 0.00833(18)
C30A C 0.3129(10) 0.8365(3) 0.06164(19)
C31A C 0.4959(7) 0.8737(3) -0.0262(2)
H39A H 0.5570 0.8549 -0.0384
H40A H 0.5450 0.8968 -0.0158
C32A C 0.2185(9) 0.8359(4) 0.0986(2)
H41A H 0.1854 0.8631 0.1039
H42A H 0.1452 0.8179 0.0936
C33A C 0.6423(8) 0.9063(4) 0.0867(3)
H43A H 0.6648 0.8899 0.0637
H44A H 0.7021 0.9293 0.0881
C34A C 0.3972(11) 0.8892(4) -0.0581(3)
H45A H 0.3504 0.8663 -0.0689
H46A H 0.4436 0.9028 -0.0790
H47A H 0.3370 0.9079 -0.0461
N10A N 0.3228(11) 0.80208(18) 0.0372(3)
C35A C 0.2982(16) 0.8201(6) 0.1350(2)
H48A H 0.3120 0.7911 0.1325
H49A H 0.2507 0.8255 0.1590
H50A H 0.3808 0.8338 0.1360
Cu1C Cu -0.57097(12) 0.42167(3) 0.34325(4)
Cu2D Cu 0.42473(14) 0.76963(3) -0.02822(5)
Cu2E Cu 0.07527(14) 0.73037(3) -0.02822(5)
Cu3_2 Cu -0.2500 1.2500 0.09743(6)
Cu5C Cu -0.44318(16) 0.50611(4) 0.36832(5)
N3A_2 N 0.8967(7) 0.21949(16) 0.0926(2)
N4A N 0.6235(8) 1.0231(2) 0.1732(2)
N6A N 0.5602(7) 1.0573(2) 0.1865(2)
N9D N -0.1146(8) 1.31214(17) -0.0038(2)
N9E N 0.6146(8) 0.18786(17) -0.0038(2)
loop_
_geom_bond_atom_site_label_1
_geom_bond_atom_site_label_2
_geom_bond_site_symmetry_1
_geom_bond_site_symmetry_2
Cu1 N1 1_555 1_555
Cu2 N7 1_555 1_555
Cu3 N3 1_555 1_555
Cu4 N2 1_555 1_555
Cu5 N4 1_555 1_555
C1 C2 1_555 1_555
C2 C3 1_555 1_555
N1 N2 1_555 1_555
N2 C6 1_555 1_555
N3 N7 1_555 1_555
N4 C7 1_555 1_555
N5 Cu4 1_555 1_555
C3 N1 1_555 1_555
C4 C1 1_555 1_555
C5 C7 1_555 1_555
C6 C2 1_555 1_555
C7 C20 1_555 1_555
N6 Cu1 1_555 1_555
N7 C4 1_555 1_555
N8 Cu5 1_555 1_555
C8 C5 1_555 1_555
C9 C1 1_555 1_555
C10 H1 1_555 1_555
H2 C10 1_555 1_555
H3 C10 1_555 1_555
C11 C9 1_555 1_555
H4 C11 1_555 1_555
H5 C11 1_555 1_555
C12 C3 1_555 1_555
H6 C12 1_555 1_555
H7 C12 1_555 1_555
C13 N5 1_555 1_555
C14 C16 1_555 1_555
C15 N8 1_555 1_555
C16 C13 1_555 1_555
C17 C6 1_555 1_555
H8 C17 1_555 1_555
H9 C17 1_555 1_555
C18 H10 1_555 1_555
H11 C18 1_555 1_555
H12 C18 1_555 1_555
C19 C13 1_555 1_555
H13 C19 1_555 1_555
H14 C19 1_555 1_555
C20 H15 1_555 1_555
H16 C20 1_555 1_555
C21 C4 1_555 1_555
H17 C21 1_555 1_555
H18 C21 1_555 1_555
C22 C8 1_555 1_555
H19 C22 1_555 1_555
H20 C22 1_555 1_555
C23 C21 1_555 1_555
H21 C23 1_555 1_555
H22 C23 1_555 1_555
H23 C23 1_555 1_555
C24 C17 1_555 1_555
H24 C24 1_555 1_555
H25 C24 1_555 1_555
H26 C24 1_555 1_555
C25 C11 1_555 1_555
H27 C25 1_555 1_555
H28 C25 1_555 1_555
H29 C25 1_555 1_555
C26 C20 1_555 1_555
H30 C26 1_555 1_555
H31 C26 1_555 1_555
H32 C26 1_555 1_555
C27 C22 1_555 1_555
H33 C27 1_555 1_555
H34 C27 1_555 1_555
H35 C27 1_555 1_555
C28 C19 1_555 1_555
H36 C28 1_555 1_555
H37 C28 1_555 1_555
H38 C28 1_555 1_555
N9 C29 1_555 1_555
C29 C14 1_555 1_555
C30 C14 1_555 1_555
C31 C29 1_555 1_555
H39 C31 1_555 1_555
H40 C31 1_555 1_555
C32 C30 1_555 1_555
H41 C32 1_555 1_555
H42 C32 1_555 1_555
C33 C15 1_555 1_555
H43 C33 1_555 1_555
H44 C33 1_555 1_555
C34 C31 1_555 1_555
H45 C34 1_555 1_555
H46 C34 1_555 1_555
H47 C34 1_555 1_555
N10 N9 1_555 1_555
C35 C32 1_555 1_555
H48 C35 1_555 1_555
H49 C35 1_555 1_555
H50 C35 1_555 1_555
Cu6 N10 1_555 1_555
N4C C7C 1_555 1_555
C5C C5 1_555 1_555
C7C C5C 1_555 1_555
N6C N4C 1_555 1_555
C8C C5C 1_555 1_555
C20C C7C 1_555 1_555
H15C C20C 1_555 1_555
H16C C20C 1_555 1_555
C22C C8C 1_555 1_555
H19C C22C 1_555 1_555
H20C C22C 1_555 1_555
C26C C20C 1_555 1_555
H30C C26C 1_555 1_555
H31C C26C 1_555 1_555
H32C C26C 1_555 1_555
C27C C22C 1_555 1_555
H33C C27C 1_555 1_555
H34C C27C 1_555 1_555
H35C C27C 1_555 1_555
Cu1A N1A 1_555 1_555
Cu2A N7A 1_555 1_555
Cu4A N2A 1_555 1_555
Cu5A N8A 1_555 1_555
C1A C2A 1_555 1_555
C2A C3A 1_555 1_555
N1A N2A 1_555 1_555
N2A C6A 1_555 1_555
N3A N7A 1_555 1_555
N5A Cu4A 1_555 1_555
C3A N1A 1_555 1_555
C4A C1A 1_555 1_555
C6A C2A 1_555 1_555
N7A C4A 1_555 1_555
N8A N5A 1_555 1_555
C9A C1A 1_555 1_555
C10A H1A 1_555 1_555
H2A C10A 1_555 1_555
H3A C10A 1_555 1_555
C11A C9A 1_555 1_555
H4A C11A 1_555 1_555
H5A C11A 1_555 1_555
C12A C3A 1_555 1_555
H6A C12A 1_555 1_555
H7A C12A 1_555 1_555
C13A N5A 1_555 1_555
C14A C16A 1_555 1_555
C15A N8A 1_555 1_555
C16A C13A 1_555 1_555
C17A C6A 1_555 1_555
H8A C17A 1_555 1_555
H9A C17A 1_555 1_555
C18A H10A 1_555 1_555
H11A C18A 1_555 1_555
H12A C18A 1_555 1_555
C19A C13A 1_555 1_555
H13A C19A 1_555 1_555
H14A C19A 1_555 1_555
C21A C4A 1_555 1_555
H17A C21A 1_555 1_555
H18A C21A 1_555 1_555
C23A C21A 1_555 1_555
H21A C23A 1_555 1_555
H22A C23A 1_555 1_555
H23A C23A 1_555 1_555
C24A C17A 1_555 1_555
H24A C24A 1_555 1_555
H25A C24A 1_555 1_555
H26A C24A 1_555 1_555
C25A C11A 1_555 1_555
H27A C25A 1_555 1_555
H28A C25A 1_555 1_555
H29A C25A 1_555 1_555
C28A C19A 1_555 1_555
H36A C28A 1_555 1_555
H37A C28A 1_555 1_555
H38A C28A 1_555 1_555
N9A C29A 1_555 1_555
C29A C14A 1_555 1_555
C30A C14A 1_555 1_555
C31A C29A 1_555 1_555
H39A C31A 1_555 1_555
H40A C31A 1_555 1_555
C32A C30A 1_555 1_555
H41A C32A 1_555 1_555
H42A C32A 1_555 1_555
C33A C15A 1_555 1_555
H43A C33A 1_555 1_555
H44A C33A 1_555 1_555
C34A C31A 1_555 1_555
H45A C34A 1_555 1_555
H46A C34A 1_555 1_555
H47A C34A 1_555 1_555
N10A Cu6 1_555 1_555
C35A C32A 1_555 1_555
H48A C35A 1_555 1_555
H49A C35A 1_555 1_555
H50A C35A 1_555 1_555
Cu1C N6C 1_555 1_555
Cu2D N9A 1_555 1_555
Cu2E N9 1_555 1_555
Cu3_2 N3A 1_555 1_555
Cu5C N4C 1_555 1_555
N3A_2 Cu3 1_555 1_555
N4A Cu5A 1_555 1_555
N6A Cu1A 1_555 1_555
N9D Cu2A 1_555 1_555
N9E Cu2 1_555 1_555
N3 C9 1_555 1_555
N4 N6 1_555 1_555
N5 N8 1_555 1_555
N6 C8 1_555 1_555
C10 C12 1_555 1_555
C15 C16 1_555 1_555
C18 C33 1_555 1_555
C30 N10 1_555 1_555
N6C C8C 1_555 1_555
N3A C9A 1_555 1_555
C10A C12A 1_555 1_555
C15A C16A 1_555 1_555
C18A C33A 1_555 1_555
N9A N10A 1_555 1_555
C30A N10A 1_555 1_555
N4A N6A 1_555 1_555

#END
