
#######################################################################
#
#                 Cambridge Crystallographic Data Centre
#                                CCDC 
#
#######################################################################
#
# If this CIF has been generated from an entry in the Cambridge 
# Structural Database, then it will include bibliographic, chemical, 
# crystal, experimental, refinement or atomic coordinate data resulting 
# from the CCDC's data processing and validation procedures.
#
#######################################################################

data_WORNEY
_symmetry_cell_setting           tetragonal
_symmetry_space_group_name_H-M   'P 4/n c c'
_symmetry_Int_Tables_number      130
_space_group_name_Hall           '-P 4a 2ac'
loop_
_symmetry_equiv_pos_site_id
_symmetry_equiv_pos_as_xyz
1 x,y,z
2 1/2-y,x,z
3 1/2+x,-y,1/2-z
4 1/2-x,1/2-y,z
5 -y,-x,1/2-z
6 1/2+y,1/2+x,1/2-z
7 y,1/2-x,z
8 -x,1/2+y,1/2-z
9 -x,-y,-z
10 1/2+y,-x,-z
11 1/2-x,y,1/2+z
12 1/2+x,1/2+y,-z
13 y,x,1/2+z
14 1/2-y,1/2-x,1/2+z
15 -y,1/2+x,-z
16 x,1/2-y,1/2+z
_cell_length_a                   20.5004(7)
_cell_length_b                   20.5004(7)
_cell_length_c                   13.9201(6)
_cell_angle_alpha                90
_cell_angle_beta                 90
_cell_angle_gamma                90
_cell_volume                     5850.15
loop_
_atom_site_label
_atom_site_type_symbol
_atom_site_fract_x
_atom_site_fract_y
_atom_site_fract_z
Ni1 Ni 0.382486(17) 0.536016(17) 0.34268(2)
O1 O 0.51639(10) 0.46488(9) 0.65165(13)
O2 O 0.47685(10) 0.37537(9) 0.72505(13)
O3 O 0.19501(11) 0.60321(14) 0.60637(15)
O4 O 0.09636(10) 0.60685(10) 0.53823(14)
O5 O 0.38316(9) 0.61684(9) 0.2500
H1 H 0.3524 0.6165 0.2066
N1 N 0.38726(11) 0.45434(11) 0.43215(16)
N2 N 0.28002(12) 0.54061(12) 0.35404(16)
F1 F 0.34591(12) 0.28514(9) 0.44093(18)
F2 F 0.13870(10) 0.51007(15) 0.21133(15)
C1 C 0.47890(13) 0.41719(14) 0.65825(18)
C2 C 0.43315(13) 0.40725(14) 0.57457(19)
C3 C 0.42250(13) 0.45878(14) 0.51288(19)
H2 H 0.4408 0.4989 0.5282
C4 C 0.36210(16) 0.39586(15) 0.4095(2)
H3 H 0.3379 0.3912 0.3534
C5 C 0.37162(17) 0.34324(15) 0.4678(2)
C6 C 0.40619(16) 0.34736(15) 0.5520(2)
H4 H 0.4113 0.3114 0.5920
C7 C 0.15676(14) 0.59596(14) 0.5376(2)
C8 C 0.18478(14) 0.56946(14) 0.4447(2)
C9 C 0.25174(15) 0.56279(14) 0.4345(2)
H5 H 0.2783 0.5742 0.4860
C10 C 0.24160(15) 0.52350(16) 0.2808(2)
H6 H 0.2602 0.5079 0.2244
C11 C 0.17500(15) 0.52866(18) 0.2876(2)
C12 C 0.14487(15) 0.55162(17) 0.3692(2)
H7 H 0.0997 0.5550 0.3733
H1D H 0.3835 0.6476 0.2934
Ni1D Ni 0.463984(17) 0.617514(17) 0.15732(2)
O1D O 0.53512(9) 0.48361(10) -0.15165(13)
O2D O 0.62463(9) 0.52315(10) -0.22505(13)
O3D O 0.39679(14) 0.80499(11) -0.10637(15)
O4D O 0.39315(10) 0.90364(10) -0.03823(14)
N1D N 0.54566(11) 0.61274(11) 0.06785(16)
N2D N 0.45939(12) 0.71998(12) 0.14596(16)
F1D F 0.71486(9) 0.65409(12) 0.05907(18)
F2D F 0.48993(15) 0.86130(10) 0.28867(15)
C1D C 0.58281(14) 0.52110(13) -0.15825(18)
C2D C 0.59275(14) 0.56685(13) -0.07457(19)
C3D C 0.54122(14) 0.57750(13) -0.01288(19)
H2D H 0.5011 0.5592 -0.0282
C4D C 0.60414(15) 0.63790(16) 0.0905(2)
H3D H 0.6088 0.6621 0.1466
C5D C 0.65676(15) 0.62838(17) 0.0322(2)
C6D C 0.65264(15) 0.59381(16) -0.0520(2)
H4D H 0.6886 0.5887 -0.0920
C7D C 0.40404(14) 0.84324(14) -0.0376(2)
C8D C 0.43054(14) 0.81522(14) 0.0553(2)
C9D C 0.43721(14) 0.74826(15) 0.0655(2)
H5D H 0.4258 0.7217 0.0140
C10D C 0.47650(16) 0.75840(15) 0.2192(2)
H6D H 0.4921 0.7398 0.2756
C11D C 0.47134(18) 0.82500(15) 0.2124(2)
C12D C 0.44838(17) 0.85513(15) 0.1308(2)
H7D H 0.4450 0.9003 0.1267
Ni1H Ni 0.617514(17) 0.463984(17) -0.34268(2)
Ni1H_2 Ni 0.617514(17) 0.463984(17) 0.65732(2)
Ni1I Ni 0.036016(17) 0.617514(17) 0.65732(2)
Ni1L Ni 0.536016(17) 0.382486(17) -0.15732(2)
Ni1L_2 Ni 0.536016(17) 0.382486(17) 0.84268(2)
Ni1O Ni 0.382486(17) 0.963984(17) -0.15732(2)
O1H O 0.48361(10) 0.53512(9) 0.34835(13)
O1L O 0.46488(9) 0.51639(10) 0.15165(13)
O2H O 0.52315(10) 0.62463(9) 0.27495(13)
O2L O 0.37537(9) 0.47685(10) 0.22505(13)
O4J O 0.40364(10) 0.60685(10) 0.03823(14)
O4N O 0.39315(10) 0.59636(10) 0.46177(14)
loop_
_geom_bond_atom_site_label_1
_geom_bond_atom_site_label_2
_geom_bond_site_symmetry_1
_geom_bond_site_symmetry_2
Ni1 O5 1_555 1_555
O1 C1 1_555 1_555
O2 C1 1_555 1_555
O3 C7 1_555 1_555
O4 C7 1_555 1_555
O5 H1 1_555 1_555
N1 Ni1 1_555 1_555
N2 Ni1 1_555 1_555
F1 C5 1_555 1_555
F2 C11 1_555 1_555
C1 C2 1_555 1_555
C2 C3 1_555 1_555
C3 N1 1_555 1_555
H2 C3 1_555 1_555
C4 N1 1_555 1_555
H3 C4 1_555 1_555
C5 C4 1_555 1_555
C6 C2 1_555 1_555
H4 C6 1_555 1_555
C7 C8 1_555 1_555
C8 C9 1_555 1_555
C9 N2 1_555 1_555
H5 C9 1_555 1_555
C10 N2 1_555 1_555
H6 C10 1_555 1_555
C11 C10 1_555 1_555
C12 C8 1_555 1_555
H7 C12 1_555 1_555
H1D O5 1_555 1_555
Ni1D O5 1_555 1_555
O1D C1D 1_555 1_555
O2D C1D 1_555 1_555
O3D C7D 1_555 1_555
O4D C7D 1_555 1_555
N1D Ni1D 1_555 1_555
N2D Ni1D 1_555 1_555
F1D C5D 1_555 1_555
F2D C11D 1_555 1_555
C1D C2D 1_555 1_555
C2D C3D 1_555 1_555
C3D N1D 1_555 1_555
H2D C3D 1_555 1_555
C4D N1D 1_555 1_555
H3D C4D 1_555 1_555
C5D C4D 1_555 1_555
C6D C2D 1_555 1_555
H4D C6D 1_555 1_555
C7D C8D 1_555 1_555
C8D C9D 1_555 1_555
C9D N2D 1_555 1_555
H5D C9D 1_555 1_555
C10D N2D 1_555 1_555
H6D C10D 1_555 1_555
C11D C10D 1_555 1_555
C12D C8D 1_555 1_555
H7D C12D 1_555 1_555
Ni1H O2D 1_555 1_555
Ni1H_2 O1 1_555 1_555
Ni1I O4 1_555 1_555
Ni1L O1D 1_555 1_555
Ni1L_2 O2 1_555 1_555
Ni1O O4D 1_555 1_555
O1H Ni1 1_555 1_555
O1L Ni1D 1_555 1_555
O2H Ni1D 1_555 1_555
O2L Ni1 1_555 1_555
O4J Ni1D 1_555 1_555
O4N Ni1 1_555 1_555
C5 C6 1_555 1_555
C11 C12 1_555 1_555
C5D C6D 1_555 1_555
C11D C12D 1_555 1_555

#END
