
#######################################################################
#
#                 Cambridge Crystallographic Data Centre
#                                CCDC 
#
#######################################################################
#
# If this CIF has been generated from an entry in the Cambridge 
# Structural Database, then it will include bibliographic, chemical, 
# crystal, experimental, refinement or atomic coordinate data resulting 
# from the CCDC's data processing and validation procedures.
#
#######################################################################

data_WORTAA
_symmetry_cell_setting           monoclinic
_symmetry_space_group_name_H-M   'C 2/c'
_symmetry_Int_Tables_number      15
_space_group_name_Hall           '-C 2yn'
loop_
_symmetry_equiv_pos_site_id
_symmetry_equiv_pos_as_xyz
1 x,y,z
2 -x,y,1/2-z
3 1/2+x,1/2+y,z
4 1/2-x,1/2+y,1/2-z
5 -x,-y,-z
6 x,-y,1/2+z
7 1/2-x,1/2-y,-z
8 1/2+x,1/2-y,1/2+z
_cell_length_a                   21.466(4)
_cell_length_b                   21.361(4)
_cell_length_c                   16.675(3)
_cell_angle_alpha                90
_cell_angle_beta                 97.83(3)
_cell_angle_gamma                90
_cell_volume                     7574.79
loop_
_atom_site_label
_atom_site_type_symbol
_atom_site_fract_x
_atom_site_fract_y
_atom_site_fract_z
Cd1 Cd -0.008837(19) -0.124843(19) 0.65815(2)
F1 F 0.2737(4) 0.1277(3) 0.9272(4)
F2 F 0.1955(4) 0.1948(3) 0.8733(5)
O1 O 0.0768(2) -0.0470(2) 0.8482(3)
O2 O 0.0671(2) -0.0567(2) 0.7131(3)
O3 O 0.4353(3) 0.3031(3) 0.8245(3)
O4 O 0.4186(3) 0.3094(3) 0.6907(3)
N1 N -0.0170(3) -0.1344(2) 0.5221(4)
N2 N 0.2849(3) 0.1792(3) 0.8026(4)
N3 N 0.2062(3) 0.0943(3) 0.8096(3)
C1 C -0.0304(5) -0.1513(7) 0.2637(5)
H1 H -0.0521 -0.1899 0.2467
H2 H -0.0551 -0.1168 0.2386
C2 C -0.0259(5) -0.1455(6) 0.3546(5)
C3 C -0.0106(6) -0.1951(5) 0.4044(5)
H3 H -0.0027 -0.2340 0.3827
C4 C -0.0067(5) -0.1877(4) 0.4880(4)
H4 H 0.0037 -0.2223 0.5210
C5 C -0.0307(4) -0.0861(4) 0.4735(5)
H5 H -0.0371 -0.0473 0.4962
C6 C -0.0357(5) -0.0907(5) 0.3913(5)
H6 H -0.0461 -0.0553 0.3599
C7 C 0.0913(3) -0.0339(3) 0.7779(4)
C8 C 0.1430(4) 0.0653(4) 0.9180(5)
H7 H 0.1646 0.0352 0.9545
H8 H 0.0985 0.0587 0.9144
H9 H 0.1531 0.1068 0.9376
C9 C 0.1633(3) 0.0574(3) 0.8343(4)
C10 C 0.1419(3) 0.0133(3) 0.7743(4)
C11 C 0.1739(4) 0.0243(3) 0.7105(4)
C12 C 0.1699(4) -0.0124(4) 0.6298(5)
H10 H 0.1415 -0.0470 0.6309
H11 H 0.2109 -0.0278 0.6230
H12 H 0.1549 0.0148 0.5856
C13 C 0.2141(3) 0.0765(4) 0.7317(4)
C14 C 0.2528(4) 0.1115(4) 0.6862(6)
C15 C 0.2552(5) 0.0950(6) 0.5998(6)
C16 C 0.3013(6) 0.0535(7) 0.5820(7)
H13 H 0.3302 0.0363 0.6227
C17 C 0.3026(7) 0.0383(7) 0.4983(8)
H14 H 0.3330 0.0113 0.4835
C18 C 0.2584(8) 0.0640(8) 0.4403(8)
H15 H 0.2587 0.0520 0.3868
C19 C 0.2109(8) 0.1091(8) 0.4580(8)
H16 H 0.1829 0.1278 0.4176
C20 C 0.2106(7) 0.1218(6) 0.5391(7)
H17 H 0.1803 0.1488 0.5544
C21 C 0.2888(4) 0.1617(4) 0.7219(4)
C22 C 0.3316(4) 0.2021(4) 0.6930(5)
C23 C 0.3508(6) 0.2023(6) 0.6061(6)
H18 H 0.3776 0.2376 0.6002
H19 H 0.3137 0.2052 0.5669
H20 H 0.3729 0.1643 0.5975
C24 C 0.3550(4) 0.2401(4) 0.7562(5)
C25 C 0.3242(4) 0.2258(4) 0.8218(5)
C26 C 0.3338(6) 0.2562(6) 0.9042(6)
H21 H 0.2948 0.2737 0.9156
H22 H 0.3646 0.2889 0.9050
H23 H 0.3481 0.2255 0.9445
C27 C 0.4078(4) 0.2881(4) 0.7572(5)
B1 B 0.2399(6) 0.1496(7) 0.8570(6)
N1A N 0.0170(3) -0.1344(2) -0.0221(4)
C1A C 0.0304(5) -0.1513(7) 0.2363(5)
H1A H 0.0521 -0.1899 0.2533
H2A H 0.0551 -0.1168 0.2614
C2A C 0.0259(5) -0.1455(6) 0.1454(5)
C3A C 0.0106(6) -0.1951(5) 0.0956(5)
H3A H 0.0027 -0.2340 0.1173
C4A C 0.0067(5) -0.1877(4) 0.0120(4)
H4A H -0.0037 -0.2223 -0.0210
C5A C 0.0307(4) -0.0861(4) 0.0265(5)
H5A H 0.0371 -0.0473 0.0038
C6A C 0.0357(5) -0.0907(5) 0.1087(5)
H6A H 0.0461 -0.0553 0.1401
Cd1A Cd 0.008837(19) -0.124843(19) -0.15815(2)
F1A F -0.2737(4) 0.1277(3) -0.4272(4)
F2A F -0.1955(4) 0.1948(3) -0.3733(5)
O1A O -0.0768(2) -0.0470(2) -0.3482(3)
O2A O -0.0671(2) -0.0567(2) -0.2131(3)
O3A O -0.4353(3) 0.3031(3) -0.3245(3)
O4A O -0.4186(3) 0.3094(3) -0.1907(3)
N2A N -0.2849(3) 0.1792(3) -0.3026(4)
N3A N -0.2062(3) 0.0943(3) -0.3096(3)
C7A C -0.0913(3) -0.0339(3) -0.2779(4)
C8A C -0.1430(4) 0.0653(4) -0.4180(5)
H7A H -0.1646 0.0352 -0.4545
H8A H -0.0985 0.0587 -0.4144
H9A H -0.1531 0.1068 -0.4376
C9A C -0.1633(3) 0.0574(3) -0.3343(4)
C10A C -0.1419(3) 0.0133(3) -0.2743(4)
C11A C -0.1739(4) 0.0243(3) -0.2105(4)
C12A C -0.1699(4) -0.0124(4) -0.1298(5)
H10A H -0.1415 -0.0470 -0.1309
H11A H -0.2109 -0.0278 -0.1230
H12A H -0.1549 0.0148 -0.0856
C13A C -0.2141(3) 0.0765(4) -0.2317(4)
C14A C -0.2528(4) 0.1115(4) -0.1862(6)
C15A C -0.2552(5) 0.0950(6) -0.0998(6)
C16A C -0.3013(6) 0.0535(7) -0.0820(7)
H13A H -0.3302 0.0363 -0.1227
C17A C -0.3026(7) 0.0383(7) 0.0017(8)
H14A H -0.3330 0.0113 0.0165
C18A C -0.2584(8) 0.0640(8) 0.0597(8)
H15A H -0.2587 0.0520 0.1132
C19A C -0.2109(8) 0.1091(8) 0.0420(8)
H16A H -0.1829 0.1278 0.0824
C20A C -0.2106(7) 0.1218(6) -0.0391(7)
H17A H -0.1803 0.1488 -0.0544
C21A C -0.2888(4) 0.1617(4) -0.2219(4)
C22A C -0.3316(4) 0.2021(4) -0.1930(5)
C23A C -0.3508(6) 0.2023(6) -0.1061(6)
H18A H -0.3776 0.2376 -0.1002
H19A H -0.3137 0.2052 -0.0669
H20A H -0.3729 0.1643 -0.0975
C24A C -0.3550(4) 0.2401(4) -0.2562(5)
C25A C -0.3242(4) 0.2258(4) -0.3218(5)
C26A C -0.3338(6) 0.2562(6) -0.4042(6)
H21A H -0.2948 0.2737 -0.4156
H22A H -0.3646 0.2889 -0.4050
H23A H -0.3481 0.2255 -0.4445
C27A C -0.4078(4) 0.2881(4) -0.2572(5)
B1A B -0.2399(6) 0.1496(7) -0.3570(6)
Cd1_2 Cd -0.008837(19) -0.124843(19) -0.34185(2)
Cd1A_2 Cd 0.008837(19) -0.124843(19) 0.84185(2)
Cd1B Cd -0.508837(19) 0.375157(19) -0.34185(2)
Cd1B_2 Cd 0.491163(19) 0.375157(19) 0.65815(2)
Cd1C Cd -0.491163(19) 0.375157(19) -0.15815(2)
Cd1C_2 Cd 0.508837(19) 0.375157(19) 0.84185(2)
O1_2 O 0.0768(2) -0.0470(2) -0.1518(3)
O1A_2 O -0.0768(2) -0.0470(2) 0.6518(3)
O3B O -0.0647(3) -0.1969(3) -0.1755(3)
O3C O 0.0647(3) -0.1969(3) 0.6755(3)
O4B O -0.0814(3) -0.1906(3) 0.6907(3)
O4C O 0.0814(3) -0.1906(3) -0.1907(3)
loop_
_geom_bond_atom_site_label_1
_geom_bond_atom_site_label_2
_geom_bond_site_symmetry_1
_geom_bond_site_symmetry_2
Cd1 O2 1_555 1_555
F1 B1 1_555 1_555
F2 B1 1_555 1_555
O1 C7 1_555 1_555
O2 C7 1_555 1_555
O3 C27 1_555 1_555
O4 C27 1_555 1_555
N1 Cd1 1_555 1_555
N2 C21 1_555 1_555
N3 C9 1_555 1_555
C1 H1 1_555 1_555
H2 C1 1_555 1_555
C2 C1 1_555 1_555
C3 C2 1_555 1_555
H3 C3 1_555 1_555
C4 N1 1_555 1_555
H4 C4 1_555 1_555
C5 N1 1_555 1_555
H5 C5 1_555 1_555
C6 C2 1_555 1_555
H6 C6 1_555 1_555
C7 C10 1_555 1_555
C8 H7 1_555 1_555
H8 C8 1_555 1_555
H9 C8 1_555 1_555
C9 C8 1_555 1_555
C10 C9 1_555 1_555
C11 C10 1_555 1_555
C12 C11 1_555 1_555
H10 C12 1_555 1_555
H11 C12 1_555 1_555
H12 C12 1_555 1_555
C13 N3 1_555 1_555
C14 C13 1_555 1_555
C15 C14 1_555 1_555
C16 C15 1_555 1_555
H13 C16 1_555 1_555
C17 C16 1_555 1_555
H14 C17 1_555 1_555
C18 C17 1_555 1_555
H15 C18 1_555 1_555
C19 C18 1_555 1_555
H16 C19 1_555 1_555
C20 C15 1_555 1_555
H17 C20 1_555 1_555
C21 C14 1_555 1_555
C22 C21 1_555 1_555
C23 C22 1_555 1_555
H18 C23 1_555 1_555
H19 C23 1_555 1_555
H20 C23 1_555 1_555
C24 C22 1_555 1_555
C25 N2 1_555 1_555
C26 C25 1_555 1_555
H21 C26 1_555 1_555
H22 C26 1_555 1_555
H23 C26 1_555 1_555
C27 C24 1_555 1_555
B1 N2 1_555 1_555
N1A C4A 1_555 1_555
C1A C1 1_555 1_555
H1A C1A 1_555 1_555
H2A C1A 1_555 1_555
C2A C1A 1_555 1_555
C3A C2A 1_555 1_555
H3A C3A 1_555 1_555
C4A C3A 1_555 1_555
H4A C4A 1_555 1_555
C5A N1A 1_555 1_555
H5A C5A 1_555 1_555
C6A C2A 1_555 1_555
H6A C6A 1_555 1_555
Cd1A N1A 1_555 1_555
F1A B1A 1_555 1_555
F2A B1A 1_555 1_555
O1A C7A 1_555 1_555
O2A Cd1A 1_555 1_555
O3A C27A 1_555 1_555
O4A C27A 1_555 1_555
N2A C21A 1_555 1_555
N3A C9A 1_555 1_555
C7A O2A 1_555 1_555
C8A H7A 1_555 1_555
H8A C8A 1_555 1_555
H9A C8A 1_555 1_555
C9A C8A 1_555 1_555
C10A C7A 1_555 1_555
C11A C10A 1_555 1_555
C12A C11A 1_555 1_555
H10A C12A 1_555 1_555
H11A C12A 1_555 1_555
H12A C12A 1_555 1_555
C13A N3A 1_555 1_555
C14A C13A 1_555 1_555
C15A C14A 1_555 1_555
C16A C15A 1_555 1_555
H13A C16A 1_555 1_555
C17A C16A 1_555 1_555
H14A C17A 1_555 1_555
C18A C17A 1_555 1_555
H15A C18A 1_555 1_555
C19A C18A 1_555 1_555
H16A C19A 1_555 1_555
C20A C15A 1_555 1_555
H17A C20A 1_555 1_555
C21A C14A 1_555 1_555
C22A C21A 1_555 1_555
C23A C22A 1_555 1_555
H18A C23A 1_555 1_555
H19A C23A 1_555 1_555
H20A C23A 1_555 1_555
C24A C22A 1_555 1_555
C25A N2A 1_555 1_555
C26A C25A 1_555 1_555
H21A C26A 1_555 1_555
H22A C26A 1_555 1_555
H23A C26A 1_555 1_555
C27A C24A 1_555 1_555
B1A N2A 1_555 1_555
Cd1_2 O1A 1_555 1_555
Cd1A_2 O1 1_555 1_555
Cd1B O3A 1_555 1_555
Cd1B_2 O4 1_555 1_555
Cd1C O4A 1_555 1_555
Cd1C_2 O3 1_555 1_555
O1_2 Cd1A 1_555 1_555
O1A_2 Cd1 1_555 1_555
O3B Cd1A 1_555 1_555
O3C Cd1 1_555 1_555
O4B Cd1 1_555 1_555
O4C Cd1A 1_555 1_555
N3 B1 1_555 1_555
C3 C4 1_555 1_555
C5 C6 1_555 1_555
C11 C13 1_555 1_555
C19 C20 1_555 1_555
C24 C25 1_555 1_555
C5A C6A 1_555 1_555
N3A B1A 1_555 1_555
C9A C10A 1_555 1_555
C11A C13A 1_555 1_555
C19A C20A 1_555 1_555
C24A C25A 1_555 1_555

#END
