
#######################################################################
#
#                 Cambridge Crystallographic Data Centre
#                                CCDC 
#
#######################################################################
#
# If this CIF has been generated from an entry in the Cambridge 
# Structural Database, then it will include bibliographic, chemical, 
# crystal, experimental, refinement or atomic coordinate data resulting 
# from the CCDC's data processing and validation procedures.
#
#######################################################################

data_WOWMEC
_symmetry_cell_setting           monoclinic
_symmetry_space_group_name_H-M   'C 2/c'
_symmetry_Int_Tables_number      15
_space_group_name_Hall           '-C 2yn'
loop_
_symmetry_equiv_pos_site_id
_symmetry_equiv_pos_as_xyz
1 x,y,z
2 -x,y,1/2-z
3 1/2+x,1/2+y,z
4 1/2-x,1/2+y,1/2-z
5 -x,-y,-z
6 x,-y,1/2+z
7 1/2-x,1/2-y,-z
8 1/2+x,1/2-y,1/2+z
_cell_length_a                   17.826(4)
_cell_length_b                   13.247(3)
_cell_length_c                   11.046(3)
_cell_angle_alpha                90
_cell_angle_beta                 125.771(3)
_cell_angle_gamma                90
_cell_volume                     2116.36
loop_
_atom_site_label
_atom_site_type_symbol
_atom_site_fract_x
_atom_site_fract_y
_atom_site_fract_z
Ni1 Ni 0.429270(12) 0.226238(14) 0.05148(2)
O1 O 0.47194(8) -0.11885(9) -0.14596(13)
O2 O 0.35585(7) -0.15817(9) -0.38260(12)
O3 O 0.14386(8) -0.06032(9) -0.61759(12)
O4 O 0.16580(8) -0.16067(8) -0.43630(12)
N1 N 0.35079(9) 0.13662(10) -0.14097(14)
C1 C 0.25837(11) 0.14400(12) -0.23291(18)
H1 H 0.2297 0.1967 -0.2191
C2 C 0.20409(11) 0.07620(12) -0.34751(18)
H2 H 0.1405 0.0858 -0.4123
C3 C 0.24489(10) -0.00645(11) -0.36558(16)
C4 C 0.18121(10) -0.08278(11) -0.48419(17)
C5 C 0.34056(10) -0.01687(11) -0.26731(16)
C6 C 0.39361(10) -0.10608(11) -0.26650(17)
C7 C 0.38992(10) 0.05810(12) -0.16043(17)
H3 H 0.4541 0.0533 -0.0988
O5 O 0.5000 0.31502(12) 0.2500
O6 O 0.50227(10) 0.29417(12) -0.02143(17)
H4 H 0.4573(13) 0.3527(16) 0.231(3)
H5 H 0.4658(18) 0.324(2) -0.104(2)
H6 H 0.536(2) 0.252(2) -0.026(4)
H4A H 0.5427(13) 0.3527(16) 0.269(3)
Ni1A Ni 0.570730(12) 0.226238(14) 0.44852(2)
O1A O 0.52806(8) -0.11885(9) 0.64596(13)
O2A O 0.64415(7) -0.15817(9) 0.88260(12)
O3A O 0.85614(8) -0.06032(9) 1.11759(12)
O4A O 0.83420(8) -0.16067(8) 0.93630(12)
N1A N 0.64921(9) 0.13662(10) 0.64097(14)
C1A C 0.74163(11) 0.14400(12) 0.73291(18)
H1A H 0.7703 0.1967 0.7191
C2A C 0.79591(11) 0.07620(12) 0.84751(18)
H2A H 0.8595 0.0858 0.9123
C3A C 0.75511(10) -0.00645(11) 0.86558(16)
C4A C 0.81879(10) -0.08278(11) 0.98419(17)
C5A C 0.65944(10) -0.01687(11) 0.76731(16)
C6A C 0.60639(10) -0.10608(11) 0.76650(17)
C7A C 0.61008(10) 0.05810(12) 0.66043(17)
H3A H 0.5459 0.0533 0.5988
O6A O 0.49773(10) 0.29417(12) 0.52143(17)
H5A H 0.5342(18) 0.324(2) 0.604(2)
H6A H 0.464(2) 0.252(2) 0.526(4)
Ni1B Ni 0.929270(12) -0.273762(14) 1.05148(2)
Ni1C Ni 0.070730(12) -0.273762(14) -0.55148(2)
Ni1D Ni 0.570730(12) -0.226238(14) -0.05148(2)
Ni1D_2 Ni 0.570730(12) -0.226238(14) 0.94852(2)
Ni1E Ni 0.429270(12) -0.226238(14) -0.44852(2)
Ni1E_2 Ni 0.429270(12) -0.226238(14) 0.55148(2)
O1D O 0.52806(8) 0.11885(9) 0.14596(13)
O1E O 0.47194(8) 0.11885(9) 0.35404(13)
O2D O 0.64415(7) 0.15817(9) 0.38260(12)
O2E O 0.35585(7) 0.15817(9) 0.11740(12)
O4B O 0.66580(8) 0.33933(8) 0.56370(12)
O4C O 0.33420(8) 0.33933(8) -0.06370(12)
O7 O 0.37477(17) 0.20069(17) -0.4410(3)
O8 O 0.1660(2) -0.13632(15) -0.1839(3)
H7 H 0.175(2) -0.139(3) -0.253(3)
H8 H 0.157(2) -0.0747(16) -0.173(4)
loop_
_geom_bond_atom_site_label_1
_geom_bond_atom_site_label_2
_geom_bond_site_symmetry_1
_geom_bond_site_symmetry_2
Ni1 N1 1_555 1_555
O1 C6 1_555 1_555
O2 C6 1_555 1_555
O3 C4 1_555 1_555
O4 C4 1_555 1_555
N1 C1 1_555 1_555
C1 H1 1_555 1_555
C2 C1 1_555 1_555
H2 C2 1_555 1_555
C3 C2 1_555 1_555
C4 C3 1_555 1_555
C5 C3 1_555 1_555
C6 C5 1_555 1_555
C7 N1 1_555 1_555
H3 C7 1_555 1_555
O5 Ni1 1_555 1_555
O6 Ni1 1_555 1_555
H4 O5 1_555 1_555
H5 O6 1_555 1_555
H6 O6 1_555 1_555
O8 H7 1_555 1_555
H8 O8 1_555 1_555
H4A O5 1_555 1_555
Ni1A O5 1_555 1_555
O1A C6A 1_555 1_555
O2A C6A 1_555 1_555
O3A C4A 1_555 1_555
O4A C4A 1_555 1_555
N1A Ni1A 1_555 1_555
C1A N1A 1_555 1_555
H1A C1A 1_555 1_555
C2A C1A 1_555 1_555
H2A C2A 1_555 1_555
C3A C2A 1_555 1_555
C4A C3A 1_555 1_555
C5A C3A 1_555 1_555
C6A C5A 1_555 1_555
C7A N1A 1_555 1_555
H3A C7A 1_555 1_555
O6A Ni1A 1_555 1_555
H5A O6A 1_555 1_555
H6A O6A 1_555 1_555
Ni1B O4A 1_555 1_555
Ni1C O4 1_555 1_555
Ni1D O1 1_555 1_555
Ni1D_2 O2A 1_555 1_555
Ni1E O2 1_555 1_555
Ni1E_2 O1A 1_555 1_555
O1D Ni1 1_555 1_555
O1E Ni1A 1_555 1_555
O2D Ni1A 1_555 1_555
O2E Ni1 1_555 1_555
O4B Ni1A 1_555 1_555
O4C Ni1 1_555 1_555
C5 C7 1_555 1_555
C5A C7A 1_555 1_555

#END
