
#######################################################################
#
#                 Cambridge Crystallographic Data Centre
#                                CCDC 
#
#######################################################################
#
# If this CIF has been generated from an entry in the Cambridge 
# Structural Database, then it will include bibliographic, chemical, 
# crystal, experimental, refinement or atomic coordinate data resulting 
# from the CCDC's data processing and validation procedures.
#
#######################################################################

data_WUDNAK
_symmetry_cell_setting           triclinic
_symmetry_space_group_name_H-M   'P -1'
_symmetry_Int_Tables_number      2
_space_group_name_Hall           '-P 1'
loop_
_symmetry_equiv_pos_site_id
_symmetry_equiv_pos_as_xyz
1 x,y,z
2 -x,-y,-z
_cell_length_a                   10.8500(10)
_cell_length_b                   11.534(2)
_cell_length_c                   13.6080(10)
_cell_angle_alpha                66.170(10)
_cell_angle_beta                 81.400(10)
_cell_angle_gamma                63.150(10)
_cell_volume                     1388.7
loop_
_atom_site_label
_atom_site_type_symbol
_atom_site_fract_x
_atom_site_fract_y
_atom_site_fract_z
Co1 Co -0.44208(6) -0.07515(5) 0.20822(3)
Co2 Co 0.0000 0.0000 0.0000
C1 C -0.1683(5) -0.3277(4) 0.2857(3)
H1 H -0.1599 -0.3107 0.2128
C2 C -0.0522(5) -0.4223(4) 0.3533(3)
H2 H 0.0317 -0.4661 0.3252
C3 C -0.0612(5) -0.4516(4) 0.4623(3)
C4 C -0.1901(5) -0.3856(5) 0.4972(3)
H3 H -0.2031 -0.4044 0.5702
C5 C -0.2994(6) -0.2923(5) 0.4249(3)
H4 H -0.3850 -0.2486 0.4510
C6 C 0.1013(6) -0.3222(5) 0.0536(4)
H5 H 0.1750 -0.3305 0.0873
C7 C 0.1040(6) -0.4420(5) 0.0530(4)
H6 H 0.1780 -0.5283 0.0867
C8 C -0.0019(5) -0.4362(4) 0.0030(3)
C9 C -0.1093(5) -0.3036(4) -0.0420(3)
H7 H -0.1850 -0.2924 -0.0754
C10 C -0.1051(5) -0.1883(4) -0.0379(3)
H8 H -0.1791 -0.1012 -0.0694
C11 C 0.0693(5) -0.0005(5) -0.2307(3)
H9 H 0.1442 -0.0838 -0.1935
C12 C 0.0590(5) 0.0426(5) -0.3402(3)
H10 H 0.1268 -0.0104 -0.3751
C13 C -0.0523(5) 0.1650(4) -0.3992(3)
C14 C -0.1473(5) 0.2378(4) -0.3411(3)
H11 H -0.2235 0.3212 -0.3762
C15 C -0.1292(5) 0.1869(4) -0.2309(3)
H12 H -0.1961 0.2371 -0.1937
C16 C 0.0220(8) 0.2403(8) -0.6919(4)
H13 H 0.0994 0.2193 -0.7332
C17 C 0.0436(7) 0.1862(6) -0.5815(4)
H14 H 0.1326 0.1298 -0.5505
C18 C -0.0691(6) 0.2173(5) -0.5183(3)
C19 C -0.1975(6) 0.2989(5) -0.5703(3)
H15 H -0.2771 0.3213 -0.5314
C20 C -0.2059(8) 0.3471(6) -0.6817(4)
H16 H -0.2934 0.4034 -0.7152
C21 C -0.4456(5) 0.1571(5) 0.2613(3)
C22 C -0.4578(5) 0.2520(4) 0.1417(3)
H17 H -0.5440 0.3362 0.1299
H18 H -0.3836 0.2809 0.1278
C23 C -0.4540(5) 0.1945(4) 0.0569(3)
C24 C -0.4971(5) 0.3143(4) -0.0541(3)
H19 H -0.5893 0.3847 -0.0514
H20 H -0.4346 0.3585 -0.0719
C25 C -0.4960(5) 0.2643(4) -0.1428(3)
C26 C -0.3075(5) 0.0784(4) 0.0564(3)
O1 O -0.6179(3) -0.0900(3) 0.2885(2)
H21 H -0.622(2) -0.079(4) 0.345(3)
H22 H -0.6121(18) -0.168(3) 0.301(2)
O2 O -0.4387(3) 0.0372(3) 0.29129(19)
O3 O -0.4445(5) 0.2103(3) 0.3240(2)
O4 O -0.5507(3) 0.1344(3) 0.08640(19)
H23 H -0.5624(7) 0.1237(6) 0.028(3)
O5 O -0.2186(3) 0.1162(3) 0.00179(19)
O6 O -0.2863(3) -0.0455(3) 0.1113(2)
O7 O -0.4643(4) 0.3223(3) -0.2350(2)
O8 O -0.5293(3) 0.1633(3) -0.11345(19)
N1 N -0.2902(4) -0.2603(3) 0.3191(2)
N2 N -0.0024(4) -0.1932(3) 0.0079(2)
N3 N -0.0220(4) 0.0703(3) -0.1746(2)
N4 N -0.1003(7) 0.3197(6) -0.7432(3)
C3A C 0.0612(5) -0.5484(4) 0.5377(3)
C2A C 0.0522(5) -0.5777(4) 0.6467(3)
C1A C 0.1683(5) -0.6723(4) 0.7143(3)
H1A H 0.1599 -0.6893 0.7872
N1A N 0.2902(4) -0.7397(3) 0.6809(2)
C5A C 0.2994(6) -0.7077(5) 0.5751(3)
C4A C 0.1901(5) -0.6144(5) 0.5028(3)
H3A H 0.2031 -0.5956 0.4298
H4A H 0.3850 -0.7514 0.5490
H2A H -0.0317 -0.5339 0.6748
C8A C 0.0019(5) -0.5638(4) -0.0030(3)
C7A C -0.1040(6) -0.5580(5) -0.0530(4)
C6A C -0.1013(6) -0.6778(5) -0.0536(4)
H5A H -0.1750 -0.6695 -0.0873
N2A N 0.0024(4) -0.8068(3) -0.0079(2)
C10A C 0.1051(5) -0.8117(4) 0.0379(3)
C9A C 0.1093(5) -0.6964(4) 0.0420(3)
H7A H 0.1850 -0.7076 0.0754
H8A H 0.1791 -0.8988 0.0694
H6A H -0.1780 -0.4717 -0.0867
C21A C 0.4456(5) -0.1571(5) -0.2613(3)
C22A C 0.4578(5) -0.2520(4) -0.1417(3)
H17A H 0.5440 -0.3362 -0.1299
H18A H 0.3836 -0.2809 -0.1278
C23A C 0.4540(5) -0.1945(4) -0.0569(3)
C24A C 0.4971(5) -0.3143(4) 0.0541(3)
H19A H 0.5893 -0.3847 0.0514
H20A H 0.4346 -0.3585 0.0719
C25A C 0.4960(5) -0.2643(4) 0.1428(3)
C26A C 0.3075(5) -0.0784(4) -0.0564(3)
O2A O 0.4387(3) -0.0372(3) -0.29129(19)
O3A O 0.4445(5) -0.2103(3) -0.3240(2)
O4A O 0.5507(3) -0.1344(3) -0.08640(19)
H23A H 0.5624(7) -0.1237(6) -0.028(3)
O5A O 0.2186(3) -0.1162(3) -0.00179(19)
O6A O 0.2863(3) 0.0455(3) -0.1113(2)
O7A O 0.4643(4) -0.3223(3) 0.2350(2)
O8A O 0.5293(3) -0.1633(3) 0.11345(19)
C11A C -0.0693(5) 0.0005(5) 0.2307(3)
H9A H -0.1442 0.0838 0.1935
C12A C -0.0590(5) -0.0426(5) 0.3402(3)
H10A H -0.1268 0.0104 0.3751
C13A C 0.0523(5) -0.1650(4) 0.3992(3)
C14A C 0.1473(5) -0.2378(4) 0.3411(3)
H11A H 0.2235 -0.3212 0.3762
C15A C 0.1292(5) -0.1869(4) 0.2309(3)
H12A H 0.1961 -0.2371 0.1937
C16A C -0.0220(8) -0.2403(8) 0.6919(4)
H13A H -0.0994 -0.2193 0.7332
C17A C -0.0436(7) -0.1862(6) 0.5815(4)
H14A H -0.1326 -0.1298 0.5505
C18A C 0.0691(6) -0.2173(5) 0.5183(3)
C19A C 0.1975(6) -0.2989(5) 0.5703(3)
H15A H 0.2771 -0.3213 0.5314
C20A C 0.2059(8) -0.3471(6) 0.6817(4)
H16A H 0.2934 -0.4034 0.7152
N3A N 0.0220(4) -0.0703(3) 0.1746(2)
N4A N 0.1003(7) -0.3197(6) 0.7432(3)
Co1A Co 0.44208(6) 0.07515(5) -0.20822(3)
O1A O 0.6179(3) 0.0900(3) -0.2885(2)
H21A H 0.622(2) 0.079(4) -0.345(3)
H22A H 0.6121(18) 0.168(3) -0.301(2)
O8A_2 O -0.4707(3) -0.1633(3) 0.11345(19)
N2A_2 N 0.0024(4) 0.1932(3) -0.0079(2)
Co1A_2 Co -0.55792(6) 0.07515(5) -0.20822(3)
Co1A_3 Co 0.44208(6) -0.92485(5) 0.79178(3)
Co2_2 Co 0.0000 -1.0000 0.0000
Co1_2 Co 0.55792(6) -0.07515(5) 0.20822(3)
O8_2 O 0.4707(3) 0.1633(3) -0.11345(19)
N1A_2 N 0.2902(4) 0.2603(3) -0.3191(2)
O9 O -0.3519(5) 0.5149(4) -0.2710(3)
H24 H -0.3793(16) 0.463(3) -0.2785(5)
H25 H -0.419(4) 0.589(4) -0.2765(5)
O10 O -0.6241(4) -0.0356(4) 0.4646(2)
H26 H -0.570(3) -0.0178(10) 0.4330(17)
H27 H -0.6000(14) -0.074(2) 0.521(3)
loop_
_geom_bond_atom_site_label_1
_geom_bond_atom_site_label_2
_geom_bond_site_symmetry_1
_geom_bond_site_symmetry_2
Co1 O1 1_555 1_555
Co2 O5 1_555 1_555
C1 H1 1_555 1_555
C2 C1 1_555 1_555
H2 C2 1_555 1_555
C3 C2 1_555 1_555
C4 C3 1_555 1_555
H3 C4 1_555 1_555
C5 C4 1_555 1_555
H4 C5 1_555 1_555
C6 H5 1_555 1_555
C7 C6 1_555 1_555
H6 C7 1_555 1_555
C8 C7 1_555 1_555
C9 C8 1_555 1_555
H7 C9 1_555 1_555
C10 C9 1_555 1_555
H8 C10 1_555 1_555
C11 H9 1_555 1_555
C12 C11 1_555 1_555
H10 C12 1_555 1_555
C13 C12 1_555 1_555
C14 C13 1_555 1_555
H11 C14 1_555 1_555
C15 C14 1_555 1_555
H12 C15 1_555 1_555
C16 H13 1_555 1_555
C17 C16 1_555 1_555
H14 C17 1_555 1_555
C18 C13 1_555 1_555
C19 C18 1_555 1_555
H15 C19 1_555 1_555
C20 C19 1_555 1_555
H16 C20 1_555 1_555
C21 C22 1_555 1_555
C22 H17 1_555 1_555
H18 C22 1_555 1_555
C23 C22 1_555 1_555
C24 C23 1_555 1_555
H19 C24 1_555 1_555
H20 C24 1_555 1_555
C25 C24 1_555 1_555
C26 C23 1_555 1_555
O1 H21 1_555 1_555
H22 O1 1_555 1_555
O2 Co1 1_555 1_555
O3 C21 1_555 1_555
O4 Co1 1_555 1_555
H23 O4 1_555 1_555
O5 C26 1_555 1_555
O6 Co1 1_555 1_555
O7 C25 1_555 1_555
O8 C25 1_555 1_555
O9 H24 1_555 1_555
H25 O9 1_555 1_555
O10 H26 1_555 1_555
H27 O10 1_555 1_555
N1 Co1 1_555 1_555
N2 Co2 1_555 1_555
N3 Co2 1_555 1_555
N4 C16 1_555 1_555
C3A C3 1_555 1_555
C2A C3A 1_555 1_555
C1A C2A 1_555 1_555
H1A C1A 1_555 1_555
N1A C1A 1_555 1_555
C5A N1A 1_555 1_555
C4A C3A 1_555 1_555
H3A C4A 1_555 1_555
H4A C5A 1_555 1_555
H2A C2A 1_555 1_555
C8A C8 1_555 1_555
C7A C8A 1_555 1_555
C6A C7A 1_555 1_555
H5A C6A 1_555 1_555
N2A C6A 1_555 1_555
C10A N2A 1_555 1_555
C9A C8A 1_555 1_555
H7A C9A 1_555 1_555
H8A C10A 1_555 1_555
H6A C7A 1_555 1_555
C21A C22A 1_555 1_555
C22A H17A 1_555 1_555
H18A C22A 1_555 1_555
C23A C22A 1_555 1_555
C24A C23A 1_555 1_555
H19A C24A 1_555 1_555
H20A C24A 1_555 1_555
C25A C24A 1_555 1_555
C26A C23A 1_555 1_555
O2A C21A 1_555 1_555
O3A C21A 1_555 1_555
O4A C23A 1_555 1_555
H23A O4A 1_555 1_555
O5A Co2 1_555 1_555
O6A C26A 1_555 1_555
O7A C25A 1_555 1_555
O8A C25A 1_555 1_555
C11A H9A 1_555 1_555
C12A C11A 1_555 1_555
H10A C12A 1_555 1_555
C13A C12A 1_555 1_555
C14A C13A 1_555 1_555
H11A C14A 1_555 1_555
C15A C14A 1_555 1_555
H12A C15A 1_555 1_555
C16A H13A 1_555 1_555
C17A C16A 1_555 1_555
H14A C17A 1_555 1_555
C18A C13A 1_555 1_555
C19A C18A 1_555 1_555
H15A C19A 1_555 1_555
C20A C19A 1_555 1_555
H16A C20A 1_555 1_555
N3A Co2 1_555 1_555
N4A C16A 1_555 1_555
Co1A O2A 1_555 1_555
O1A Co1A 1_555 1_555
H21A O1A 1_555 1_555
H22A O1A 1_555 1_555
O8A_2 Co1 1_555 1_555
N2A_2 Co2 1_555 1_555
Co1A_2 O8 1_555 1_555
Co1A_3 N1A 1_555 1_555
Co2_2 N2A 1_555 1_555
Co1_2 O8A 1_555 1_555
O8_2 Co1A 1_555 1_555
N1A_2 Co1A 1_555 1_555
C1 N1 1_555 1_555
C5 N1 1_555 1_555
C6 N2 1_555 1_555
C10 N2 1_555 1_555
C11 N3 1_555 1_555
C15 N3 1_555 1_555
C17 C18 1_555 1_555
C20 N4 1_555 1_555
C21 O2 1_555 1_555
C23 O4 1_555 1_555
C26 O6 1_555 1_555
C5A C4A 1_555 1_555
C10A C9A 1_555 1_555
C26A O5A 1_555 1_555
O4A Co1A 1_555 1_555
O6A Co1A 1_555 1_555
C11A N3A 1_555 1_555
C15A N3A 1_555 1_555
C17A C18A 1_555 1_555
C20A N4A 1_555 1_555

#END
