
#######################################################################
#
#                 Cambridge Crystallographic Data Centre
#                                CCDC 
#
#######################################################################
#
# If this CIF has been generated from an entry in the Cambridge 
# Structural Database, then it will include bibliographic, chemical, 
# crystal, experimental, refinement or atomic coordinate data resulting 
# from the CCDC's data processing and validation procedures.
#
#######################################################################

data_WUFXAY
_symmetry_cell_setting           rhombohedral
_symmetry_space_group_name_H-M   'R -3'
_symmetry_Int_Tables_number      148
_space_group_name_Hall           '-R 3'
loop_
_symmetry_equiv_pos_site_id
_symmetry_equiv_pos_as_xyz
1 x,y,z
2 -y,x-y,z
3 -x+y,-x,z
4 2/3+x,1/3+y,1/3+z
5 2/3-y,1/3+x-y,1/3+z
6 2/3-x+y,1/3-x,1/3+z
7 1/3+x,2/3+y,2/3+z
8 1/3-y,2/3+x-y,2/3+z
9 1/3-x+y,2/3-x,2/3+z
10 -x,-y,-z
11 y,-x+y,-z
12 x-y,x,-z
13 1/3-x,2/3-y,2/3-z
14 1/3+y,2/3-x+y,2/3-z
15 1/3+x-y,2/3+x,2/3-z
16 2/3-x,1/3-y,1/3-z
17 2/3+y,1/3-x+y,1/3-z
18 2/3+x-y,1/3+x,1/3-z
_cell_length_a                   27.551(4)
_cell_length_b                   27.551(4)
_cell_length_c                   7.1879(11)
_cell_angle_alpha                90
_cell_angle_beta                 90
_cell_angle_gamma                120
_cell_volume                     4725.06
loop_
_atom_site_label
_atom_site_type_symbol
_atom_site_fract_x
_atom_site_fract_y
_atom_site_fract_z
Fe1 Fe 0.38444(4) 0.02643(4) -1.39615(11)
S1 S 0.38357(7) 0.10314(7) -1.5646(2)
O1 O 0.3350(2) 0.03429(18) -1.1963(6)
O2 O 0.3151(2) 0.07257(19) -0.9593(6)
C1 C 0.3539(3) 0.1348(3) -1.4259(8)
C2 C 0.3531(3) 0.1799(3) -1.5086(8)
H1 H 0.3672 0.1894 -1.6318
C3 C 0.3335(3) 0.1209(3) -1.2416(8)
C4 C 0.3284(3) 0.0730(3) -1.1266(8)
O3 O 0.4640(2) 0.0868(2) -1.2709(8)
N1 N 0.5595(7) 0.1273(6) -1.282(3)
C5 C 0.5093(7) 0.0990(8) -1.335(3)
H2 H 0.5063 0.0836 -1.4559
C6 C 0.6069(8) 0.1335(10) -1.309(4)
H3 H 0.6087 0.1208 -1.4351
H4 H 0.6140 0.1113 -1.2181
H5 H 0.6352 0.1731 -1.2958
C7 C 0.5683(10) 0.1451(10) -1.126(4)
H6 H 0.5340 0.1422 -1.0737
H7 H 0.5982 0.1844 -1.1262
H8 H 0.5798 0.1231 -1.0493
S1O S 0.28310(7) 0.23019(7) -1.1021(2)
O1O O 0.3317(2) 0.29904(18) -1.4704(6)
O2O O 0.3516(2) 0.26076(19) -1.7074(6)
C1O C 0.3128(3) 0.1985(3) -1.2408(8)
C2O C 0.3136(3) 0.1534(3) -1.1581(8)
H1O H 0.2995 0.1439 -1.0349
C3O C 0.3332(3) 0.2124(3) -1.4251(8)
C4O C 0.3383(3) 0.2603(3) -1.5401(8)
Fe1G Fe 0.30690(4) 0.02468(6) -1.72948(11)
O3G O 0.2465(2) 0.0439(3) -1.6042(8)
N1G N 0.2060(6) 0.0989(9) -1.615(3)
C5G C 0.2343(8) 0.0770(11) -1.668(3)
H2G H 0.2497 0.0894 -1.7892
C6G C 0.1998(10) 0.1401(13) -1.642(4)
H3G H 0.2125 0.1546 -1.7684
H4G H 0.2220 0.1694 -1.5514
H5G H 0.1602 0.1288 -1.6291
C7G C 0.1882(10) 0.0899(14) -1.459(4)
H6G H 0.1911 0.0585 -1.4070
H7G H 0.1489 0.0805 -1.4595
H8G H 0.2102 0.1234 -1.3826
Fe1E Fe 0.30866(6) -0.05111(4) -1.06282(11)
Fe1G_2 Fe 0.30690(4) 0.02468(6) -0.72948(11)
Fe1K Fe 0.35801(6) 0.38444(4) -1.60385(11)
Fe1O Fe 0.28223(4) 0.30690(4) -1.27052(11)
Fe1M Fe 0.35976(4) 0.30866(6) -1.93718(11)
Fe1M_2 Fe 0.35976(4) 0.30866(6) -0.93718(11)
S1E S 0.38624(10) -0.05024(7) -1.2313(2)
S1G S 0.23019(7) -0.05290(10) -1.8979(2)
O1E O 0.36596(27) -0.0017(2) -1.8630(6)
O1G O 0.29904(18) -0.03262(27) -1.5296(6)
O2_2 O 0.3151(2) 0.07257(19) -1.9593(6)
O2E O 0.42414(28) 0.0182(2) -1.6260(6)
O4 O 0.6667 0.3333 -0.46(4)
O5 O 0.6667 0.3333 -1.1667
N2? N 0.5196(12) 0.1363(8) -1.011(3)
C8? C 0.4763(13) 0.1069(10) -1.112(3)
H9? H 0.4432 0.0975 -1.0441
C9? C 0.5285(17) 0.1545(13) -0.847(4)
H10? H 0.4927 0.1445 -0.7868
H11? H 0.5525 0.1953 -0.8483
H12? H 0.5471 0.1378 -0.7774
C10? C 0.5687(15) 0.153(2) -1.053(6)
H13? H 0.5931 0.1738 -0.9480
H14? H 0.5788 0.1775 -1.1616
H15? H 0.5734 0.1208 -1.0818
loop_
_geom_bond_atom_site_label_1
_geom_bond_atom_site_label_2
_geom_bond_site_symmetry_1
_geom_bond_site_symmetry_2
Fe1 S1 1_555 1_555
S1 C1 1_555 1_555
O1 Fe1 1_555 1_555
O2 C4 1_555 1_555
C1 C2 1_555 1_555
C2 H1 1_555 1_555
C3 C1 1_555 1_555
C4 O1 1_555 1_555
O3 Fe1 1_555 1_555
N1 C5 1_555 1_555
C5 O3 1_555 1_555
H2 C5 1_555 1_555
C6 N1 1_555 1_555
H3 C6 1_555 1_555
H4 C6 1_555 1_555
H5 C6 1_555 1_555
C7 N1 1_555 1_555
H6 C7 1_555 1_555
H7 C7 1_555 1_555
H8 C7 1_555 1_555
S1O C1O 1_555 1_555
O1O C4O 1_555 1_555
O2O C4O 1_555 1_555
C1O C2O 1_555 1_555
C2O C3 1_555 1_555
H1O C2O 1_555 1_555
C3O C2 1_555 1_555
C4O C3O 1_555 1_555
Fe1G S1 1_555 1_555
O3G Fe1G 1_555 1_555
N1G C5G 1_555 1_555
C5G O3G 1_555 1_555
H2G C5G 1_555 1_555
C6G N1G 1_555 1_555
H3G C6G 1_555 1_555
H4G C6G 1_555 1_555
H5G C6G 1_555 1_555
C7G N1G 1_555 1_555
H6G C7G 1_555 1_555
H7G C7G 1_555 1_555
H8G C7G 1_555 1_555
Fe1E O1 1_555 1_555
Fe1G_2 O2 1_555 1_555
Fe1K O1O 1_555 1_555
Fe1O S1O 1_555 1_555
Fe1M O2O 1_555 1_555
Fe1M_2 S1O 1_555 1_555
S1E Fe1 1_555 1_555
S1G Fe1G 1_555 1_555
O1E Fe1G 1_555 1_555
O1G Fe1 1_555 1_555
O2_2 Fe1G 1_555 1_555
O2E Fe1 1_555 1_555
C3 C4 1_555 1_555
O1O Fe1O 1_555 1_555
C1O C3O 1_555 1_555
Fe1G O1G 1_555 1_555
Fe1E S1E 1_555 1_555

#END
