
#######################################################################
#
#                 Cambridge Crystallographic Data Centre
#                                CCDC 
#
#######################################################################
#
# If this CIF has been generated from an entry in the Cambridge 
# Structural Database, then it will include bibliographic, chemical, 
# crystal, experimental, refinement or atomic coordinate data resulting 
# from the CCDC's data processing and validation procedures.
#
#######################################################################

data_WUHHEN
_symmetry_cell_setting           cubic
_symmetry_space_group_name_H-M   'I -4 3 m'
_symmetry_Int_Tables_number      217
_space_group_name_Hall           'I -4 2 3'
loop_
_symmetry_equiv_pos_site_id
_symmetry_equiv_pos_as_xyz
1 x,y,z
2 -x,-y,z
3 -x,y,-z
4 x,-y,-z
5 z,x,y
6 z,-x,-y
7 -z,-x,y
8 -z,x,-y
9 y,z,x
10 -y,z,-x
11 y,-z,-x
12 -y,-z,x
13 y,x,z
14 -y,-x,z
15 y,-x,-z
16 -y,x,-z
17 x,z,y
18 -x,z,-y
19 -x,-z,y
20 x,-z,-y
21 z,y,x
22 z,-y,-x
23 -z,y,-x
24 -z,-y,x
25 1/2+x,1/2+y,1/2+z
26 1/2-x,1/2-y,1/2+z
27 1/2-x,1/2+y,1/2-z
28 1/2+x,1/2-y,1/2-z
29 1/2+z,1/2+x,1/2+y
30 1/2+z,1/2-x,1/2-y
31 1/2-z,1/2-x,1/2+y
32 1/2-z,1/2+x,1/2-y
33 1/2+y,1/2+z,1/2+x
34 1/2-y,1/2+z,1/2-x
35 1/2+y,1/2-z,1/2-x
36 1/2-y,1/2-z,1/2+x
37 1/2+y,1/2+x,1/2+z
38 1/2-y,1/2-x,1/2+z
39 1/2+y,1/2-x,1/2-z
40 1/2-y,1/2+x,1/2-z
41 1/2+x,1/2+z,1/2+y
42 1/2-x,1/2+z,1/2-y
43 1/2-x,1/2-z,1/2+y
44 1/2+x,1/2-z,1/2-y
45 1/2+z,1/2+y,1/2+x
46 1/2+z,1/2-y,1/2-x
47 1/2-z,1/2+y,1/2-x
48 1/2-z,1/2-y,1/2+x
_cell_length_a                   19.0203(12)
_cell_length_b                   19.0203(12)
_cell_length_c                   19.0203(12)
_cell_angle_alpha                90
_cell_angle_beta                 90
_cell_angle_gamma                90
_cell_volume                     6881.01
loop_
_atom_site_label
_atom_site_type_symbol
_atom_site_fract_x
_atom_site_fract_y
_atom_site_fract_z
Zn1 Zn 0.5000 0.5000 0.07743(10)
N1 N 0.7412(6) 0.7412(6) 0.0853(8)
N2 N 0.7440(7) 0.8292(5) 0.1708(5)
C1 C 0.5948(6) 0.5948(6) -0.0070(17)
C2 C 0.6532(5) 0.6532(5) 0.0088(9)
C3 C 0.6272(6) 0.7175(6) 0.0442(6)
H1 H 0.5879 0.7360 0.0175
H2 H 0.6098 0.7048 0.0904
C4 C 0.6779(6) 0.7708(7) 0.0517(6)
H3 H 0.6591 0.8086 0.0804
H4 H 0.6899 0.7899 0.0060
C5 C 0.7744(6) 0.7744(6) 0.1474(8)
O1 O 0.5684(6) 0.5684(6) 0.0576(8)
O2 O 0.5762(5) 0.5762(5) -0.0593(6)
O3 O 0.5000 0.5000 0.1861(8)
Zn1J Zn 0.5000 0.92257(10) 0.5000
Zn1F Zn 0.92257(10) 0.5000 0.5000
Zn1B Zn 0.5000 0.5000 -0.07743(10)
Zn1J_2 Zn 0.5000 0.92257(10) -0.5000
Zn1D Zn 0.07743(10) 0.5000 -0.5000
Zn1H Zn 0.5000 1.07743(10) 0.5000
Zn1D_2 Zn 1.07743(10) 0.5000 0.5000
Zn1H_2 Zn 0.5000 1.07743(10) -0.5000
Zn1F_2 Zn -0.07743(10) 0.5000 -0.5000
Zn1H_3 Zn 0.5000 0.07743(10) -0.5000
Zn1J_3 Zn 0.5000 -0.07743(10) -0.5000
Zn1F_3 Zn 0.92257(10) 0.5000 -0.5000
Zn1D_3 Zn 1.07743(10) 0.5000 -0.5000
Zn1H_4 Zn 0.5000 0.07743(10) 0.5000
Zn1J_4 Zn 0.5000 -0.07743(10) 0.5000
Zn1D_4 Zn 0.07743(10) 0.5000 0.5000
Zn1F_4 Zn -0.07743(10) 0.5000 0.5000
N1J N 0.7412(6) 0.9147(8) 0.2588(6)
N1G N 0.9147(8) 0.7412(6) 0.2588(6)
N1B N 0.2588(6) 0.7412(6) -0.0853(8)
N1K N 0.2588(6) 0.9147(8) -0.2588(6)
N1D N 0.0853(8) 0.7412(6) -0.2588(6)
N1C N 0.7412(6) 0.2588(6) -0.0853(8)
N1H N 0.7412(6) 0.0853(8) -0.2588(6)
N1F N 0.9147(8) 0.2588(6) -0.2588(6)
N1A N 0.2588(6) 0.2588(6) 0.0853(8)
N1I N 0.2588(6) 0.0853(8) 0.2588(6)
N1E N 0.0853(8) 0.2588(6) 0.2588(6)
N2J N 0.8292(5) 0.8292(5) 0.2560(7)
N2G N 0.8292(5) 0.7440(7) 0.1708(5)
N2B N 0.2560(7) 0.8292(5) -0.1708(5)
N2K N 0.1708(5) 0.8292(5) -0.2560(7)
N2D N 0.1708(5) 0.7440(7) -0.1708(5)
N2C N 0.7440(7) 0.1708(5) -0.1708(5)
N2H N 0.8292(5) 0.1708(5) -0.2560(7)
N2F N 0.8292(5) 0.2560(7) -0.1708(5)
N2A N 0.2560(7) 0.1708(5) 0.1708(5)
N2I N 0.1708(5) 0.1708(5) 0.2560(7)
N2E N 0.1708(5) 0.2560(7) 0.1708(5)
C1J C 0.5948(6) 1.0070(17) 0.4052(6)
C1G C 1.0070(17) 0.5948(6) 0.4052(6)
C1B C 0.4052(6) 0.5948(6) 0.0070(17)
C1K C 0.4052(6) 1.0070(17) -0.4052(6)
C1D C -0.0070(17) 0.5948(6) -0.4052(6)
C1C C 0.5948(6) 0.4052(6) 0.0070(17)
C1H C 0.5948(6) -0.0070(17) -0.4052(6)
C1F C 1.0070(17) 0.4052(6) -0.4052(6)
C1A C 0.4052(6) 0.4052(6) -0.0070(17)
C1I C 0.4052(6) -0.0070(17) 0.4052(6)
C1E C -0.0070(17) 0.4052(6) 0.4052(6)
C2J C 0.6532(5) 0.9912(9) 0.3468(5)
C2G C 0.9912(9) 0.6532(5) 0.3468(5)
C2B C 0.3468(5) 0.6532(5) -0.0088(9)
C2K C 0.3468(5) 0.9912(9) -0.3468(5)
C2D C 0.0088(9) 0.6532(5) -0.3468(5)
C2C C 0.6532(5) 0.3468(5) -0.0088(9)
C2H C 0.6532(5) 0.0088(9) -0.3468(5)
C2F C 0.9912(9) 0.3468(5) -0.3468(5)
C2A C 0.3468(5) 0.3468(5) 0.0088(9)
C2I C 0.3468(5) 0.0088(9) 0.3468(5)
C2E C 0.0088(9) 0.3468(5) 0.3468(5)
C3L C 0.7175(6) 0.6272(6) 0.0442(6)
C3J C 0.7175(6) 0.9558(6) 0.3728(6)
C3S C 0.6272(6) 0.9558(6) 0.2825(6)
C3G C 0.9558(6) 0.6272(6) 0.2825(6)
C3V C 0.9558(6) 0.7175(6) 0.3728(6)
C3B C 0.3728(6) 0.7175(6) -0.0442(6)
C3O C 0.2825(6) 0.6272(6) -0.0442(6)
C3K C 0.2825(6) 0.9558(6) -0.3728(6)
C3R C 0.3728(6) 0.9558(6) -0.2825(6)
C3D C 0.0442(6) 0.6272(6) -0.2825(6)
C3T C 0.0442(6) 0.7175(6) -0.3728(6)
C3C C 0.6272(6) 0.2825(6) -0.0442(6)
C3N C 0.7175(6) 0.3728(6) -0.0442(6)
C3H C 0.7175(6) 0.0442(6) -0.3728(6)
C3P C 0.6272(6) 0.0442(6) -0.2825(6)
C3F C 0.9558(6) 0.3728(6) -0.2825(6)
C3W C 0.9558(6) 0.2825(6) -0.3728(6)
C3A C 0.3728(6) 0.2825(6) 0.0442(6)
C3M C 0.2825(6) 0.3728(6) 0.0442(6)
C3I C 0.2825(6) 0.0442(6) 0.3728(6)
C3Q C 0.3728(6) 0.0442(6) 0.2825(6)
C3E C 0.0442(6) 0.3728(6) 0.2825(6)
C3U C 0.0442(6) 0.2825(6) 0.3728(6)
H1S H 0.5879 0.9825 0.2640
H1J H 0.7360 0.9825 0.4121
H1V H 0.9825 0.7360 0.4121
H1G H 0.9825 0.5879 0.2640
H1L H 0.7360 0.5879 0.0175
H1B H 0.4121 0.7360 -0.0175
H1R H 0.4121 0.9825 -0.2640
H1K H 0.2640 0.9825 -0.4121
H1T H 0.0175 0.7360 -0.4121
H1D H 0.0175 0.5879 -0.2640
H1O H 0.2640 0.5879 -0.0175
H1C H 0.5879 0.2640 -0.0175
H1P H 0.5879 0.0175 -0.2640
H1H H 0.7360 0.0175 -0.4121
H1W H 0.9825 0.2640 -0.4121
H1F H 0.9825 0.4121 -0.2640
H1N H 0.7360 0.4121 -0.0175
H1A H 0.4121 0.2640 0.0175
H1Q H 0.4121 0.0175 0.2640
H1I H 0.2640 0.0175 0.4121
H1U H 0.0175 0.2640 0.4121
H1E H 0.0175 0.4121 0.2640
H1M H 0.2640 0.4121 0.0175
H2S H 0.6098 0.9096 0.2952
H2J H 0.7048 0.9096 0.3902
H2V H 0.9096 0.7048 0.3902
H2G H 0.9096 0.6098 0.2952
H2L H 0.7048 0.6098 0.0904
H2B H 0.3902 0.7048 -0.0904
H2R H 0.3902 0.9096 -0.2952
H2K H 0.2952 0.9096 -0.3902
H2T H 0.0904 0.7048 -0.3902
H2D H 0.0904 0.6098 -0.2952
H2O H 0.2952 0.6098 -0.0904
H2C H 0.6098 0.2952 -0.0904
H2P H 0.6098 0.0904 -0.2952
H2H H 0.7048 0.0904 -0.3902
H2W H 0.9096 0.2952 -0.3902
H2F H 0.9096 0.3902 -0.2952
H2N H 0.7048 0.3902 -0.0904
H2A H 0.3902 0.2952 0.0904
H2Q H 0.3902 0.0904 0.2952
H2I H 0.2952 0.0904 0.3902
H2U H 0.0904 0.2952 0.3902
H2E H 0.0904 0.3902 0.2952
H2M H 0.2952 0.3902 0.0904
C4L C 0.7708(7) 0.6779(6) 0.0517(6)
C4J C 0.7708(7) 0.9483(6) 0.3221(6)
C4S C 0.6779(6) 0.9483(6) 0.2292(7)
C4G C 0.9483(6) 0.6779(6) 0.2292(7)
C4V C 0.9483(6) 0.7708(7) 0.3221(6)
C4B C 0.3221(6) 0.7708(7) -0.0517(6)
C4O C 0.2292(7) 0.6779(6) -0.0517(6)
C4K C 0.2292(7) 0.9483(6) -0.3221(6)
C4R C 0.3221(6) 0.9483(6) -0.2292(7)
C4D C 0.0517(6) 0.6779(6) -0.2292(7)
C4T C 0.0517(6) 0.7708(7) -0.3221(6)
C4C C 0.6779(6) 0.2292(7) -0.0517(6)
C4N C 0.7708(7) 0.3221(6) -0.0517(6)
C4H C 0.7708(7) 0.0517(6) -0.3221(6)
C4P C 0.6779(6) 0.0517(6) -0.2292(7)
C4F C 0.9483(6) 0.3221(6) -0.2292(7)
C4W C 0.9483(6) 0.2292(7) -0.3221(6)
C4A C 0.3221(6) 0.2292(7) 0.0517(6)
C4M C 0.2292(7) 0.3221(6) 0.0517(6)
C4I C 0.2292(7) 0.0517(6) 0.3221(6)
C4Q C 0.3221(6) 0.0517(6) 0.2292(7)
C4E C 0.0517(6) 0.3221(6) 0.2292(7)
C4U C 0.0517(6) 0.2292(7) 0.3221(6)
H3S H 0.6591 0.9196 0.1914
H3J H 0.8086 0.9196 0.3409
H3V H 0.9196 0.8086 0.3409
H3G H 0.9196 0.6591 0.1914
H3L H 0.8086 0.6591 0.0804
H3B H 0.3409 0.8086 -0.0804
H3R H 0.3409 0.9196 -0.1914
H3K H 0.1914 0.9196 -0.3409
H3T H 0.0804 0.8086 -0.3409
H3D H 0.0804 0.6591 -0.1914
H3O H 0.1914 0.6591 -0.0804
H3C H 0.6591 0.1914 -0.0804
H3P H 0.6591 0.0804 -0.1914
H3H H 0.8086 0.0804 -0.3409
H3W H 0.9196 0.1914 -0.3409
H3F H 0.9196 0.3409 -0.1914
H3N H 0.8086 0.3409 -0.0804
H3A H 0.3409 0.1914 0.0804
H3Q H 0.3409 0.0804 0.1914
H3I H 0.1914 0.0804 0.3409
H3U H 0.0804 0.1914 0.3409
H3E H 0.0804 0.3409 0.1914
H3M H 0.1914 0.3409 0.0804
H4S H 0.6899 0.9940 0.2101
H4J H 0.7899 0.9940 0.3101
H4V H 0.9940 0.7899 0.3101
H4G H 0.9940 0.6899 0.2101
H4L H 0.7899 0.6899 0.0060
H4B H 0.3101 0.7899 -0.0060
H4R H 0.3101 0.9940 -0.2101
H4K H 0.2101 0.9940 -0.3101
H4T H 0.0060 0.7899 -0.3101
H4D H 0.0060 0.6899 -0.2101
H4O H 0.2101 0.6899 -0.0060
H4C H 0.6899 0.2101 -0.0060
H4P H 0.6899 0.0060 -0.2101
H4H H 0.7899 0.0060 -0.3101
H4W H 0.9940 0.2101 -0.3101
H4F H 0.9940 0.3101 -0.2101
H4N H 0.7899 0.3101 -0.0060
H4A H 0.3101 0.2101 0.0060
H4Q H 0.3101 0.0060 0.2101
H4I H 0.2101 0.0060 0.3101
H4U H 0.0060 0.2101 0.3101
H4E H 0.0060 0.3101 0.2101
H4M H 0.2101 0.3101 0.0060
C5J C 0.7744(6) 0.8526(8) 0.2256(6)
C5G C 0.8526(8) 0.7744(6) 0.2256(6)
C5B C 0.2256(6) 0.7744(6) -0.1474(8)
C5K C 0.2256(6) 0.8526(8) -0.2256(6)
C5D C 0.1474(8) 0.7744(6) -0.2256(6)
C5C C 0.7744(6) 0.2256(6) -0.1474(8)
C5H C 0.7744(6) 0.1474(8) -0.2256(6)
C5F C 0.8526(8) 0.2256(6) -0.2256(6)
C5A C 0.2256(6) 0.2256(6) 0.1474(8)
C5I C 0.2256(6) 0.1474(8) 0.2256(6)
C5E C 0.1474(8) 0.2256(6) 0.2256(6)
O1J O 0.5684(6) 0.9424(8) 0.4316(6)
O1G O 0.9424(8) 0.5684(6) 0.4316(6)
O1B O 0.4316(6) 0.5684(6) -0.0576(8)
O1K O 0.4316(6) 0.9424(8) -0.4316(6)
O1D O 0.0576(8) 0.5684(6) -0.4316(6)
O1C O 0.5684(6) 0.4316(6) -0.0576(8)
O1H O 0.5684(6) 0.0576(8) -0.4316(6)
O1F O 0.9424(8) 0.4316(6) -0.4316(6)
O1A O 0.4316(6) 0.4316(6) 0.0576(8)
O1I O 0.4316(6) 0.0576(8) 0.4316(6)
O1E O 0.0576(8) 0.4316(6) 0.4316(6)
O1K_2 O 0.4316(6) 0.9424(8) 0.5684(6)
O1F_2 O 0.9424(8) 0.4316(6) 0.5684(6)
O1J_2 O 0.5684(6) 0.9424(8) -0.5684(6)
O1E_2 O 0.0576(8) 0.4316(6) -0.5684(6)
O2J O 0.5762(5) 1.0593(6) 0.4238(5)
O2G O 1.0593(6) 0.5762(5) 0.4238(5)
O2B O 0.4238(5) 0.5762(5) 0.0593(6)
O2K O 0.4238(5) 1.0593(6) -0.4238(5)
O2D O -0.0593(6) 0.5762(5) -0.4238(5)
O2C O 0.5762(5) 0.4238(5) 0.0593(6)
O2H O 0.5762(5) -0.0593(6) -0.4238(5)
O2F O 1.0593(6) 0.4238(5) -0.4238(5)
O2A O 0.4238(5) 0.4238(5) -0.0593(6)
O2I O 0.4238(5) -0.0593(6) 0.4238(5)
O2E O -0.0593(6) 0.4238(5) 0.4238(5)
O2H_2 O 0.5762(5) 0.9407(6) 0.5762(5)
O2I_2 O 0.4238(5) 0.9407(6) 0.4238(5)
O2E_2 O 0.9407(6) 0.4238(5) 0.4238(5)
O2D_2 O 0.9407(6) 0.5762(5) 0.5762(5)
O2I_3 O 0.4238(5) 0.9407(6) -0.5762(5)
O2H_3 O 0.5762(5) 0.9407(6) -0.4238(5)
O2F_2 O 0.0593(6) 0.4238(5) -0.4238(5)
O2G_2 O 0.0593(6) 0.5762(5) -0.5762(5)
O3J O 0.5000 0.8139(8) 0.5000
O3F O 0.8139(8) 0.5000 0.5000
O3B O 0.5000 0.5000 -0.1861(8)
O3J_2 O 0.5000 0.8139(8) -0.5000
O3D O 0.1861(8) 0.5000 -0.5000
loop_
_geom_bond_atom_site_label_1
_geom_bond_atom_site_label_2
_geom_bond_site_symmetry_1
_geom_bond_site_symmetry_2
Zn1 O1 1_555 1_555
N1 C4 1_555 1_555
N2 C5 1_555 1_555
C1 C2 1_555 1_555
C2 C3 1_555 1_555
C3 H1 1_555 1_555
H2 C3 1_555 1_555
C4 C3 1_555 1_555
H3 C4 1_555 1_555
H4 C4 1_555 1_555
C5 N1 1_555 1_555
O1 C1 1_555 1_555
O2 C1 1_555 1_555
O3 Zn1 1_555 1_555
Zn1J O1J 1_555 1_555
Zn1F O1G 1_555 1_555
Zn1B O2 1_555 1_555
Zn1J_2 O1K 1_555 1_555
Zn1D O1D 1_555 1_555
Zn1H O2J 1_555 1_555
Zn1D_2 O2G 1_555 1_555
Zn1H_2 O2K 1_555 1_555
Zn1F_2 O2D 1_555 1_555
Zn1H_3 O1H 1_555 1_555
Zn1J_3 O2H 1_555 1_555
Zn1F_3 O1F 1_555 1_555
Zn1D_3 O2F 1_555 1_555
Zn1H_4 O1I 1_555 1_555
Zn1J_4 O2I 1_555 1_555
Zn1D_4 O1E 1_555 1_555
Zn1F_4 O2E 1_555 1_555
N1J C4J 1_555 1_555
N1G C4G 1_555 1_555
N1B C4B 1_555 1_555
N1K C4K 1_555 1_555
N1D C4D 1_555 1_555
N1C C4C 1_555 1_555
N1H C4H 1_555 1_555
N1F C4F 1_555 1_555
N1A C4A 1_555 1_555
N1I C4I 1_555 1_555
N1E C4E 1_555 1_555
N2J C5J 1_555 1_555
N2G C5 1_555 1_555
N2B C5B 1_555 1_555
N2K C5K 1_555 1_555
N2D C5B 1_555 1_555
N2C C5C 1_555 1_555
N2H C5H 1_555 1_555
N2F C5C 1_555 1_555
N2A C5A 1_555 1_555
N2I C5I 1_555 1_555
N2E C5A 1_555 1_555
C1J C2J 1_555 1_555
C1G C2G 1_555 1_555
C1B C2B 1_555 1_555
C1K C2K 1_555 1_555
C1D C2D 1_555 1_555
C1C C2C 1_555 1_555
C1H C2H 1_555 1_555
C1F C2F 1_555 1_555
C1A C2A 1_555 1_555
C1I C2I 1_555 1_555
C1E C2E 1_555 1_555
C2J C3J 1_555 1_555
C2G C3G 1_555 1_555
C2B C3B 1_555 1_555
C2K C3K 1_555 1_555
C2D C3D 1_555 1_555
C2C C3C 1_555 1_555
C2H C3H 1_555 1_555
C2F C3F 1_555 1_555
C2A C3A 1_555 1_555
C2I C3I 1_555 1_555
C2E C3E 1_555 1_555
C3L C2 1_555 1_555
C3J H1J 1_555 1_555
C3S C2J 1_555 1_555
C3G H1G 1_555 1_555
C3V C2G 1_555 1_555
C3B H1B 1_555 1_555
C3O C2B 1_555 1_555
C3K H1K 1_555 1_555
C3R C2K 1_555 1_555
C3D H1D 1_555 1_555
C3T C2D 1_555 1_555
C3C H1C 1_555 1_555
C3N C2C 1_555 1_555
C3H H1H 1_555 1_555
C3P C2H 1_555 1_555
C3F H1F 1_555 1_555
C3W C2F 1_555 1_555
C3A H1A 1_555 1_555
C3M C2A 1_555 1_555
C3I H1I 1_555 1_555
C3Q C2I 1_555 1_555
C3E H1E 1_555 1_555
C3U C2E 1_555 1_555
H1S C3S 1_555 1_555
H1V C3V 1_555 1_555
H1L C3L 1_555 1_555
H1R C3R 1_555 1_555
H1T C3T 1_555 1_555
H1O C3O 1_555 1_555
H1P C3P 1_555 1_555
H1W C3W 1_555 1_555
H1N C3N 1_555 1_555
H1Q C3Q 1_555 1_555
H1U C3U 1_555 1_555
H1M C3M 1_555 1_555
H2S C3S 1_555 1_555
H2J C3J 1_555 1_555
H2V C3V 1_555 1_555
H2G C3G 1_555 1_555
H2L C3L 1_555 1_555
H2B C3B 1_555 1_555
H2R C3R 1_555 1_555
H2K C3K 1_555 1_555
H2T C3T 1_555 1_555
H2D C3D 1_555 1_555
H2O C3O 1_555 1_555
H2C C3C 1_555 1_555
H2P C3P 1_555 1_555
H2H C3H 1_555 1_555
H2W C3W 1_555 1_555
H2F C3F 1_555 1_555
H2N C3N 1_555 1_555
H2A C3A 1_555 1_555
H2Q C3Q 1_555 1_555
H2I C3I 1_555 1_555
H2U C3U 1_555 1_555
H2E C3E 1_555 1_555
H2M C3M 1_555 1_555
C4L N1 1_555 1_555
C4J C3J 1_555 1_555
C4S N1J 1_555 1_555
C4G C3G 1_555 1_555
C4V N1G 1_555 1_555
C4B C3B 1_555 1_555
C4O N1B 1_555 1_555
C4K C3K 1_555 1_555
C4R N1K 1_555 1_555
C4D C3D 1_555 1_555
C4T N1D 1_555 1_555
C4C C3C 1_555 1_555
C4N N1C 1_555 1_555
C4H C3H 1_555 1_555
C4P N1H 1_555 1_555
C4F C3F 1_555 1_555
C4W N1F 1_555 1_555
C4A C3A 1_555 1_555
C4M N1A 1_555 1_555
C4I C3I 1_555 1_555
C4Q N1I 1_555 1_555
C4E C3E 1_555 1_555
C4U N1E 1_555 1_555
H3S C4S 1_555 1_555
H3J C4J 1_555 1_555
H3V C4V 1_555 1_555
H3G C4G 1_555 1_555
H3L C4L 1_555 1_555
H3B C4B 1_555 1_555
H3R C4R 1_555 1_555
H3K C4K 1_555 1_555
H3T C4T 1_555 1_555
H3D C4D 1_555 1_555
H3O C4O 1_555 1_555
H3C C4C 1_555 1_555
H3P C4P 1_555 1_555
H3H C4H 1_555 1_555
H3W C4W 1_555 1_555
H3F C4F 1_555 1_555
H3N C4N 1_555 1_555
H3A C4A 1_555 1_555
H3Q C4Q 1_555 1_555
H3I C4I 1_555 1_555
H3U C4U 1_555 1_555
H3E C4E 1_555 1_555
H3M C4M 1_555 1_555
H4S C4S 1_555 1_555
H4J C4J 1_555 1_555
H4V C4V 1_555 1_555
H4G C4G 1_555 1_555
H4L C4L 1_555 1_555
H4B C4B 1_555 1_555
H4R C4R 1_555 1_555
H4K C4K 1_555 1_555
H4T C4T 1_555 1_555
H4D C4D 1_555 1_555
H4O C4O 1_555 1_555
H4C C4C 1_555 1_555
H4P C4P 1_555 1_555
H4H C4H 1_555 1_555
H4W C4W 1_555 1_555
H4F C4F 1_555 1_555
H4N C4N 1_555 1_555
H4A C4A 1_555 1_555
H4Q C4Q 1_555 1_555
H4I C4I 1_555 1_555
H4U C4U 1_555 1_555
H4E C4E 1_555 1_555
H4M C4M 1_555 1_555
C5J N2 1_555 1_555
C5G N1G 1_555 1_555
C5B N1B 1_555 1_555
C5K N1K 1_555 1_555
C5D N1D 1_555 1_555
C5C N1C 1_555 1_555
C5H N1H 1_555 1_555
C5F N1F 1_555 1_555
C5A N1A 1_555 1_555
C5I N1I 1_555 1_555
C5E N1E 1_555 1_555
O1J C1J 1_555 1_555
O1G C1G 1_555 1_555
O1B Zn1B 1_555 1_555
O1K C1K 1_555 1_555
O1D C1D 1_555 1_555
O1C Zn1B 1_555 1_555
O1H C1H 1_555 1_555
O1F C1F 1_555 1_555
O1A Zn1 1_555 1_555
O1I C1I 1_555 1_555
O1E C1E 1_555 1_555
O1K_2 Zn1J 1_555 1_555
O1F_2 Zn1F 1_555 1_555
O1J_2 Zn1J_2 1_555 1_555
O1E_2 Zn1D 1_555 1_555
O2J C1J 1_555 1_555
O2G C1G 1_555 1_555
O2B Zn1 1_555 1_555
O2K C1K 1_555 1_555
O2D C1D 1_555 1_555
O2C Zn1 1_555 1_555
O2H C1H 1_555 1_555
O2F C1F 1_555 1_555
O2A Zn1B 1_555 1_555
O2I C1I 1_555 1_555
O2E C1E 1_555 1_555
O2H_2 Zn1J 1_555 1_555
O2I_2 Zn1J 1_555 1_555
O2E_2 Zn1F 1_555 1_555
O2D_2 Zn1F 1_555 1_555
O2I_3 Zn1J_2 1_555 1_555
O2H_3 Zn1J_2 1_555 1_555
O2F_2 Zn1D 1_555 1_555
O2G_2 Zn1D 1_555 1_555
O3J Zn1J 1_555 1_555
O3F Zn1F 1_555 1_555
O3B Zn1B 1_555 1_555
O3J_2 Zn1J_2 1_555 1_555
O3D Zn1D 1_555 1_555
N1J C5J 1_555 1_555
N2J C5G 1_555 1_555
N2G C5G 1_555 1_555
N2B C5K 1_555 1_555
N2K C5D 1_555 1_555
N2D C5D 1_555 1_555
N2C C5H 1_555 1_555
N2H C5F 1_555 1_555
N2F C5F 1_555 1_555
N2A C5I 1_555 1_555
N2I C5E 1_555 1_555
N2E C5E 1_555 1_555
C1B O1B 1_555 1_555
C1B O2B 1_555 1_555
C1C O1C 1_555 1_555
C1C O2C 1_555 1_555
C1A O1A 1_555 1_555
C1A O2A 1_555 1_555
C3L C4L 1_555 1_555
C3S C4S 1_555 1_555
C3V C4V 1_555 1_555
C3O C4O 1_555 1_555
C3R C4R 1_555 1_555
C3T C4T 1_555 1_555
C3N C4N 1_555 1_555
C3P C4P 1_555 1_555
C3W C4W 1_555 1_555
C3M C4M 1_555 1_555
C3Q C4Q 1_555 1_555
C3U C4U 1_555 1_555

#END
