
#######################################################################
#
#                 Cambridge Crystallographic Data Centre
#                                CCDC 
#
#######################################################################
#
# If this CIF has been generated from an entry in the Cambridge 
# Structural Database, then it will include bibliographic, chemical, 
# crystal, experimental, refinement or atomic coordinate data resulting 
# from the CCDC's data processing and validation procedures.
#
#######################################################################

data_XADFAL
_symmetry_cell_setting           monoclinic
_symmetry_space_group_name_H-M   'C 2/c'
_symmetry_Int_Tables_number      15
_space_group_name_Hall           '-C 2yn'
loop_
_symmetry_equiv_pos_site_id
_symmetry_equiv_pos_as_xyz
1 x,y,z
2 -x,y,1/2-z
3 1/2+x,1/2+y,z
4 1/2-x,1/2+y,1/2-z
5 -x,-y,-z
6 x,-y,1/2+z
7 1/2-x,1/2-y,-z
8 1/2+x,1/2-y,1/2+z
_cell_length_a                   11.5882(3)
_cell_length_b                   15.6757(4)
_cell_length_c                   14.7695(5)
_cell_angle_alpha                90
_cell_angle_beta                 107.2620(10)
_cell_angle_gamma                90
_cell_volume                     2562.08
loop_
_atom_site_label
_atom_site_type_symbol
_atom_site_fract_x
_atom_site_fract_y
_atom_site_fract_z
O1 O 0.7108(4) 0.3327(3) 0.3826(3)
Cu1 Cu 0.74847(3) 0.24509(2) 0.24296(3)
C1 C 0.6220(3) 0.34316(19) 0.0811(2)
C2 C 0.5537(3) 0.42302(17) 0.0393(2)
C3 C 0.6001(3) 0.50083(17) 0.0782(2)
H1 H 0.6676 0.5015 0.1314
C4 C 0.4513(3) 0.42214(17) -0.0399(2)
C5 C 0.3910(3) 0.3406(2) -0.0833(2)
C6 C 0.5000 0.2163(2) 0.2500
C7 C 0.5977(2) 0.09080(17) 0.2414(2)
H2 H 0.6647 0.0621 0.2343
C8 C 0.5000 0.0436(2) 0.2500
C9 C 0.5000 -0.0511(2) 0.2500
C10 C 0.6009(2) -0.09833(16) 0.2488(2)
H3 H 0.6706 -0.0696 0.2474
C11 C 0.5000 -0.2234(2) 0.2500
O4 O 0.64570(18) 0.33462(12) 0.16942(14)
O5 O 0.6545(5) 0.2947(3) 0.0300(3)
O6 O 0.34746(18) 0.34058(12) -0.17200(15)
O7 O 0.3889(5) 0.2802(2) -0.0312(3)
O8 O 0.7894(3) 0.15449(19) 0.1304(2)
N1 N 0.5986(2) 0.17614(14) 0.24319(19)
N2 N 0.6014(2) -0.18372(14) 0.24949(18)
H4 H 0.5000 -0.2820(13) 0.2500
H5 H 0.5000 0.2760(13) 0.2500
H6 H 0.730(2) 0.130(2) 0.095(2)
H7 H 0.822(3) 0.175(2) 0.091(2)
H8 H 0.762(3) 0.369(2) 0.415(2)
H9 H 0.663(3) 0.329(3) 0.415(2)
O1D O 0.2892(4) 0.6673(3) -0.3826(3)
Cu1D Cu 0.25153(3) 0.75491(2) -0.24296(3)
Cu1G Cu 0.24847(3) 0.25491(2) -0.25704(3)
Cu1C Cu 0.75153(3) -0.25491(2) 0.25704(3)
Cu1C_2 Cu 0.75153(3) 0.74509(2) 0.25704(3)
Cu1A Cu 0.25153(3) 0.24509(2) 0.25704(3)
Cu1B Cu 0.24847(3) -0.25491(2) 0.24296(3)
C1D C 0.3780(3) 0.65684(19) -0.0811(2)
C2D C 0.4463(3) 0.57698(17) -0.0393(2)
C3D C 0.3999(3) 0.49917(17) -0.0782(2)
H1D H 0.3324 0.4985 -0.1314
C4D C 0.5487(3) 0.57786(17) 0.0399(2)
C5D C 0.6090(3) 0.6594(2) 0.0833(2)
C7A C 0.4023(2) 0.09080(17) 0.2586(2)
H2A H 0.3353 0.0621 0.2657
C10A C 0.3991(2) -0.09833(16) 0.2512(2)
H3A H 0.3294 -0.0696 0.2526
O4D O 0.35430(18) 0.66538(12) -0.16942(14)
O5D O 0.3455(5) 0.7053(3) -0.0300(3)
O6D O 0.65254(18) 0.65942(12) 0.17200(15)
O6G O 0.84746(18) 0.15942(12) 0.32800(15)
O6C O 0.15254(18) 0.84058(12) -0.32800(15)
O7D O 0.6111(5) 0.7198(2) 0.0312(3)
O8D O 0.2106(3) 0.84551(19) -0.1304(2)
N1A N 0.4014(2) 0.17614(14) 0.25681(19)
N1D N 0.4014(2) 0.82386(14) -0.24319(19)
N2A N 0.3986(2) -0.18372(14) 0.25051(18)
N2C N 0.8986(2) 0.31628(14) 0.25051(18)
N2G N 0.1014(2) 0.68372(14) -0.25051(18)
H6D H 0.270(2) 0.870(2) -0.095(2)
H7D H 0.178(3) 0.825(2) -0.091(2)
H8D H 0.238(3) 0.631(2) -0.415(2)
H9D H 0.337(3) 0.671(3) -0.415(2)
O2 O 0.6421(6) 0.4905(3) 0.3096(4)
H10 H 0.657(3) 0.5243(11) 0.3537(17)
H11 H 0.570(2) 0.4904(15) 0.283(3)
O3 O 0.5340(9) 0.1224(4) -0.0159(7)
H12 H 0.5665 0.0763 -0.0126
H13 H 0.5624 0.1563 -0.0428
H14 H 0.3006 0.0390 -0.0134
H15 H 0.4129 0.0673 0.0202
O9 O 0.3623(11) 0.0351(11) 0.0319(10)
loop_
_geom_bond_atom_site_label_1
_geom_bond_atom_site_label_2
_geom_bond_site_symmetry_1
_geom_bond_site_symmetry_2
O1 Cu1 1_555 1_555
O2 H10 1_555 1_555
O3 H12 1_555 1_555
Cu1 O4 1_555 1_555
C1 C2 1_555 1_555
C2 C3 1_555 1_555
C3 H1 1_555 1_555
C4 C2 1_555 1_555
C5 C4 1_555 1_555
C6 N1 1_555 1_555
C7 H2 1_555 1_555
C8 C7 1_555 1_555
C9 C8 1_555 1_555
C10 C9 1_555 1_555
H3 C10 1_555 1_555
C11 N2 1_555 1_555
O4 C1 1_555 1_555
O5 C1 1_555 1_555
O6 C5 1_555 1_555
O7 C5 1_555 1_555
O8 Cu1 1_555 1_555
N1 Cu1 1_555 1_555
N2 C10 1_555 1_555
H4 C11 1_555 1_555
H5 C6 1_555 1_555
H6 O8 1_555 1_555
H7 O8 1_555 1_555
H8 O1 1_555 1_555
H9 O1 1_555 1_555
H11 O2 1_555 1_555
H13 O3 1_555 1_555
H14 O9 1_555 1_555
H15 O9 1_555 1_555
O1D Cu1D 1_555 1_555
Cu1D O4D 1_555 1_555
Cu1G O6 1_555 1_555
Cu1C N2 1_555 1_555
Cu1C_2 O6D 1_555 1_555
Cu1A N1A 1_555 1_555
Cu1B N2A 1_555 1_555
C1D C2D 1_555 1_555
C2D C3D 1_555 1_555
C3D C4 1_555 1_555
H1D C3D 1_555 1_555
C4D C3 1_555 1_555
C5D C4D 1_555 1_555
C7A C8 1_555 1_555
H2A C7A 1_555 1_555
C10A C9 1_555 1_555
H3A C10A 1_555 1_555
O4D C1D 1_555 1_555
O5D C1D 1_555 1_555
O6D C5D 1_555 1_555
O6G Cu1 1_555 1_555
O6C Cu1D 1_555 1_555
O7D C5D 1_555 1_555
O8D Cu1D 1_555 1_555
N1A C6 1_555 1_555
N1D Cu1D 1_555 1_555
N2A C11 1_555 1_555
N2C Cu1 1_555 1_555
N2G Cu1D 1_555 1_555
H6D O8D 1_555 1_555
H7D O8D 1_555 1_555
H8D O1D 1_555 1_555
H9D O1D 1_555 1_555
C7 N1 1_555 1_555
C2D C4D 1_555 1_555
C7A N1A 1_555 1_555
C10A N2A 1_555 1_555

#END
