
#######################################################################
#
#                 Cambridge Crystallographic Data Centre
#                                CCDC 
#
#######################################################################
#
# If this CIF has been generated from an entry in the Cambridge 
# Structural Database, then it will include bibliographic, chemical, 
# crystal, experimental, refinement or atomic coordinate data resulting 
# from the CCDC's data processing and validation procedures.
#
#######################################################################

data_XAKZAL
_symmetry_cell_setting           tetragonal
_symmetry_space_group_name_H-M   'I 41/a'
_symmetry_Int_Tables_number      88
_space_group_name_Hall           '-I 4ad'
loop_
_symmetry_equiv_pos_site_id
_symmetry_equiv_pos_as_xyz
1 x,y,z
2 3/4-y,1/4+x,1/4+z
3 1/2+x,1/2+y,1/2+z
4 1/4-y,3/4+x,3/4+z
5 1/4+y,1/4-x,1/4+z
6 1/2-x,-y,1/2+z
7 3/4+y,3/4-x,3/4+z
8 -x,1/2-y,z
9 -x,-y,-z
10 1/4+y,3/4-x,3/4-z
11 1/2-x,1/2-y,1/2-z
12 3/4+y,1/4-x,1/4-z
13 3/4-y,3/4+x,3/4-z
14 1/2+x,y,1/2-z
15 1/4-y,1/4+x,1/4-z
16 x,1/2+y,-z
_cell_length_a                   40.6959(6)
_cell_length_b                   40.6959(6)
_cell_length_c                   17.4726(3)
_cell_angle_alpha                90
_cell_angle_beta                 90
_cell_angle_gamma                90
_cell_volume                     28937.4
loop_
_atom_site_label
_atom_site_type_symbol
_atom_site_fract_x
_atom_site_fract_y
_atom_site_fract_z
Mn1 Mn 0.719849(13) 0.363430(13) 0.27486(3)
O1 O 0.74215(6) 0.39893(6) 0.31532(15)
O2 O 0.79753(6) 0.36812(6) 0.12214(15)
O3 O 0.70200(6) 0.32616(6) 0.22129(15)
N1 N 0.75440(7) 0.35666(7) 0.20014(17)
N2 N 0.74979(7) 0.32861(7) 0.15391(18)
N3 N 0.69183(8) 0.39650(8) 0.19155(19)
C1 C 0.76648(9) 0.41615(9) 0.2843(2)
C2 C 0.78478(9) 0.40648(8) 0.2200(2)
C3 C 0.80982(9) 0.42728(9) 0.1941(2)
H1 H 0.8223 0.4209 0.1505
C4 C 0.81700(10) 0.45643(10) 0.2293(3)
H2 H 0.8341 0.4701 0.2105
C5 C 0.79902(11) 0.46553(11) 0.2925(3)
H3 H 0.8038 0.4858 0.3172
C6 C 0.77438(11) 0.44595(10) 0.3203(3)
H4 H 0.7625 0.4526 0.3644
C7 C 0.77892(9) 0.37563(8) 0.1785(2)
C8 C 0.72181(9) 0.31508(9) 0.1692(2)
C9 C 0.71022(10) 0.28638(10) 0.1229(3)
H5 H 0.7027 0.2687 0.1576
H6 H 0.7287 0.2777 0.0920
C10 C 0.68177(18) 0.29647(17) 0.0692(5)
H7 H 0.6647 0.3080 0.0995
H8 H 0.6902 0.3120 0.0304
C11 C 0.6664(3) 0.2676(3) 0.0293(6)
H9 H 0.6746 0.2476 0.0552
H10 H 0.6425 0.2687 0.0393
C12 C 0.6696(5) 0.2635(3) -0.0352(7)
H11 H 0.6933 0.2600 -0.0446
H12 H 0.6636 0.2843 -0.0610
C13 C 0.6507(3) 0.2351(2) -0.0771(7)
H13 H 0.6438 0.2186 -0.0395
H14 H 0.6652 0.2249 -0.1150
H15 H 0.6313 0.2442 -0.1028
C14 C 0.67162(10) 0.41988(11) 0.2147(3)
H16 H 0.6695 0.4236 0.2681
C15 C 0.65363(11) 0.43904(11) 0.1658(3)
H17 H 0.6395 0.4557 0.1853
C16 C 0.65607(13) 0.43411(13) 0.0888(3)
C17 C 0.67750(13) 0.41014(14) 0.0638(3)
H18 H 0.6803 0.4062 0.0106
C18 C 0.69472(12) 0.39204(12) 0.1163(3)
H19 H 0.7094 0.3756 0.0983
C19 C 0.63502(18) 0.45426(19) 0.0337(3)
H20 H 0.6118 0.4478 0.0417
H21 H 0.6370 0.4776 0.0487
Mn2 Mn 0.790188(13) 0.326508(13) 0.06701(3)
O4 O 0.76260(7) 0.34401(6) -0.00726(17)
O5 O 0.77543(6) 0.24428(6) -0.06742(14)
O6 O 0.83494(7) 0.33843(7) -0.00089(17)
O7 O 0.81661(6) 0.30116(6) 0.13721(15)
N4 N 0.78602(7) 0.28350(7) 0.02097(17)
N5 N 0.80141(7) 0.25795(7) 0.06263(17)
N6 N 0.88894(9) 0.34981(10) -0.0109(3)
C20 C 0.75030(9) 0.33047(10) -0.0700(2)
C21 C 0.75582(9) 0.29791(10) -0.0924(2)
C22 C 0.74326(12) 0.28663(12) -0.1615(3)
H22 H 0.7476 0.2647 -0.1773
C23 C 0.72457(13) 0.30696(15) -0.2075(3)
H23 H 0.7163 0.2993 -0.2550
C24 C 0.71823(12) 0.33807(14) -0.1835(3)
H24 H 0.7052 0.3521 -0.2147
C25 C 0.73018(11) 0.34971(12) -0.1156(3)
H25 H 0.7246 0.3713 -0.0995
C26 C 0.77352(9) 0.27397(9) -0.0447(2)
C27 C 0.81612(9) 0.26987(9) 0.1223(2)
C28 C 0.83323(10) 0.24737(10) 0.1769(2)
H26 H 0.8307 0.2244 0.1591
H27 H 0.8227 0.2491 0.2279
C29 C 0.86943(12) 0.25538(11) 0.1843(3)
H28 H 0.8791 0.2418 0.2256
H29 H 0.8719 0.2787 0.1991
C30 C 0.88827(12) 0.24933(14) 0.1108(4)
H30 H 0.8845 0.2264 0.0943
H31 H 0.8795 0.2639 0.0705
C31 C 0.92447(15) 0.2551(2) 0.1181(6)
H32 H 0.9334 0.2402 0.1578
H33 H 0.9283 0.2780 0.1352
C32 C 0.94262(18) 0.2494(2) 0.0444(6)
H34 H 0.9396 0.2266 0.0280
H35 H 0.9661 0.2537 0.0521
H36 H 0.9341 0.2642 0.0049
C33 C 0.86216(11) 0.33971(10) 0.0261(3)
H37 H 0.8647 0.3330 0.0778
C34 C 0.88774(16) 0.36093(16) -0.0890(4)
H38 H 0.8650 0.3602 -0.1074
H39 H 0.9015 0.3467 -0.1208
H40 H 0.8959 0.3836 -0.0919
C35 C 0.92025(13) 0.35235(19) 0.0261(5)
H41 H 0.9274 0.3753 0.0260
H42 H 0.9364 0.3389 -0.0014
H43 H 0.9184 0.3446 0.0790
Mn3 Mn 0.712100(13) 0.290300(13) 0.49333(3)
O8 O 0.67037(6) 0.29853(6) 0.53193(16)
O9 O 0.68288(6) 0.36545(6) 0.34859(15)
O10 O 0.75383(6) 0.28739(6) 0.44191(14)
N7 N 0.70632(7) 0.32428(7) 0.41671(17)
N8 N 0.73353(7) 0.32830(7) 0.36780(17)
N9 N 0.57466(9) 0.51217(8) -0.17280(19)
C36 C 0.64951(9) 0.32261(9) 0.5153(2)
C37 C 0.65370(9) 0.34515(9) 0.4560(2)
C38 C 0.63008(9) 0.36962(10) 0.4455(3)
H44 H 0.6329 0.3850 0.4052
C39 C 0.60317(10) 0.37209(11) 0.4909(3)
H45 H 0.5877 0.3893 0.4833
C40 C 0.59848(11) 0.34931(12) 0.5483(3)
H46 H 0.5793 0.3504 0.5793
C41 C 0.62134(11) 0.32496(11) 0.5608(3)
H47 H 0.6179 0.3096 0.6009
C42 C 0.68221(8) 0.34502(8) 0.4046(2)
C43 C 0.75680(9) 0.30839(9) 0.3865(2)
C44 C 0.78920(9) 0.30973(11) 0.3472(2)
H48 H 0.7959 0.2873 0.3319
H49 H 0.7873 0.3232 0.3002
C45 C 0.81560(11) 0.32461(14) 0.4000(3)
H50 H 0.8374 0.3219 0.3757
H51 H 0.8158 0.3123 0.4489
C46 C 0.81002(15) 0.36046(14) 0.4167(4)
H52 H 0.8100 0.3726 0.3676
H53 H 0.7880 0.3630 0.4398
C47 C 0.83521(17) 0.3761(2) 0.4698(5)
H54 H 0.8574 0.3729 0.4480
H55 H 0.8345 0.3647 0.5199
C48 C 0.8297(3) 0.4120(2) 0.4824(7)
H56 H 0.8062 0.4161 0.4911
H57 H 0.8422 0.4193 0.5272
H58 H 0.8370 0.4243 0.4372
C49 C 0.56648(12) 0.48250(13) -0.1479(3)
H59 H 0.5453 0.4742 -0.1598
C50 C 0.58725(14) 0.46334(14) -0.1060(3)
H60 H 0.5801 0.4424 -0.0883
C51 C 0.61841(16) 0.47414(13) -0.0893(3)
C52 C 0.62602(16) 0.50503(13) -0.1120(3)
H61 H 0.6467 0.5142 -0.0985
C53 C 0.60433(13) 0.52303(11) -0.1541(3)
H62 H 0.6107 0.5443 -0.1708
C54 C 0.64161(19) 0.45210(15) -0.0450(4)
H63 H 0.6646 0.4588 -0.0550
H64 H 0.6389 0.4291 -0.0622
O5J O 0.72457(6) 0.25572(6) 0.56742(14)
N5J N 0.69859(7) 0.24205(7) 0.43737(17)
Mn3J Mn 0.787900(13) 0.209700(13) 0.00667(3)
Mn3D Mn 0.540300(13) 0.537900(13) -0.25667(3)
N9C N 0.73783(8) 0.32466(9) 0.57720(19)
loop_
_geom_bond_atom_site_label_1
_geom_bond_atom_site_label_2
_geom_bond_site_symmetry_1
_geom_bond_site_symmetry_2
Mn1 O1 1_555 1_555
O1 C1 1_555 1_555
O2 C7 1_555 1_555
O3 Mn1 1_555 1_555
N1 Mn1 1_555 1_555
N2 N1 1_555 1_555
N3 Mn1 1_555 1_555
C1 C2 1_555 1_555
C2 C3 1_555 1_555
C3 H1 1_555 1_555
C4 C3 1_555 1_555
H2 C4 1_555 1_555
C5 C4 1_555 1_555
H3 C5 1_555 1_555
C6 C1 1_555 1_555
H4 C6 1_555 1_555
C7 N1 1_555 1_555
C8 O3 1_555 1_555
C9 C8 1_555 1_555
H5 C9 1_555 1_555
H6 C9 1_555 1_555
C10 C9 1_555 1_555
H7 C10 1_555 1_555
H8 C10 1_555 1_555
C11 C10 1_555 1_555
H9 C11 1_555 1_555
H10 C11 1_555 1_555
C12 C11 1_555 1_555
H11 C12 1_555 1_555
H12 C12 1_555 1_555
C13 C12 1_555 1_555
H13 C13 1_555 1_555
H14 C13 1_555 1_555
H15 C13 1_555 1_555
C14 N3 1_555 1_555
H16 C14 1_555 1_555
C15 C14 1_555 1_555
H17 C15 1_555 1_555
C16 C15 1_555 1_555
C17 C16 1_555 1_555
H18 C17 1_555 1_555
C18 N3 1_555 1_555
H19 C18 1_555 1_555
C19 C16 1_555 1_555
H20 C19 1_555 1_555
H21 C19 1_555 1_555
Mn2 O2 1_555 1_555
O4 Mn2 1_555 1_555
O5 C26 1_555 1_555
O6 Mn2 1_555 1_555
O7 Mn2 1_555 1_555
N4 Mn2 1_555 1_555
N5 N4 1_555 1_555
N6 C33 1_555 1_555
C20 O4 1_555 1_555
C21 C20 1_555 1_555
C22 C21 1_555 1_555
H22 C22 1_555 1_555
C23 C22 1_555 1_555
H23 C23 1_555 1_555
C24 C23 1_555 1_555
H24 C24 1_555 1_555
C25 C20 1_555 1_555
H25 C25 1_555 1_555
C26 N4 1_555 1_555
C27 O7 1_555 1_555
C28 C27 1_555 1_555
H26 C28 1_555 1_555
H27 C28 1_555 1_555
C29 C28 1_555 1_555
H28 C29 1_555 1_555
H29 C29 1_555 1_555
C30 C29 1_555 1_555
H30 C30 1_555 1_555
H31 C30 1_555 1_555
C31 C30 1_555 1_555
H32 C31 1_555 1_555
H33 C31 1_555 1_555
C32 C31 1_555 1_555
H34 C32 1_555 1_555
H35 C32 1_555 1_555
H36 C32 1_555 1_555
C33 O6 1_555 1_555
H37 C33 1_555 1_555
C34 N6 1_555 1_555
H38 C34 1_555 1_555
H39 C34 1_555 1_555
H40 C34 1_555 1_555
C35 N6 1_555 1_555
H41 C35 1_555 1_555
H42 C35 1_555 1_555
H43 C35 1_555 1_555
Mn3 O8 1_555 1_555
O8 C36 1_555 1_555
O9 Mn1 1_555 1_555
O10 Mn3 1_555 1_555
N7 Mn3 1_555 1_555
N8 Mn1 1_555 1_555
N9 C49 1_555 1_555
C36 C37 1_555 1_555
C37 C38 1_555 1_555
C38 H44 1_555 1_555
C39 C38 1_555 1_555
H45 C39 1_555 1_555
C40 C39 1_555 1_555
H46 C40 1_555 1_555
C41 C36 1_555 1_555
H47 C41 1_555 1_555
C42 O9 1_555 1_555
C43 O10 1_555 1_555
C44 C43 1_555 1_555
H48 C44 1_555 1_555
H49 C44 1_555 1_555
C45 C44 1_555 1_555
H50 C45 1_555 1_555
H51 C45 1_555 1_555
C46 C45 1_555 1_555
H52 C46 1_555 1_555
H53 C46 1_555 1_555
C47 C46 1_555 1_555
H54 C47 1_555 1_555
H55 C47 1_555 1_555
C48 C47 1_555 1_555
H56 C48 1_555 1_555
H57 C48 1_555 1_555
H58 C48 1_555 1_555
C49 H59 1_555 1_555
C50 C49 1_555 1_555
H60 C50 1_555 1_555
C51 C50 1_555 1_555
C52 C51 1_555 1_555
H61 C52 1_555 1_555
C53 N9 1_555 1_555
H62 C53 1_555 1_555
C54 C19 1_555 1_555
H63 C54 1_555 1_555
H64 C54 1_555 1_555
O5J Mn3 1_555 1_555
N5J Mn3 1_555 1_555
Mn3J O5 1_555 1_555
Mn3D N9 1_555 1_555
N9C Mn3 1_555 1_555
N2 C8 1_555 1_555
N2 Mn2 1_555 1_555
C2 C7 1_555 1_555
C5 C6 1_555 1_555
C17 C18 1_555 1_555
N5 C27 1_555 1_555
N5 Mn3J 1_555 1_555
C21 C26 1_555 1_555
C24 C25 1_555 1_555
N7 N8 1_555 1_555
N7 C42 1_555 1_555
N8 C43 1_555 1_555
C37 C42 1_555 1_555
C40 C41 1_555 1_555
C51 C54 1_555 1_555
C52 C53 1_555 1_555

#END
