
#######################################################################
#
#                 Cambridge Crystallographic Data Centre
#                                CCDC 
#
#######################################################################
#
# If this CIF has been generated from an entry in the Cambridge 
# Structural Database, then it will include bibliographic, chemical, 
# crystal, experimental, refinement or atomic coordinate data resulting 
# from the CCDC's data processing and validation procedures.
#
#######################################################################

data_XALCUJ
_symmetry_cell_setting           tetragonal
_symmetry_space_group_name_H-M   'I 41/a'
_symmetry_Int_Tables_number      88
_space_group_name_Hall           '-I 4ad'
loop_
_symmetry_equiv_pos_site_id
_symmetry_equiv_pos_as_xyz
1 x,y,z
2 3/4-y,1/4+x,1/4+z
3 1/2+x,1/2+y,1/2+z
4 1/4-y,3/4+x,3/4+z
5 1/4+y,1/4-x,1/4+z
6 1/2-x,-y,1/2+z
7 3/4+y,3/4-x,3/4+z
8 -x,1/2-y,z
9 -x,-y,-z
10 1/4+y,3/4-x,3/4-z
11 1/2-x,1/2-y,1/2-z
12 3/4+y,1/4-x,1/4-z
13 3/4-y,3/4+x,3/4-z
14 1/2+x,y,1/2-z
15 1/4-y,1/4+x,1/4-z
16 x,1/2+y,-z
_cell_length_a                   40.852(2)
_cell_length_b                   40.852(2)
_cell_length_c                   17.4393(12)
_cell_angle_alpha                90
_cell_angle_beta                 90
_cell_angle_gamma                90
_cell_volume                     29104.2
loop_
_atom_site_label
_atom_site_type_symbol
_atom_site_fract_x
_atom_site_fract_y
_atom_site_fract_z
Mn1 Mn 0.220096(14) 0.863435(15) 0.27463(4)
O2 O 0.24202(7) 0.89891(6) 0.31533(17)
O3 O 0.29815(7) 0.86826(6) 0.12160(17)
O4 O 0.20236(6) 0.82631(6) 0.22063(17)
N2 N 0.25473(8) 0.85679(7) 0.20011(19)
N3 N 0.25052(8) 0.82854(8) 0.1528(2)
N4 N 0.19231(8) 0.89592(8) 0.1900(2)
C4 C 0.26682(10) 0.91641(10) 0.2853(3)
C5 C 0.27435(11) 0.94610(11) 0.3204(3)
H8 H 0.2625 0.9526 0.3634
C6 C 0.29873(12) 0.96595(11) 0.2933(3)
H9 H 0.3032 0.9857 0.3177
C7 C 0.31679(11) 0.95668(11) 0.2296(3)
H10 H 0.3333 0.9701 0.2106
C8 C 0.30978(10) 0.92744(10) 0.1952(3)
H11 H 0.3221 0.9210 0.1530
C9 C 0.28504(9) 0.90703(9) 0.2205(2)
C10 C 0.27942(10) 0.87597(9) 0.1783(2)
C11 C 0.22235(10) 0.81480(10) 0.1687(3)
C12 C 0.21123(11) 0.78614(11) 0.1220(3)
H12 H 0.2028 0.7693 0.1558
H13 H 0.2298 0.7771 0.0944
C13 C 0.18429(15) 0.79616(14) 0.0638(4)
H14 H 0.1672 0.8082 0.0902
H15 H 0.1936 0.8103 0.0249
C14 C 0.1698(3) 0.7661(3) 0.0262(6)
H16 H 0.1841 0.7477 0.0375
H17 H 0.1489 0.7616 0.0505
C15 C 0.1658(5) 0.7666(3) -0.0368(8)
H18 H 0.1870 0.7688 -0.0609
H19 H 0.1537 0.7864 -0.0483
C16 C 0.1467(3) 0.7361(3) -0.0789(8)
H20 H 0.1327 0.7254 -0.0426
H21 H 0.1625 0.7208 -0.0982
H22 H 0.1338 0.7444 -0.1207
C17 C 0.19523(12) 0.89146(12) 0.1146(3)
H23 H 0.2098 0.8756 0.0972
C18 C 0.17790(13) 0.90900(13) 0.0617(3)
H24 H 0.1802 0.9046 0.0096
C19 C 0.15656(14) 0.93384(15) 0.0867(3)
C20 C 0.15423(12) 0.93905(12) 0.1638(3)
H25 H 0.1407 0.9556 0.1824
C21 C 0.17185(10) 0.91985(11) 0.2142(3)
H26 H 0.1696 0.9235 0.2666
C22 C 0.1357(2) 0.95450(19) 0.0317(4)
H27 H 0.1129 0.9495 0.0415
H28 H 0.1390 0.9774 0.0446
Mn2 Mn 0.290901(15) 0.826842(14) 0.06611(4)
O5 O 0.26362(7) 0.84465(7) -0.00868(19)
O6 O 0.27544(7) 0.74446(7) -0.06844(16)
O7 O 0.31738(6) 0.80171(6) 0.13671(16)
O8 O 0.33597(8) 0.83877(7) -0.00192(19)
N5 N 0.28653(7) 0.78387(7) 0.0201(2)
N6 N 0.30222(8) 0.75838(7) 0.0616(2)
N7 N 0.39042(10) 0.84949(11) -0.0082(3)
C23 C 0.25067(10) 0.83107(11) -0.0706(3)
C24 C 0.23075(12) 0.85077(13) -0.1165(3)
H29 H 0.2260 0.8721 -0.1013
C25 C 0.21805(13) 0.83884(16) -0.1840(4)
H30 H 0.2053 0.8526 -0.2140
C26 C 0.22358(14) 0.80656(15) -0.2094(3)
H31 H 0.2152 0.7989 -0.2557
C27 C 0.24214(12) 0.78684(12) -0.1620(3)
H32 H 0.2457 0.7652 -0.1765
C28 C 0.25583(10) 0.79792(11) -0.0929(3)
C29 C 0.27345(10) 0.77442(10) -0.0455(3)
C30 C 0.31688(10) 0.77025(10) 0.1214(3)
C31 C 0.33442(11) 0.74764(10) 0.1766(3)
H33 H 0.3246 0.7496 0.2270
H34 H 0.3317 0.7252 0.1597
C32 C 0.37059(12) 0.75536(11) 0.1822(3)
H35 H 0.3802 0.7419 0.2221
H36 H 0.3732 0.7781 0.1971
C33 C 0.38894(12) 0.74951(14) 0.1075(4)
H37 H 0.3805 0.7642 0.0686
H38 H 0.3849 0.7273 0.0905
C34 C 0.42596(15) 0.75478(17) 0.1153(5)
H39 H 0.4301 0.7771 0.1315
H40 H 0.4344 0.7403 0.1545
C35 C 0.44398(17) 0.7484(2) 0.0402(5)
H41 H 0.4355 0.7626 0.0010
H42 H 0.4409 0.7260 0.0252
H43 H 0.4669 0.7526 0.0471
C36 C 0.36331(13) 0.83930(11) 0.0257(3)
H44 H 0.3654 0.8318 0.0758
C37 C 0.38952(16) 0.86174(16) -0.0840(5)
H45 H 0.4022 0.8478 -0.1169
H46 H 0.3985 0.8835 -0.0850
H47 H 0.3673 0.8623 -0.1017
C38 C 0.42158(13) 0.85086(18) 0.0287(5)
H48 H 0.4286 0.8732 0.0324
H49 H 0.4372 0.8387 -0.0008
H50 H 0.4199 0.8416 0.0791
Mn3 Mn 0.211950(15) 0.789940(14) 0.49348(4)
O9 O 0.17037(7) 0.79840(7) 0.53259(17)
O10 O 0.18311(6) 0.86517(6) 0.34803(16)
O11 O 0.25360(6) 0.78676(6) 0.44098(16)
N8 N 0.20624(8) 0.82394(8) 0.41669(19)
N9 N 0.23360(8) 0.82810(8) 0.3677(2)
N10 N 0.07417(10) 1.01176(9) -0.1729(2)
C39 C 0.14968(10) 0.82244(10) 0.5153(3)
C40 C 0.12156(12) 0.82477(11) 0.5616(3)
H51 H 0.1183 0.8097 0.6007
C41 C 0.09864(13) 0.84924(13) 0.5496(3)
H52 H 0.0803 0.8505 0.5810
C42 C 0.10290(11) 0.87191(12) 0.4911(3)
H53 H 0.0877 0.8885 0.4832
C43 C 0.13017(10) 0.86929(10) 0.4452(3)
H54 H 0.1331 0.8844 0.4059
C44 C 0.15382(10) 0.84464(9) 0.4554(2)
C45 C 0.18229(10) 0.84461(9) 0.4036(2)
C46 C 0.25671(10) 0.80808(10) 0.3862(2)
C47 C 0.28940(10) 0.80941(11) 0.3465(3)
H55 H 0.2959 0.7875 0.3315
H56 H 0.2876 0.8226 0.3005
C48 C 0.31549(11) 0.82398(14) 0.3989(3)
H57 H 0.3368 0.8212 0.3752
H58 H 0.3156 0.8121 0.4470
C49 C 0.31013(14) 0.86011(14) 0.4154(4)
H59 H 0.3097 0.8718 0.3670
H60 H 0.2888 0.8627 0.4391
C50 C 0.33582(15) 0.87600(17) 0.4672(4)
H61 H 0.3572 0.8731 0.4442
H62 H 0.3359 0.8648 0.5162
C51 C 0.3302(2) 0.9119(2) 0.4808(6)
H63 H 0.3074 0.9158 0.4894
H64 H 0.3425 0.9188 0.5250
H65 H 0.3373 0.9241 0.4368
C52 C 0.06587(14) 0.98199(13) -0.1502(3)
H66 H 0.0453 0.9741 -0.1632
C53 C 0.08641(15) 0.96225(16) -0.1084(4)
H67 H 0.0793 0.9418 -0.0920
C54 C 0.11774(17) 0.97277(15) -0.0906(4)
C55 C 0.12551(17) 1.00363(13) -0.1132(3)
H68 H 0.1458 1.0122 -0.1002
C56 C 0.10394(13) 1.02242(12) -0.1548(3)
H69 H 0.1104 1.0432 -0.1708
C57 C 0.1411(2) 0.95100(16) -0.0465(4)
H70 H 0.1635 0.9570 -0.0586
H71 H 0.1378 0.9284 -0.0614
O6J O 0.22456(7) 0.75554(7) 0.56844(16)
N6J N 0.19778(8) 0.74162(7) 0.4384(2)
Mn3J Mn 0.288050(15) 0.710060(14) 0.00652(4)
Mn3D Mn 0.039940(14) 1.038050(15) -0.25652(4)
N10C N 0.23824(9) 0.82417(10) 0.5771(2)
O1 O 0.4068(5) 0.7438(5) 0.7428(14)
N1 N 0.3663(4) 0.7601(3) 0.8366(9)
C1 C 0.4029(6) 0.7717(7) 0.8146(16)
H1 H 0.4168 0.7877 0.8341
C2 C 0.3346(4) 0.7484(4) 0.7903(8)
H2 H 0.3219 0.7340 0.8218
H3 H 0.3413 0.7371 0.7446
H4 H 0.3217 0.7671 0.7765
C3 C 0.3581(5) 0.7789(3) 0.8736(13)
H5 H 0.3438 0.7934 0.8459
H6 H 0.3765 0.7909 0.8928
H7 H 0.3463 0.7693 0.9157
loop_
_geom_bond_atom_site_label_1
_geom_bond_atom_site_label_2
_geom_bond_site_symmetry_1
_geom_bond_site_symmetry_2
O1 C1 1_555 1_555
N1 C1 1_555 1_555
C1 H1 1_555 1_555
C2 N1 1_555 1_555
H2 C2 1_555 1_555
H3 C2 1_555 1_555
H4 C2 1_555 1_555
C3 N1 1_555 1_555
H5 C3 1_555 1_555
H6 C3 1_555 1_555
H7 C3 1_555 1_555
Mn1 O2 1_555 1_555
O2 C4 1_555 1_555
O3 C10 1_555 1_555
O4 Mn1 1_555 1_555
N2 Mn1 1_555 1_555
N3 N2 1_555 1_555
N4 Mn1 1_555 1_555
C4 C5 1_555 1_555
C5 H8 1_555 1_555
C6 C5 1_555 1_555
H9 C6 1_555 1_555
C7 C6 1_555 1_555
H10 C7 1_555 1_555
C8 C7 1_555 1_555
H11 C8 1_555 1_555
C9 C4 1_555 1_555
C10 N2 1_555 1_555
C11 O4 1_555 1_555
C12 C11 1_555 1_555
H12 C12 1_555 1_555
H13 C12 1_555 1_555
C13 C12 1_555 1_555
H14 C13 1_555 1_555
H15 C13 1_555 1_555
C14 C13 1_555 1_555
H16 C14 1_555 1_555
H17 C14 1_555 1_555
C15 C14 1_555 1_555
H18 C15 1_555 1_555
H19 C15 1_555 1_555
C16 C15 1_555 1_555
H20 C16 1_555 1_555
H21 C16 1_555 1_555
H22 C16 1_555 1_555
C17 N4 1_555 1_555
H23 C17 1_555 1_555
C18 C17 1_555 1_555
H24 C18 1_555 1_555
C19 C18 1_555 1_555
C20 C19 1_555 1_555
H25 C20 1_555 1_555
C21 N4 1_555 1_555
H26 C21 1_555 1_555
C22 C19 1_555 1_555
H27 C22 1_555 1_555
H28 C22 1_555 1_555
Mn2 O3 1_555 1_555
O5 Mn2 1_555 1_555
O6 C29 1_555 1_555
O7 Mn2 1_555 1_555
O8 Mn2 1_555 1_555
N5 Mn2 1_555 1_555
N6 N5 1_555 1_555
N7 C36 1_555 1_555
C23 O5 1_555 1_555
C24 C23 1_555 1_555
H29 C24 1_555 1_555
C25 C24 1_555 1_555
H30 C25 1_555 1_555
C26 C25 1_555 1_555
H31 C26 1_555 1_555
C27 C26 1_555 1_555
H32 C27 1_555 1_555
C28 C23 1_555 1_555
C29 N5 1_555 1_555
C30 O7 1_555 1_555
C31 C30 1_555 1_555
H33 C31 1_555 1_555
H34 C31 1_555 1_555
C32 C31 1_555 1_555
H35 C32 1_555 1_555
H36 C32 1_555 1_555
C33 C32 1_555 1_555
H37 C33 1_555 1_555
H38 C33 1_555 1_555
C34 C33 1_555 1_555
H39 C34 1_555 1_555
H40 C34 1_555 1_555
C35 C34 1_555 1_555
H41 C35 1_555 1_555
H42 C35 1_555 1_555
H43 C35 1_555 1_555
C36 O8 1_555 1_555
H44 C36 1_555 1_555
C37 N7 1_555 1_555
H45 C37 1_555 1_555
H46 C37 1_555 1_555
H47 C37 1_555 1_555
C38 N7 1_555 1_555
H48 C38 1_555 1_555
H49 C38 1_555 1_555
H50 C38 1_555 1_555
Mn3 O9 1_555 1_555
O9 C39 1_555 1_555
O10 Mn1 1_555 1_555
O11 Mn3 1_555 1_555
N8 Mn3 1_555 1_555
N9 Mn1 1_555 1_555
N10 C52 1_555 1_555
C39 C40 1_555 1_555
C40 H51 1_555 1_555
C41 C40 1_555 1_555
H52 C41 1_555 1_555
C42 C41 1_555 1_555
H53 C42 1_555 1_555
C43 C42 1_555 1_555
H54 C43 1_555 1_555
C44 C39 1_555 1_555
C45 O10 1_555 1_555
C46 O11 1_555 1_555
C47 C46 1_555 1_555
H55 C47 1_555 1_555
H56 C47 1_555 1_555
C48 C47 1_555 1_555
H57 C48 1_555 1_555
H58 C48 1_555 1_555
C49 C48 1_555 1_555
H59 C49 1_555 1_555
H60 C49 1_555 1_555
C50 C49 1_555 1_555
H61 C50 1_555 1_555
H62 C50 1_555 1_555
C51 C50 1_555 1_555
H63 C51 1_555 1_555
H64 C51 1_555 1_555
H65 C51 1_555 1_555
C52 H66 1_555 1_555
C53 C52 1_555 1_555
H67 C53 1_555 1_555
C54 C53 1_555 1_555
C55 C54 1_555 1_555
H68 C55 1_555 1_555
C56 N10 1_555 1_555
H69 C56 1_555 1_555
C57 C22 1_555 1_555
H70 C57 1_555 1_555
H71 C57 1_555 1_555
O6J Mn3 1_555 1_555
N6J Mn3 1_555 1_555
Mn3J O6 1_555 1_555
Mn3D N10 1_555 1_555
N10C Mn3 1_555 1_555
N3 C11 1_555 1_555
N3 Mn2 1_555 1_555
C8 C9 1_555 1_555
C9 C10 1_555 1_555
C20 C21 1_555 1_555
N6 C30 1_555 1_555
N6 Mn3J 1_555 1_555
C27 C28 1_555 1_555
C28 C29 1_555 1_555
N8 N9 1_555 1_555
N8 C45 1_555 1_555
N9 C46 1_555 1_555
C43 C44 1_555 1_555
C44 C45 1_555 1_555
C54 C57 1_555 1_555
C55 C56 1_555 1_555

#END
