
#######################################################################
#
#                 Cambridge Crystallographic Data Centre
#                                CCDC 
#
#######################################################################
#
# If this CIF has been generated from an entry in the Cambridge 
# Structural Database, then it will include bibliographic, chemical, 
# crystal, experimental, refinement or atomic coordinate data resulting 
# from the CCDC's data processing and validation procedures.
#
#######################################################################

data_XALCET
_symmetry_cell_setting           tetragonal
_symmetry_space_group_name_H-M   'I 41/a'
_symmetry_Int_Tables_number      88
_space_group_name_Hall           '-I 4ad'
loop_
_symmetry_equiv_pos_site_id
_symmetry_equiv_pos_as_xyz
1 x,y,z
2 3/4-y,1/4+x,1/4+z
3 1/2+x,1/2+y,1/2+z
4 1/4-y,3/4+x,3/4+z
5 1/4+y,1/4-x,1/4+z
6 1/2-x,-y,1/2+z
7 3/4+y,3/4-x,3/4+z
8 -x,1/2-y,z
9 -x,-y,-z
10 1/4+y,3/4-x,3/4-z
11 1/2-x,1/2-y,1/2-z
12 3/4+y,1/4-x,1/4-z
13 3/4-y,3/4+x,3/4-z
14 1/2+x,y,1/2-z
15 1/4-y,1/4+x,1/4-z
16 x,1/2+y,-z
_cell_length_a                   40.9493(16)
_cell_length_b                   40.9493(16)
_cell_length_c                   17.2151(10)
_cell_angle_alpha                90
_cell_angle_beta                 90
_cell_angle_gamma                90
_cell_volume                     28867.1
loop_
_atom_site_label
_atom_site_type_symbol
_atom_site_fract_x
_atom_site_fract_y
_atom_site_fract_z
Mn1 Mn 1.074480(13) 0.045727(14) 0.17540(4)
O1 O 1.09453(6) 0.02121(7) 0.25201(18)
O2 O 0.99548(6) 0.02770(7) 0.32011(14)
O3 O 1.04668(6) 0.07038(6) 0.10538(14)
O4 O 1.08697(8) 0.09327(8) 0.2348(2)
N1 N 1.03299(7) 0.04062(7) 0.22735(18)
N2 N 1.00621(7) 0.05601(7) 0.18943(18)
N3 N 1.09097(18) 0.14935(18) 0.2371(5)
C1 C 1.08167(12) 0.00556(11) 0.3126(3)
C2 C 1.10317(13) -0.01455(13) 0.3553(4)
H1 H 1.1251 -0.0171 0.3384
C3 C 1.09285(17) -0.03028(16) 0.4201(4)
H2 H 1.1076 -0.0442 0.4471
C4 C 1.06090(18) -0.02643(16) 0.4482(4)
H3 H 1.0541 -0.0370 0.4946
C5 C 1.03922(12) -0.00665(13) 0.4061(3)
H4 H 1.0176 -0.0036 0.4244
C6 C 1.04923(11) 0.00856(10) 0.3375(2)
C7 C 1.02494(10) 0.02658(10) 0.2935(2)
C8 C 1.01622(9) 0.07003(9) 0.1265(2)
C9 C 0.99188(10) 0.08742(10) 0.0761(2)
H5 H 0.9800 0.0708 0.0456
H6 H 0.9758 0.0982 0.1105
C10 C 1.00415(13) 0.11166(16) 0.0226(4)
H7 H 1.0112 0.1310 0.0516
H8 H 0.9868 0.1178 -0.0140
H9 H 1.0227 0.1026 -0.0062
C11 C 1.0798(2) 0.1185(2) 0.2144(6)
H10 H 1.0634 0.1189 0.1754
C12 C 1.11498(15) 0.15205(18) 0.2860(4)
H11 H 1.1142 0.1339 0.3230
H12 H 1.1130 0.1728 0.3141
H13 H 1.1358 0.1516 0.2578
C13 C 1.0779(3) 0.1822(2) 0.1962(8)
H14 H 1.0803 0.2006 0.2322
H15 H 1.0548 0.1795 0.1825
H16 H 1.0906 0.1864 0.1491
Mn2 Mn 0.959841(14) 0.039268(15) 0.24745(3)
O5 O 0.94956(7) 0.07976(7) 0.28893(15)
O6 O 0.88538(6) 0.06671(6) 0.09776(14)
O7 O 0.96392(6) -0.00181(6) 0.19555(15)
N4 N 0.92555(7) 0.04387(8) 0.17131(17)
N5 N 0.92080(7) 0.01609(7) 0.12474(18)
N6 N 0.92681(9) 0.01263(10) 0.3316(2)
C14 C 0.92723(10) 0.10124(11) 0.2688(3)
C15 C 0.92395(12) 0.12940(13) 0.3134(3)
H17 H 0.9383 0.1325 0.3562
C16 C 0.90119(13) 0.15261(14) 0.2984(3)
H18 H 0.8999 0.1714 0.3305
C17 C 0.87952(11) 0.14906(11) 0.2359(3)
H19 H 0.8633 0.1650 0.2252
C18 C 0.88275(9) 0.12165(10) 0.1908(2)
H20 H 0.8685 0.1191 0.1475
C19 C 0.90546(9) 0.09764(9) 0.2048(2)
C20 C 0.90560(9) 0.06856(9) 0.1547(2)
C21 C 0.94151(10) -0.00635(10) 0.1429(2)
C22 C 0.93927(11) -0.03913(10) 0.1043(3)
H21 H 0.9203 -0.0389 0.0688
H22 H 0.9591 -0.0423 0.0721
C23 C 0.9361(3) -0.06676(18) 0.1554(5)
H23 H 0.9434 -0.0607 0.2077
H24 H 0.9496 -0.0848 0.1360
H25 H 0.9132 -0.0737 0.1574
C24 C 0.93626(12) -0.01615(16) 0.3585(3)
H26 H 0.9574 -0.0238 0.3452
C25 C 0.91638(15) -0.03596(16) 0.4059(3)
H27 H 0.9238 -0.0566 0.4241
C26 C 0.88560(14) -0.02436(18) 0.4252(3)
C27 C 0.87628(13) 0.00281(18) 0.3924(3)
H28 H 0.8545 0.0101 0.3999
C28 C 0.89698(12) 0.02127(14) 0.3472(3)
H29 H 0.8891 0.0413 0.3265
C29 C 0.86213(14) -0.04333(19) 0.4783(4)
H30 H 0.8486 -0.0274 0.5071
H31 H 0.8472 -0.0563 0.4452
Mn3 Mn 1.112420(13) -0.028930(14) -0.02602(3)
O8 O 1.14878(6) -0.00832(7) -0.06545(15)
O9 O 1.11510(6) 0.05255(6) 0.11742(15)
O10 O 1.07373(6) -0.04469(6) 0.02606(16)
N7 N 1.10559(7) 0.00631(7) 0.04736(17)
N8 N 1.07668(7) 0.00391(7) 0.09100(18)
N9 N 0.80871(8) -0.10794(8) 0.6900(2)
C30 C 1.16605(10) 0.01672(10) -0.0352(2)
C31 C 1.19627(11) 0.02348(11) -0.0691(3)
H32 H 1.2035 0.0106 -0.1116
C32 C 1.21528(11) 0.04776(12) -0.0433(3)
H33 H 1.2358 0.0515 -0.0675
C33 C 1.20583(10) 0.06758(10) 0.0178(3)
H34 H 1.2195 0.0847 0.0359
C34 C 1.17601(9) 0.06152(9) 0.0512(2)
H35 H 1.1691 0.0748 0.0933
C35 C 1.15568(9) 0.03681(9) 0.0258(2)
C36 C 1.12377(9) 0.03159(9) 0.0649(2)
C37 C 1.06243(9) -0.02392(10) 0.0767(3)
C38 C 1.03227(11) -0.03306(13) 0.1195(4)
H36 H 1.0230 -0.0136 0.1454
H37 H 1.0158 -0.0417 0.0827
C39 C 1.04131(16) -0.06137(17) 0.1853(4)
H38 H 1.0582 -0.0530 0.2204
H39 H 1.0217 -0.0668 0.2153
H40 H 1.0493 -0.0810 0.1591
C40 C 0.82901(11) -0.08472(12) 0.7128(3)
H41 H 0.8287 -0.0785 0.7660
C41 C 0.85049(14) -0.06911(14) 0.6644(3)
H42 H 0.8648 -0.0527 0.6837
C42 C 0.85092(16) -0.07755(14) 0.5879(3)
C43 C 0.82901(14) -0.10160(14) 0.5625(3)
H43 H 0.8286 -0.1083 0.5097
C44 C 0.80824(12) -0.11518(12) 0.6161(3)
H44 H 0.7927 -0.1307 0.5985
C45 C 0.87599(19) -0.06325(15) 0.5292(3)
H45 H 0.8931 -0.0512 0.5581
H46 H 0.8867 -0.0814 0.5011
O6H O 1.11462(6) -0.06671(6) -0.09776(14)
N5H N 1.07920(7) -0.01609(7) -0.12474(18)
Mn3H Mn 0.887580(13) 0.028930(14) 0.02602(3)
Mn3L Mn 0.778930(14) -0.137580(13) 0.77602(3)
N9I N 1.14206(8) -0.05871(8) 0.0600(2)
loop_
_geom_bond_atom_site_label_1
_geom_bond_atom_site_label_2
_geom_bond_site_symmetry_1
_geom_bond_site_symmetry_2
Mn1 O1 1_555 1_555
O1 C1 1_555 1_555
O2 C7 1_555 1_555
O3 Mn1 1_555 1_555
O4 Mn1 1_555 1_555
N1 Mn1 1_555 1_555
N2 N1 1_555 1_555
N3 C11 1_555 1_555
C1 C2 1_555 1_555
C2 H1 1_555 1_555
C3 C2 1_555 1_555
H2 C3 1_555 1_555
C4 C3 1_555 1_555
H3 C4 1_555 1_555
C5 C4 1_555 1_555
H4 C5 1_555 1_555
C6 C1 1_555 1_555
C7 N1 1_555 1_555
C8 O3 1_555 1_555
C9 C8 1_555 1_555
H5 C9 1_555 1_555
H6 C9 1_555 1_555
C10 C9 1_555 1_555
H7 C10 1_555 1_555
H8 C10 1_555 1_555
H9 C10 1_555 1_555
C11 O4 1_555 1_555
H10 C11 1_555 1_555
C12 N3 1_555 1_555
H11 C12 1_555 1_555
H12 C12 1_555 1_555
H13 C12 1_555 1_555
C13 N3 1_555 1_555
H14 C13 1_555 1_555
H15 C13 1_555 1_555
H16 C13 1_555 1_555
Mn2 O2 1_555 1_555
O5 Mn2 1_555 1_555
O6 C20 1_555 1_555
O7 Mn2 1_555 1_555
N4 Mn2 1_555 1_555
N5 N4 1_555 1_555
N6 Mn2 1_555 1_555
C14 O5 1_555 1_555
C15 C14 1_555 1_555
H17 C15 1_555 1_555
C16 C15 1_555 1_555
H18 C16 1_555 1_555
C17 C16 1_555 1_555
H19 C17 1_555 1_555
C18 C17 1_555 1_555
H20 C18 1_555 1_555
C19 C14 1_555 1_555
C20 N4 1_555 1_555
C21 O7 1_555 1_555
C22 C21 1_555 1_555
H21 C22 1_555 1_555
H22 C22 1_555 1_555
C23 C22 1_555 1_555
H23 C23 1_555 1_555
H24 C23 1_555 1_555
H25 C23 1_555 1_555
C24 N6 1_555 1_555
H26 C24 1_555 1_555
C25 C24 1_555 1_555
H27 C25 1_555 1_555
C26 C25 1_555 1_555
C27 C26 1_555 1_555
H28 C27 1_555 1_555
C28 N6 1_555 1_555
H29 C28 1_555 1_555
C29 C26 1_555 1_555
H30 C29 1_555 1_555
H31 C29 1_555 1_555
Mn3 O8 1_555 1_555
O8 C30 1_555 1_555
O9 Mn1 1_555 1_555
O10 Mn3 1_555 1_555
N7 Mn3 1_555 1_555
N8 Mn1 1_555 1_555
N9 C40 1_555 1_555
C30 C31 1_555 1_555
C31 H32 1_555 1_555
C32 C31 1_555 1_555
H33 C32 1_555 1_555
C33 C32 1_555 1_555
H34 C33 1_555 1_555
C34 C33 1_555 1_555
H35 C34 1_555 1_555
C35 C30 1_555 1_555
C36 O9 1_555 1_555
C37 O10 1_555 1_555
C38 C37 1_555 1_555
H36 C38 1_555 1_555
H37 C38 1_555 1_555
C39 C38 1_555 1_555
H38 C39 1_555 1_555
H39 C39 1_555 1_555
H40 C39 1_555 1_555
C40 H41 1_555 1_555
C41 C40 1_555 1_555
H42 C41 1_555 1_555
C42 C41 1_555 1_555
C43 C42 1_555 1_555
H43 C43 1_555 1_555
C44 N9 1_555 1_555
H44 C44 1_555 1_555
C45 C29 1_555 1_555
H45 C45 1_555 1_555
H46 C45 1_555 1_555
O6H Mn3 1_555 1_555
N5H Mn3 1_555 1_555
Mn3H O6 1_555 1_555
Mn3L N9 1_555 1_555
N9I Mn3 1_555 1_555
N2 C8 1_555 1_555
N2 Mn2 1_555 1_555
C5 C6 1_555 1_555
C6 C7 1_555 1_555
N5 C21 1_555 1_555
N5 Mn3H 1_555 1_555
C18 C19 1_555 1_555
C19 C20 1_555 1_555
C27 C28 1_555 1_555
N7 N8 1_555 1_555
N7 C36 1_555 1_555
N8 C37 1_555 1_555
C34 C35 1_555 1_555
C35 C36 1_555 1_555
C42 C45 1_555 1_555
C43 C44 1_555 1_555

#END
