
#######################################################################
#
#                 Cambridge Crystallographic Data Centre
#                                CCDC 
#
#######################################################################
#
# If this CIF has been generated from an entry in the Cambridge 
# Structural Database, then it will include bibliographic, chemical, 
# crystal, experimental, refinement or atomic coordinate data resulting 
# from the CCDC's data processing and validation procedures.
#
#######################################################################

data_XALDEU
_symmetry_cell_setting           tetragonal
_symmetry_space_group_name_H-M   'I 41/a'
_symmetry_Int_Tables_number      88
_space_group_name_Hall           '-I 4ad'
loop_
_symmetry_equiv_pos_site_id
_symmetry_equiv_pos_as_xyz
1 x,y,z
2 3/4-y,1/4+x,1/4+z
3 1/2+x,1/2+y,1/2+z
4 1/4-y,3/4+x,3/4+z
5 1/4+y,1/4-x,1/4+z
6 1/2-x,-y,1/2+z
7 3/4+y,3/4-x,3/4+z
8 -x,1/2-y,z
9 -x,-y,-z
10 1/4+y,3/4-x,3/4-z
11 1/2-x,1/2-y,1/2-z
12 3/4+y,1/4-x,1/4-z
13 3/4-y,3/4+x,3/4-z
14 1/2+x,y,1/2-z
15 1/4-y,1/4+x,1/4-z
16 x,1/2+y,-z
_cell_length_a                   40.688(5)
_cell_length_b                   40.688(5)
_cell_length_c                   17.204(3)
_cell_angle_alpha                90
_cell_angle_beta                 90
_cell_angle_gamma                90
_cell_volume                     28481.5
loop_
_atom_site_label
_atom_site_type_symbol
_atom_site_fract_x
_atom_site_fract_y
_atom_site_fract_z
Mn1 Mn 0.208283(18) 0.827670(18) 0.43364(5)
O2 O 0.23632(10) 0.84564(9) 0.5081(2)
O3 O 0.22379(9) 0.74587(9) 0.57156(18)
O4 O 0.18122(8) 0.80186(8) 0.3631(2)
O5 O 0.16383(11) 0.84033(9) 0.5039(2)
N2 N 0.21267(10) 0.78499(9) 0.4813(2)
N3 N 0.19679(10) 0.75903(9) 0.4402(2)
N4 N 0.11007(15) 0.85097(17) 0.5178(5)
C4 C 0.24994(14) 0.83190(15) 0.5712(4)
C5 C 0.27111(19) 0.85163(18) 0.6157(4)
H8 H 0.2758 0.8735 0.5997
C6 C 0.2851(2) 0.8394(2) 0.6826(5)
H9 H 0.2996 0.8528 0.7121
C7 C 0.2785(2) 0.8083(2) 0.7067(4)
H10 H 0.2872 0.8007 0.7547
C8 C 0.25915(18) 0.78765(16) 0.6623(4)
H11 H 0.2556 0.7656 0.6785
C9 C 0.24469(13) 0.79909(14) 0.5934(3)
C10 C 0.22627(12) 0.77516(13) 0.5478(3)
C11 C 0.18145(12) 0.77076(12) 0.3790(3)
C12 C 0.16392(13) 0.74795(13) 0.3253(3)
H12 H 0.1665 0.7251 0.3442
H13 H 0.1740 0.7493 0.2730
C13 C 0.12768(17) 0.75604(16) 0.3193(5)
H14 H 0.1177 0.7426 0.2776
H15 H 0.1252 0.7795 0.3048
C14 C 0.10947(19) 0.7498(2) 0.3947(6)
H16 H 0.1184 0.7644 0.4355
H17 H 0.1134 0.7268 0.4113
C15 C 0.0727(2) 0.7554(3) 0.3875(9)
H18 H 0.0687 0.7785 0.3718
H19 H 0.0638 0.7410 0.3462
C16 C 0.0548(3) 0.7487(4) 0.4617(10)
H20 H 0.0593 0.7261 0.4785
H21 H 0.0311 0.7515 0.4535
H22 H 0.0623 0.7641 0.5018
C17 C 0.13619(18) 0.84060(17) 0.4771(5)
H23 H 0.1330 0.8332 0.4253
C18 C 0.0789(2) 0.8528(3) 0.4783(8)
H24 H 0.0821 0.8490 0.4226
H25 H 0.0693 0.8747 0.4862
H26 H 0.0640 0.8361 0.4993
C19 C 0.1117(3) 0.8647(3) 0.5928(7)
H27 H 0.0955 0.8541 0.6265
H28 H 0.1070 0.8883 0.5899
H29 H 0.1338 0.8614 0.6143
Mn2 Mn 0.211028(18) 0.711067(18) 0.49604(4)
O6 O 0.16937(9) 0.70214(9) 0.5364(2)
O7 O 0.18264(8) 0.63446(8) 0.34986(19)
O8 O 0.25286(8) 0.71458(8) 0.44288(19)
N5 N 0.20560(9) 0.67677(9) 0.4199(2)
N6 N 0.23346(10) 0.67211(10) 0.3706(2)
N7 N 0.23753(12) 0.67693(12) 0.5800(3)
C20 C 0.14848(12) 0.67834(12) 0.5183(3)
C21 C 0.12006(15) 0.67560(15) 0.5645(4)
H30 H 0.1168 0.6906 0.6061
C22 C 0.09722(15) 0.65197(16) 0.5512(4)
H31 H 0.0780 0.6512 0.5824
C23 C 0.10153(14) 0.62896(16) 0.4930(4)
H32 H 0.0860 0.6118 0.4853
C24 C 0.12919(12) 0.63150(13) 0.4458(3)
H33 H 0.1321 0.6163 0.4044
C25 C 0.15269(12) 0.65567(12) 0.4578(3)
C26 C 0.18166(11) 0.65550(10) 0.4050(3)
C27 C 0.25640(12) 0.69282(12) 0.3891(3)
C28 C 0.28968(12) 0.69058(15) 0.3507(3)
H34 H 0.2968 0.7128 0.3344
H35 H 0.2880 0.6767 0.3035
C29 C 0.31547(15) 0.67580(18) 0.4060(5)
H36 H 0.3376 0.6782 0.3827
H37 H 0.3152 0.6881 0.4557
C30 C 0.30892(19) 0.6393(2) 0.4225(5)
H38 H 0.2871 0.6371 0.4475
H39 H 0.3081 0.6273 0.3725
C31 C 0.3348(2) 0.6235(3) 0.4745(7)
H40 H 0.3568 0.6273 0.4519
H41 H 0.3342 0.6342 0.5262
C32 C 0.3298(4) 0.5883(3) 0.4843(11)
H42 H 0.3098 0.5816 0.4570
H43 H 0.3277 0.5831 0.5397
H44 H 0.3487 0.5764 0.4627
C33 C 0.22767(18) 0.64658(15) 0.5981(4)
H45 H 0.2067 0.6394 0.5810
C34 C 0.2467(2) 0.62552(18) 0.6404(5)
H46 H 0.2382 0.6046 0.6538
C35 C 0.26685(18) 0.68581(18) 0.6049(4)
H47 H 0.2743 0.7075 0.5941
C36 C 0.2874(2) 0.6647(2) 0.6464(5)
H48 H 0.3085 0.6720 0.6626
C37 C 0.2772(3) 0.6335(2) 0.6636(6)
C38 C 0.2993(3) 0.6099(3) 0.7085(9)
H49 H 0.2959 0.5873 0.6888
H50 H 0.3226 0.6159 0.6994
Mn3 Mn 0.279600(17) 0.863560(18) 0.22271(4)
O9 O 0.25766(9) 0.89930(8) 0.1800(2)
O10 O 0.20104(8) 0.86910(8) 0.3770(2)
O11 O 0.29704(8) 0.82596(8) 0.2786(2)
N8 N 0.24445(9) 0.85698(9) 0.2974(2)
N9 N 0.24887(9) 0.82887(9) 0.3451(2)
N10 N 0.35330(11) 0.55669(12) 0.9427(2)
C39 C 0.23333(13) 0.91659(13) 0.2104(3)
C40 C 0.22606(15) 0.94670(14) 0.1749(3)
H51 H 0.2385 0.9535 0.1309
C41 C 0.20115(17) 0.96691(15) 0.2022(4)
H52 H 0.1970 0.9873 0.1773
C42 C 0.18233(14) 0.95757(13) 0.2654(3)
H53 H 0.1651 0.9713 0.2837
C43 C 0.18900(12) 0.92818(12) 0.3014(3)
H54 H 0.1761 0.9217 0.3447
C44 C 0.21437(12) 0.90735(12) 0.2760(3)
C45 C 0.21985(12) 0.87617(12) 0.3194(3)
C46 C 0.27677(12) 0.81532(13) 0.3300(3)
C47 C 0.28748(14) 0.78597(15) 0.3764(4)
H55 H 0.2684 0.7770 0.4053
H56 H 0.2956 0.7687 0.3408
C48 C 0.3154(2) 0.7955(2) 0.4354(6)
H57 H 0.3068 0.8121 0.4722
H58 H 0.3338 0.8056 0.4065
C49 C 0.3280(4) 0.7664(3) 0.4806(8)
H59 H 0.3397 0.7516 0.4443
H60 H 0.3089 0.7541 0.5014
C50 C 0.3486(6) 0.7737(5) 0.5412(12)
H61 H 0.3681 0.7862 0.5232
H62 H 0.3372 0.7866 0.5819
C51 C 0.3590(7) 0.7370(5) 0.5732(18)
H63 H 0.3391 0.7249 0.5881
H64 H 0.3705 0.7250 0.5320
H65 H 0.3734 0.7392 0.6184
C52 C 0.3581(2) 0.55360(19) 0.8650(4)
H66 H 0.3756 0.5400 0.8473
C53 C 0.3389(3) 0.5690(3) 0.8112(5)
H67 H 0.3420 0.5653 0.7572
C54 C 0.32918(13) 0.57641(15) 0.9643(3)
H68 H 0.3256 0.5791 1.0186
C55 C 0.30949(19) 0.59283(19) 0.9164(4)
H69 H 0.2922 0.6061 0.9363
C56 C 0.3144(3) 0.5904(3) 0.8381(4)
C57 C 0.2935(4) 0.6106(4) 0.7799(5)
H70 H 0.2704 0.6037 0.7869
H71 H 0.2948 0.6339 0.7964
O7J O 0.31736(8) 0.86554(8) 0.15014(19)
N6J N 0.26654(10) 0.82789(10) 0.1294(2)
Mn3J Mn 0.220400(17) 0.636440(18) 0.27729(4)
Mn3N Mn 0.386440(18) 0.529600(17) 1.02729(4)
N10K N 0.30669(12) 0.89670(11) 0.3073(2)
O1 O 0.2749(4) 0.4458(4) 0.3683(10)
N1 N 0.2355(6) 0.4747(5) 0.3256(14)
C1 C 0.2512(6) 0.4699(6) 0.4109(15)
H1 H 0.2478 0.4779 0.4621
C2 C 0.2521(7) 0.4633(6) 0.2576(16)
H2 H 0.2759 0.4645 0.2657
H3 H 0.2460 0.4771 0.2132
H4 H 0.2457 0.4405 0.2471
C3 C 0.2082(7) 0.4959(7) 0.3130(14)
H5 H 0.2073 0.5021 0.2580
H6 H 0.2107 0.5157 0.3449
H7 H 0.1879 0.4845 0.3275
loop_
_geom_bond_atom_site_label_1
_geom_bond_atom_site_label_2
_geom_bond_site_symmetry_1
_geom_bond_site_symmetry_2
O1 C1 1_555 1_555
N1 C1 1_555 1_555
C1 H1 1_555 1_555
C2 N1 1_555 1_555
H2 C2 1_555 1_555
H3 C2 1_555 1_555
H4 C2 1_555 1_555
C3 N1 1_555 1_555
H5 C3 1_555 1_555
H6 C3 1_555 1_555
H7 C3 1_555 1_555
Mn1 O2 1_555 1_555
O2 C4 1_555 1_555
O3 C10 1_555 1_555
O4 Mn1 1_555 1_555
O5 Mn1 1_555 1_555
N2 Mn1 1_555 1_555
N3 N2 1_555 1_555
N4 C17 1_555 1_555
C4 C5 1_555 1_555
C5 H8 1_555 1_555
C6 C5 1_555 1_555
H9 C6 1_555 1_555
C7 C6 1_555 1_555
H10 C7 1_555 1_555
C8 C7 1_555 1_555
H11 C8 1_555 1_555
C9 C4 1_555 1_555
C10 N2 1_555 1_555
C11 O4 1_555 1_555
C12 C11 1_555 1_555
H12 C12 1_555 1_555
H13 C12 1_555 1_555
C13 C12 1_555 1_555
H14 C13 1_555 1_555
H15 C13 1_555 1_555
C14 C13 1_555 1_555
H16 C14 1_555 1_555
H17 C14 1_555 1_555
C15 C14 1_555 1_555
H18 C15 1_555 1_555
H19 C15 1_555 1_555
C16 C15 1_555 1_555
H20 C16 1_555 1_555
H21 C16 1_555 1_555
H22 C16 1_555 1_555
C17 O5 1_555 1_555
H23 C17 1_555 1_555
C18 N4 1_555 1_555
H24 C18 1_555 1_555
H25 C18 1_555 1_555
H26 C18 1_555 1_555
C19 N4 1_555 1_555
H27 C19 1_555 1_555
H28 C19 1_555 1_555
H29 C19 1_555 1_555
Mn2 O3 1_555 1_555
O6 Mn2 1_555 1_555
O7 C26 1_555 1_555
O8 Mn2 1_555 1_555
N5 Mn2 1_555 1_555
N6 N5 1_555 1_555
N7 Mn2 1_555 1_555
C20 O6 1_555 1_555
C21 C20 1_555 1_555
H30 C21 1_555 1_555
C22 C21 1_555 1_555
H31 C22 1_555 1_555
C23 C22 1_555 1_555
H32 C23 1_555 1_555
C24 C23 1_555 1_555
H33 C24 1_555 1_555
C25 C20 1_555 1_555
C26 N5 1_555 1_555
C27 O8 1_555 1_555
C28 C27 1_555 1_555
H34 C28 1_555 1_555
H35 C28 1_555 1_555
C29 C28 1_555 1_555
H36 C29 1_555 1_555
H37 C29 1_555 1_555
C30 C29 1_555 1_555
H38 C30 1_555 1_555
H39 C30 1_555 1_555
C31 C30 1_555 1_555
H40 C31 1_555 1_555
H41 C31 1_555 1_555
C32 C31 1_555 1_555
H42 C32 1_555 1_555
H43 C32 1_555 1_555
H44 C32 1_555 1_555
C33 N7 1_555 1_555
H45 C33 1_555 1_555
C34 C33 1_555 1_555
H46 C34 1_555 1_555
C35 N7 1_555 1_555
H47 C35 1_555 1_555
C36 C35 1_555 1_555
H48 C36 1_555 1_555
C37 C34 1_555 1_555
C38 C37 1_555 1_555
H49 C38 1_555 1_555
H50 C38 1_555 1_555
Mn3 O9 1_555 1_555
O9 C39 1_555 1_555
O10 Mn1 1_555 1_555
O11 Mn3 1_555 1_555
N8 Mn3 1_555 1_555
N9 Mn1 1_555 1_555
N10 C52 1_555 1_555
C39 C40 1_555 1_555
C40 H51 1_555 1_555
C41 C40 1_555 1_555
H52 C41 1_555 1_555
C42 C41 1_555 1_555
H53 C42 1_555 1_555
C43 C42 1_555 1_555
H54 C43 1_555 1_555
C44 C39 1_555 1_555
C45 O10 1_555 1_555
C46 O11 1_555 1_555
C47 C46 1_555 1_555
H55 C47 1_555 1_555
H56 C47 1_555 1_555
C48 C47 1_555 1_555
H57 C48 1_555 1_555
H58 C48 1_555 1_555
C49 C48 1_555 1_555
H59 C49 1_555 1_555
H60 C49 1_555 1_555
C50 C49 1_555 1_555
H61 C50 1_555 1_555
H62 C50 1_555 1_555
C51 C50 1_555 1_555
H63 C51 1_555 1_555
H64 C51 1_555 1_555
H65 C51 1_555 1_555
C52 H66 1_555 1_555
C53 C52 1_555 1_555
H67 C53 1_555 1_555
C54 N10 1_555 1_555
H68 C54 1_555 1_555
C55 C54 1_555 1_555
H69 C55 1_555 1_555
C56 C53 1_555 1_555
C57 C38 1_555 1_555
H70 C57 1_555 1_555
H71 C57 1_555 1_555
O7J Mn3 1_555 1_555
N6J Mn3 1_555 1_555
Mn3J O7 1_555 1_555
Mn3N N10 1_555 1_555
N10K Mn3 1_555 1_555
N3 C11 1_555 1_555
N3 Mn2 1_555 1_555
C8 C9 1_555 1_555
C9 C10 1_555 1_555
N6 C27 1_555 1_555
N6 Mn3J 1_555 1_555
C24 C25 1_555 1_555
C25 C26 1_555 1_555
C36 C37 1_555 1_555
N8 N9 1_555 1_555
N8 C45 1_555 1_555
N9 C46 1_555 1_555
C43 C44 1_555 1_555
C44 C45 1_555 1_555
C55 C56 1_555 1_555
C56 C57 1_555 1_555

#END
