
#######################################################################
#
#                 Cambridge Crystallographic Data Centre
#                                CCDC 
#
#######################################################################
#
# If this CIF has been generated from an entry in the Cambridge 
# Structural Database, then it will include bibliographic, chemical, 
# crystal, experimental, refinement or atomic coordinate data resulting 
# from the CCDC's data processing and validation procedures.
#
#######################################################################

data_XALDIY
_symmetry_cell_setting           tetragonal
_symmetry_space_group_name_H-M   'I 41/a'
_symmetry_Int_Tables_number      88
_space_group_name_Hall           '-I 4ad'
loop_
_symmetry_equiv_pos_site_id
_symmetry_equiv_pos_as_xyz
1 x,y,z
2 3/4-y,1/4+x,1/4+z
3 1/2+x,1/2+y,1/2+z
4 1/4-y,3/4+x,3/4+z
5 1/4+y,1/4-x,1/4+z
6 1/2-x,-y,1/2+z
7 3/4+y,3/4-x,3/4+z
8 -x,1/2-y,z
9 -x,-y,-z
10 1/4+y,3/4-x,3/4-z
11 1/2-x,1/2-y,1/2-z
12 3/4+y,1/4-x,1/4-z
13 3/4-y,3/4+x,3/4-z
14 1/2+x,y,1/2-z
15 1/4-y,1/4+x,1/4-z
16 x,1/2+y,-z
_cell_length_a                   40.669(5)
_cell_length_b                   40.669(5)
_cell_length_c                   17.351(3)
_cell_angle_alpha                90
_cell_angle_beta                 90
_cell_angle_gamma                90
_cell_volume                     28698
loop_
_atom_site_label
_atom_site_type_symbol
_atom_site_fract_x
_atom_site_fract_y
_atom_site_fract_z
Mn1 Mn 0.960528(13) 1.038458(13) 1.24359(3)
O1 O 0.95207(6) 1.08003(6) 1.28294(15)
O2 O 0.88446(6) 1.06722(5) 1.09843(14)
O3 O 0.96382(6) 0.99683(5) 1.19125(13)
N1 N 0.92608(6) 1.04409(7) 1.16690(16)
N2 N 0.92178(7) 1.01650(7) 1.11813(16)
N3 N 0.92630(8) 1.01186(8) 1.32750(17)
C1 C 0.92787(9) 1.10105(9) 1.2662(2)
C2 C 0.92556(10) 1.12919(10) 1.3113(2)
H1 H 0.9410 1.1326 1.3515
C3 C 0.90144(11) 1.15199(11) 1.2990(3)
H2 H 0.9004 1.1710 1.3307
C4 C 0.87868(10) 1.14781(10) 1.2415(3)
H3 H 0.8618 1.1636 1.2338
C5 C 0.88070(9) 1.12055(9) 1.1951(2)
H4 H 0.8651 1.1176 1.1550
C6 C 0.90546(8) 1.09686(8) 1.2059(2)
C7 C 0.90517(8) 1.06812(8) 1.1539(2)
C8 C 0.94216(9) 0.99341(9) 1.1360(2)
C9 C 0.94079(10) 0.96051(9) 1.0973(2)
H5 H 0.9633 0.9536 1.0831
H6 H 0.9277 0.9622 1.0495
C10 C 0.92538(12) 0.93467(10) 1.1505(3)
H7 H 0.9283 0.9127 1.1270
H8 H 0.9373 0.9347 1.2003
C11 C 0.88982(13) 0.94010(12) 1.1655(4)
H9 H 0.8780 0.9401 1.1157
H10 H 0.8870 0.9621 1.1888
C12 C 0.87376(16) 0.91452(14) 1.2188(4)
H11 H 0.8759 0.8925 1.1949
H12 H 0.8859 0.9141 1.2683
C13 C 0.83804(18) 0.9210(2) 1.2352(6)
H13 H 0.8345 0.9447 1.2413
H14 H 0.8316 0.9096 1.2826
H15 H 0.8247 0.9129 1.1922
C14 C 0.89664(10) 1.02237(11) 1.3459(2)
H16 H 0.8901 1.0436 1.3292
C15 C 0.87502(12) 1.00408(14) 1.3880(3)
H17 H 0.8543 1.0131 1.4015
C16 C 0.88285(13) 0.97284(15) 1.4109(3)
C17 C 0.91404(14) 0.96232(13) 1.3929(3)
H18 H 0.9213 0.9412 1.4094
C18 C 0.93468(12) 0.98202(12) 1.3514(3)
H19 H 0.9560 0.9740 1.3391
C19 C 0.85966(15) 0.95033(17) 1.4563(4)
H20 H 0.8367 0.9541 1.4393
H21 H 0.8653 0.9271 1.4459
Mn2 Mn 0.886128(13) 1.029786(13) 1.02532(3)
O4 O 0.85053(6) 1.00778(6) 1.06694(14)
O5 O 0.88093(5) 0.95125(6) 0.87281(14)
O6 O 0.92333(6) 1.04758(5) 0.96988(14)
N4 N 0.89275(7) 0.99491(7) 0.95078(16)
N5 N 0.92090(7) 0.99903(7) 0.90398(17)
N6 N 0.80710(8) 0.89715(8) 1.69063(18)
C20 C 0.83311(9) 0.98336(9) 1.0366(2)
C21 C 0.80292(9) 0.97610(10) 1.0718(2)
H22 H 0.7961 0.9884 1.1155
C22 C 0.78292(10) 0.95149(11) 1.0440(3)
H23 H 0.7625 0.9472 1.0685
C23 C 0.79223(9) 0.93290(9) 0.9809(2)
H24 H 0.7785 0.9158 0.9622
C24 C 0.82141(8) 0.93962(9) 0.9463(2)
H25 H 0.8279 0.9267 0.9032
C25 C 0.84227(8) 0.96476(8) 0.9716(2)
C26 C 0.87339(8) 0.97012(8) 0.9292(2)
C27 C 0.93451(9) 1.02713(9) 0.9179(2)
C28 C 0.96346(10) 1.03824(10) 0.8728(3)
H26 H 0.9731 1.0193 0.8452
H27 H 0.9803 1.0471 0.9084
C29 C 0.95356(13) 1.06534(13) 0.8134(3)
H28 H 0.9381 1.0560 0.7753
H29 H 0.9423 1.0835 0.8405
C30 C 0.98374(19) 1.0786(2) 0.7720(5)
H30 H 0.9964 1.0919 0.8095
H31 H 0.9977 1.0596 0.7580
C31 C 0.82709(9) 0.92108(9) 1.7127(2)
H32 H 0.8298 0.9247 1.7664
C32 C 0.9799(3) 1.0954(3) 0.7134(7)
H33 H 0.9673 1.1154 0.7271
H34 H 0.9666 1.0827 0.6759
C33 C 0.84393(12) 0.94074(11) 1.6635(3)
H35 H 0.8573 0.9581 1.6826
C34 C 1.0142(2) 1.1065(3) 0.6721(7)
H36 H 1.0266 1.1207 0.7071
H37 H 1.0093 1.1184 0.6244
H38 H 1.0273 1.0869 0.6600
C35 C 0.84146(15) 0.93526(15) 1.5862(3)
C36 C 0.82038(14) 0.91084(15) 1.5614(3)
H39 H 0.8175 0.9068 1.5079
C37 C 0.80385(12) 0.89256(12) 1.6144(3)
H40 H 0.7894 0.8758 1.5967
C38 C 0.86210(19) 0.9562(2) 1.5303(3)
H41 H 0.8562 0.9795 1.5389
H42 H 0.8855 0.9536 1.5449
Mn3 Mn 1.077530(13) 1.041450(13) 1.18354(3)
O7 O 1.09536(6) 1.01368(6) 1.25816(15)
O8 O 0.99522(6) 1.02553(6) 1.31874(13)
O9 O 1.05222(6) 1.06823(5) 1.11329(14)
O10 O 1.08974(6) 1.08610(7) 1.25315(16)
N7 N 1.03446(6) 1.03712(7) 1.23045(17)
N8 N 1.00900(7) 1.05262(7) 1.18867(17)
N9 N 1.10097(10) 1.14029(10) 1.2637(3)
C39 C 1.08167(10) 1.00050(10) 1.3202(2)
C40 C 1.10136(10) 0.97982(11) 1.3658(3)
H43 H 1.1233 0.9753 1.3504
C41 C 1.08945(14) 0.96622(13) 1.4318(3)
H44 H 1.1033 0.9522 1.4614
C42 C 1.05750(13) 0.97231(13) 1.4571(3)
H45 H 1.0497 0.9635 1.5044
C43 C 1.03741(11) 0.99162(11) 1.4113(3)
H46 H 1.0153 0.9954 1.4270
C44 C 1.04852(10) 1.00569(9) 1.3429(2)
C45 C 1.02508(9) 1.02374(9) 1.2957(2)
C46 C 1.02085(9) 1.06766(8) 1.1290(2)
C47 C 0.99812(9) 1.08515(9) 1.0742(2)
H47 H 0.9998 1.0748 1.0228
H48 H 0.9752 1.0825 1.0924
C48 C 1.00585(10) 1.12150(11) 1.0669(3)
H49 H 1.0291 1.1241 1.0516
H50 H 0.9920 1.1311 1.0256
C49 C 0.99992(13) 1.14022(11) 1.1412(4)
H51 H 1.0145 1.1313 1.1817
H52 H 0.9769 1.1366 1.1579
C50 C 1.00589(17) 1.17656(14) 1.1339(5)
H53 H 0.9907 1.1858 1.0949
H54 H 1.0286 1.1803 1.1156
C51 C 1.0010(2) 1.19432(16) 1.2089(6)
H55 H 1.0091 1.2169 1.2041
H56 H 0.9775 1.1947 1.2217
H57 H 1.0132 1.1830 1.2497
C52 C 1.09028(11) 1.11353(12) 1.2272(3)
H58 H 1.0824 1.1164 1.1761
C53 C 1.11314(15) 1.13855(16) 1.3399(4)
H59 H 1.1358 1.1467 1.3412
H60 H 1.0994 1.1521 1.3738
H61 H 1.1126 1.1157 1.3576
C54 C 1.10171(17) 1.17206(13) 1.2273(5)
H62 H 1.0856 1.1865 1.2519
H63 H 1.1237 1.1816 1.2326
H64 H 1.0963 1.1697 1.1725
Mn2F Mn 0.779786(13) 0.863872(13) 1.77532(3)
O5H O 1.11907(5) 1.04875(6) 1.12719(14)
N5H N 1.07910(7) 1.00097(7) 1.09602(17)
N6A N 0.85285(8) 1.05710(8) 0.94063(18)
Mn3H Mn 0.922470(13) 0.958550(13) 0.81646(3)
loop_
_geom_bond_atom_site_label_1
_geom_bond_atom_site_label_2
_geom_bond_site_symmetry_1
_geom_bond_site_symmetry_2
Mn1 O1 1_555 1_555
O1 C1 1_555 1_555
O2 C7 1_555 1_555
O3 Mn1 1_555 1_555
N1 Mn1 1_555 1_555
N2 N1 1_555 1_555
N3 Mn1 1_555 1_555
C1 C2 1_555 1_555
C2 H1 1_555 1_555
C3 C2 1_555 1_555
H2 C3 1_555 1_555
C4 C3 1_555 1_555
H3 C4 1_555 1_555
C5 C4 1_555 1_555
H4 C5 1_555 1_555
C6 C1 1_555 1_555
C7 N1 1_555 1_555
C8 O3 1_555 1_555
C9 C8 1_555 1_555
H5 C9 1_555 1_555
H6 C9 1_555 1_555
C10 C9 1_555 1_555
H7 C10 1_555 1_555
H8 C10 1_555 1_555
C11 C10 1_555 1_555
H9 C11 1_555 1_555
H10 C11 1_555 1_555
C12 C11 1_555 1_555
H11 C12 1_555 1_555
H12 C12 1_555 1_555
C13 C12 1_555 1_555
H13 C13 1_555 1_555
H14 C13 1_555 1_555
H15 C13 1_555 1_555
C14 N3 1_555 1_555
H16 C14 1_555 1_555
C15 C14 1_555 1_555
H17 C15 1_555 1_555
C16 C15 1_555 1_555
C17 C16 1_555 1_555
H18 C17 1_555 1_555
C18 N3 1_555 1_555
H19 C18 1_555 1_555
C19 C16 1_555 1_555
H20 C19 1_555 1_555
H21 C19 1_555 1_555
Mn2 O2 1_555 1_555
O4 Mn2 1_555 1_555
O5 C26 1_555 1_555
O6 Mn2 1_555 1_555
N4 Mn2 1_555 1_555
N5 N4 1_555 1_555
N6 C31 1_555 1_555
C20 O4 1_555 1_555
C21 C20 1_555 1_555
H22 C21 1_555 1_555
C22 C21 1_555 1_555
H23 C22 1_555 1_555
C23 C22 1_555 1_555
H24 C23 1_555 1_555
C24 C23 1_555 1_555
H25 C24 1_555 1_555
C25 C20 1_555 1_555
C26 N4 1_555 1_555
C27 O6 1_555 1_555
C28 C27 1_555 1_555
H26 C28 1_555 1_555
H27 C28 1_555 1_555
C29 C28 1_555 1_555
H28 C29 1_555 1_555
H29 C29 1_555 1_555
C30 C29 1_555 1_555
H30 C30 1_555 1_555
H31 C30 1_555 1_555
C31 H32 1_555 1_555
C32 C30 1_555 1_555
H33 C32 1_555 1_555
H34 C32 1_555 1_555
C33 C31 1_555 1_555
H35 C33 1_555 1_555
C34 C32 1_555 1_555
H36 C34 1_555 1_555
H37 C34 1_555 1_555
H38 C34 1_555 1_555
C35 C33 1_555 1_555
C36 C35 1_555 1_555
H39 C36 1_555 1_555
C37 N6 1_555 1_555
H40 C37 1_555 1_555
C38 C19 1_555 1_555
H41 C38 1_555 1_555
H42 C38 1_555 1_555
Mn3 O7 1_555 1_555
O7 C39 1_555 1_555
O8 Mn1 1_555 1_555
O9 Mn3 1_555 1_555
O10 Mn3 1_555 1_555
N7 Mn3 1_555 1_555
N8 Mn1 1_555 1_555
N9 C52 1_555 1_555
C39 C40 1_555 1_555
C40 H43 1_555 1_555
C41 C40 1_555 1_555
H44 C41 1_555 1_555
C42 C41 1_555 1_555
H45 C42 1_555 1_555
C43 C42 1_555 1_555
H46 C43 1_555 1_555
C44 C39 1_555 1_555
C45 O8 1_555 1_555
C46 O9 1_555 1_555
C47 C46 1_555 1_555
H47 C47 1_555 1_555
H48 C47 1_555 1_555
C48 C47 1_555 1_555
H49 C48 1_555 1_555
H50 C48 1_555 1_555
C49 C48 1_555 1_555
H51 C49 1_555 1_555
H52 C49 1_555 1_555
C50 C49 1_555 1_555
H53 C50 1_555 1_555
H54 C50 1_555 1_555
C51 C50 1_555 1_555
H55 C51 1_555 1_555
H56 C51 1_555 1_555
H57 C51 1_555 1_555
C52 O10 1_555 1_555
H58 C52 1_555 1_555
C53 N9 1_555 1_555
H59 C53 1_555 1_555
H60 C53 1_555 1_555
H61 C53 1_555 1_555
C54 N9 1_555 1_555
H62 C54 1_555 1_555
H63 C54 1_555 1_555
H64 C54 1_555 1_555
Mn2F N6 1_555 1_555
O5H Mn3 1_555 1_555
N5H Mn3 1_555 1_555
N6A Mn2 1_555 1_555
Mn3H O5 1_555 1_555
N2 C8 1_555 1_555
N2 Mn2 1_555 1_555
C5 C6 1_555 1_555
C6 C7 1_555 1_555
C17 C18 1_555 1_555
N5 C27 1_555 1_555
N5 Mn3H 1_555 1_555
C24 C25 1_555 1_555
C25 C26 1_555 1_555
C35 C38 1_555 1_555
C36 C37 1_555 1_555
N7 N8 1_555 1_555
N7 C45 1_555 1_555
N8 C46 1_555 1_555
C43 C44 1_555 1_555
C44 C45 1_555 1_555

#END
