
#######################################################################
#
#                 Cambridge Crystallographic Data Centre
#                                CCDC 
#
#######################################################################
#
# If this CIF has been generated from an entry in the Cambridge 
# Structural Database, then it will include bibliographic, chemical, 
# crystal, experimental, refinement or atomic coordinate data resulting 
# from the CCDC's data processing and validation procedures.
#
#######################################################################

data_XANLUV
_symmetry_cell_setting           orthorhombic
_symmetry_space_group_name_H-M   'P n m a'
_symmetry_Int_Tables_number      62
_space_group_name_Hall           '-P 2ac 2n'
loop_
_symmetry_equiv_pos_site_id
_symmetry_equiv_pos_as_xyz
1 x,y,z
2 1/2-x,-y,1/2+z
3 1/2+x,1/2-y,1/2-z
4 -x,1/2+y,-z
5 -x,-y,-z
6 1/2+x,y,1/2-z
7 1/2-x,1/2+y,1/2+z
8 x,1/2-y,z
_cell_length_a                   25.0572(5)
_cell_length_b                   25.4805(5)
_cell_length_c                   32.9266(6)
_cell_angle_alpha                90
_cell_angle_beta                 90
_cell_angle_gamma                90
_cell_volume                     21022.6
loop_
_atom_site_label
_atom_site_type_symbol
_atom_site_fract_x
_atom_site_fract_y
_atom_site_fract_z
Zn1 Zn 0.71235(2) 0.46009(3) 0.460923(19)
Zn2 Zn 0.66773(2) 0.53794(3) 0.393798(19)
Zn3 Zn 0.75764(2) 0.45701(3) 0.36953(2)
Zn4 Zn 0.78494(3) 0.55076(3) 0.42756(2)
O1 O 0.73032(9) 0.50132(12) 0.41282(7)
O2 O 0.85112(13) 0.48394(15) 0.83972(10)
O3 O 0.78157(13) 0.53427(14) 0.81927(9)
O4 O 0.75104(15) 0.38440(15) 0.38592(12)
O5 O 0.72168(14) 0.38579(15) 0.45079(12)
O6 O 0.63844(14) 0.47027(15) 0.47620(11)
O7 O 0.60580(13) 0.52454(16) 0.42767(12)
O8 O 0.67650(17) 0.61524(15) 0.39213(11)
O9 O 0.7642(2) 0.61594(19) 0.41237(15)
O10 O 0.80484(16) 0.54258(17) 0.48268(12)
O11 O 0.75418(14) 0.47752(17) 0.50806(11)
O12 O 1.14972(15) 0.46380(18) 0.60024(13)
O13 O 1.16733(13) 0.53295(15) 0.64210(10)
N1 N 0.9144(2) 0.5206(3) 0.65501(17)
C1 C 0.7362(2) 0.3626(3) 0.4180(2)
C2 C 0.7374(2) 0.3052(3) 0.41753(19)
C3 C 0.7516(3) 0.2765(2) 0.38370(19)
H1 H 0.7616 0.2946 0.3597
C4 C 0.7207(2) 0.27655(17) 0.45135(19)
H2 H 0.7091 0.2948 0.4749
C5 C 0.6018(3) 0.4982(3) 0.4590(2)
C6 C 0.5480(2) 0.4995(3) 0.4802(2)
C7 C 0.5077(3) 0.5281(2) 0.46337(16)
H3 H 0.5132 0.5468 0.4388
C8 C 0.5415(2) 0.4705(2) 0.5172(2)
H4 H 0.5702 0.4508 0.5282
C9 C 0.7182(3) 0.6436(5) 0.3997(2)
C10 C 0.7146(4) 0.6988(3) 0.3978(3)
C11 C 0.6693(3) 0.7238(2) 0.3891(2)
H5 H 0.6377 0.7047 0.3831
C12 C 0.7636(3) 0.7239(2) 0.4021(3)
H6 H 0.7957 0.7045 0.4050
C13 C 0.8255(2) 0.5107(3) 0.81338(19)
C14 C 0.8470(2) 0.5151(3) 0.77118(19)
C15 C 0.8960(2) 0.4881(2) 0.7625(2)
H7 H 0.9132 0.4683 0.7831
C16 C 0.9185(2) 0.4909(3) 0.7237(2)
H8 H 0.9514 0.4741 0.7178
C17 C 0.8907(3) 0.5197(3) 0.6933(2)
C18 C 0.8430(2) 0.5447(3) 0.7020(2)
H9 H 0.8246 0.5633 0.6812
C19 C 0.8222(2) 0.5426(2) 0.7406(2)
H10 H 0.7899 0.5607 0.7463
C20 C 0.9693(3) 0.5144(4) 0.6492(2)
C21 C 0.9873(3) 0.4780(3) 0.62083(19)
H11 H 0.9628 0.4568 0.6062
C22 C 1.0429(3) 0.4732(2) 0.61422(16)
H12 H 1.0560 0.4482 0.5953
C23 C 1.0780(2) 0.5049(3) 0.6353(2)
C24 C 1.0586(3) 0.5417(3) 0.66464(17)
H13 H 1.0827 0.5630 0.6796
C25 C 1.0041(3) 0.5456(3) 0.67078(17)
H14 H 0.9906 0.5700 0.6900
C26 C 1.1367(2) 0.4984(3) 0.62433(19)
C27 C 0.8822(3) 0.5211(4) 0.6202(3)
C28 C 0.8382(3) 0.4879(3) 0.62020(17)
H15 H 0.8288 0.4680 0.6435
C29 C 0.8068(2) 0.4850(3) 0.5825(2)
H16 H 0.7771 0.4620 0.5809
C30 C 0.8208(2) 0.5159(3) 0.5493(2)
C31 C 0.8637(3) 0.5486(3) 0.55216(19)
H17 H 0.8727 0.5705 0.5299
C32 C 0.8957(2) 0.5503(3) 0.5885(2)
H18 H 0.9263 0.5722 0.5898
C33 C 0.7911(3) 0.5113(3) 0.5111(2)
Zn1G Zn 0.71235(2) 0.03991(3) 0.460923(19)
Zn1D Zn 0.28765(2) 0.53991(3) 0.539077(19)
Zn1A Zn 0.78765(2) 0.53991(3) -0.039077(19)
Zn2A Zn 0.83227(2) 0.46206(3) 0.893798(19)
Zn2D Zn 0.33227(2) 0.46206(3) 0.606202(19)
Zn2G Zn 0.66773(2) 0.96206(3) 0.393798(19)
Zn2G_2 Zn 0.66773(2) -0.03794(3) 0.393798(19)
Zn3A Zn 0.74236(2) 0.54299(3) 0.86953(2)
Zn3D Zn 1.24236(2) 0.54299(3) 0.63047(2)
Zn3G Zn 0.75764(2) 0.04299(3) 0.36953(2)
Zn3E Zn 0.25764(2) 0.45701(3) 0.13047(2)
Zn4D Zn 1.21506(3) 0.44924(3) 0.57244(2)
Zn4G Zn 0.78494(3) 0.94924(3) 0.42756(2)
Zn4A Zn 0.71506(3) 0.44924(3) -0.07244(2)
Zn4E Zn 0.28494(3) 0.55076(3) 0.07244(2)
Zn4G_2 Zn 0.78494(3) -0.05076(3) 0.42756(2)
O1G O 0.73032(9) -0.00132(12) 0.41282(7)
O1A O 0.76968(9) 0.49868(12) 0.91282(7)
O1D O 1.26968(9) 0.49868(12) 0.58718(7)
O2A O 0.64888(13) 0.51606(15) 0.33972(10)
O3A O 0.71843(13) 0.46573(14) 0.31927(9)
O4G O 0.75104(15) 0.11560(15) 0.38592(12)
O4A O 0.74896(15) 0.61560(15) 0.88592(12)
O5G O 0.72168(14) 0.11421(15) 0.45079(12)
O6D O 0.36156(14) 0.52973(15) 0.52380(11)
O6G O 0.63844(14) 0.02973(15) 0.47620(11)
O7D O 0.39420(13) 0.47546(16) 0.57233(12)
O7A O 0.89420(13) 0.47546(16) 0.92767(12)
O8G O 0.67650(17) 0.88476(15) 0.39213(11)
O8A O 0.82350(17) 0.38476(15) 0.89213(11)
O9G O 0.7642(2) 0.88406(19) 0.41237(15)
O9D O 1.2358(2) 0.38406(19) 0.58763(15)
O10A O 0.69516(16) 0.45742(17) -0.01732(12)
O10D O 1.19516(16) 0.45742(17) 0.51732(12)
O11A O 0.74582(14) 0.52248(17) 0.00806(11)
O11G O 0.75418(14) 0.02248(17) 0.50806(11)
O12A O 0.35028(15) 0.53620(18) 0.10024(13)
O12D O 0.85028(15) 0.53620(18) 0.39976(13)
O13A O 0.33267(13) 0.46705(15) 0.14210(10)
O13D O 0.83267(13) 0.46705(15) 0.35790(10)
O13E O 0.66733(13) 0.53295(15) 0.85790(10)
N1A N 0.5856(2) 0.4794(3) 0.15501(17)
C1G C 0.7362(2) 0.1374(3) 0.4180(2)
C2G C 0.7374(2) 0.1948(3) 0.41753(19)
C3G C 0.7516(3) 0.2235(2) 0.38370(19)
H1G H 0.7616 0.2054 0.3597
C4G C 0.7207(2) 0.22345(17) 0.45135(19)
H2G H 0.7091 0.2052 0.4749
C5D C 0.3982(3) 0.5018(3) 0.5410(2)
C6D C 0.4520(2) 0.5005(3) 0.5198(2)
C7D C 0.4923(3) 0.4719(2) 0.53663(16)
H3D H 0.4868 0.4532 0.5612
C8D C 0.4585(2) 0.5295(2) 0.4828(2)
H4D H 0.4298 0.5492 0.4718
C9G C 0.7182(3) 0.8564(5) 0.3997(2)
C10G C 0.7146(4) 0.8012(3) 0.3978(3)
C11G C 0.6693(3) 0.7762(2) 0.3891(2)
H5G H 0.6377 0.7953 0.3831
C12G C 0.7636(3) 0.7761(2) 0.4021(3)
H6G H 0.7957 0.7955 0.4050
C13A C 0.6745(2) 0.4893(3) 0.31338(19)
C14A C 0.6530(2) 0.4849(3) 0.27118(19)
C15A C 0.6040(2) 0.5119(2) 0.2625(2)
H7A H 0.5868 0.5317 0.2831
C16A C 0.5815(2) 0.5091(3) 0.2237(2)
H8A H 0.5486 0.5259 0.2178
C17A C 0.6093(3) 0.4803(3) 0.1933(2)
C18A C 0.6570(2) 0.4553(3) 0.2020(2)
H9A H 0.6754 0.4367 0.1812
C19A C 0.6778(2) 0.4574(2) 0.2406(2)
H10A H 0.7101 0.4393 0.2463
C20A C 0.5307(3) 0.4856(4) 0.1492(2)
C21A C 0.5127(3) 0.5220(3) 0.12083(19)
H11A H 0.5372 0.5432 0.1062
C22A C 0.4571(3) 0.5268(2) 0.11422(16)
H12A H 0.4440 0.5518 0.0953
C23A C 0.4220(2) 0.4951(3) 0.1353(2)
C24A C 0.4414(3) 0.4583(3) 0.16464(17)
H13A H 0.4173 0.4370 0.1796
C25A C 0.4959(3) 0.4544(3) 0.17078(17)
H14A H 0.5094 0.4300 0.1900
C26A C 0.3633(2) 0.5016(3) 0.12433(19)
C27A C 0.6178(3) 0.4789(4) 0.1202(3)
C28A C 0.6618(3) 0.5121(3) 0.12020(17)
H15A H 0.6712 0.5320 0.1435
C29A C 0.6932(2) 0.5150(3) 0.0825(2)
H16A H 0.7229 0.5380 0.0809
C30A C 0.6792(2) 0.4841(3) 0.0493(2)
C31A C 0.6363(3) 0.4514(3) 0.05216(19)
H17A H 0.6273 0.4295 0.0299
C32A C 0.6043(2) 0.4497(3) 0.0885(2)
H18A H 0.5737 0.4278 0.0898
C33A C 0.7089(3) 0.4887(3) 0.0111(2)
loop_
_geom_bond_atom_site_label_1
_geom_bond_atom_site_label_2
_geom_bond_site_symmetry_1
_geom_bond_site_symmetry_2
Zn1 O1 1_555 1_555
Zn2 O1 1_555 1_555
Zn3 O1 1_555 1_555
Zn4 O1 1_555 1_555
O2 C13 1_555 1_555
O3 C13 1_555 1_555
O4 Zn3 1_555 1_555
O5 Zn1 1_555 1_555
O6 Zn1 1_555 1_555
O7 Zn2 1_555 1_555
O8 Zn2 1_555 1_555
O9 Zn4 1_555 1_555
O10 Zn4 1_555 1_555
O11 Zn1 1_555 1_555
O12 C26 1_555 1_555
O13 C26 1_555 1_555
N1 C17 1_555 1_555
C1 O4 1_555 1_555
C2 C1 1_555 1_555
C3 C2 1_555 1_555
H1 C3 1_555 1_555
C4 C2 1_555 1_555
H2 C4 1_555 1_555
C5 O6 1_555 1_555
C6 C5 1_555 1_555
C7 C6 1_555 1_555
H3 C7 1_555 1_555
C8 C6 1_555 1_555
H4 C8 1_555 1_555
C9 O8 1_555 1_555
C10 C9 1_555 1_555
C11 C10 1_555 1_555
H5 C11 1_555 1_555
C12 C10 1_555 1_555
H6 C12 1_555 1_555
C13 C14 1_555 1_555
C14 C15 1_555 1_555
C15 H7 1_555 1_555
C16 C15 1_555 1_555
H8 C16 1_555 1_555
C17 C16 1_555 1_555
C18 C17 1_555 1_555
H9 C18 1_555 1_555
C19 C14 1_555 1_555
H10 C19 1_555 1_555
C20 N1 1_555 1_555
C21 C20 1_555 1_555
H11 C21 1_555 1_555
C22 C21 1_555 1_555
H12 C22 1_555 1_555
C23 C22 1_555 1_555
C24 C23 1_555 1_555
H13 C24 1_555 1_555
C25 C20 1_555 1_555
H14 C25 1_555 1_555
C26 C23 1_555 1_555
C27 N1 1_555 1_555
C28 C27 1_555 1_555
H15 C28 1_555 1_555
C29 C28 1_555 1_555
H16 C29 1_555 1_555
C30 C29 1_555 1_555
C31 C30 1_555 1_555
H17 C31 1_555 1_555
C32 C27 1_555 1_555
H18 C32 1_555 1_555
C33 O10 1_555 1_555
Zn1G O1G 1_555 1_555
Zn1D O6D 1_555 1_555
Zn1A O11A 1_555 1_555
Zn2A O2 1_555 1_555
Zn2D O7D 1_555 1_555
Zn2G O8G 1_555 1_555
Zn2G_2 O1G 1_555 1_555
Zn3A O3 1_555 1_555
Zn3D O13 1_555 1_555
Zn3G O1G 1_555 1_555
Zn3E O13A 1_555 1_555
Zn4D O12 1_555 1_555
Zn4G O9G 1_555 1_555
Zn4A O10A 1_555 1_555
Zn4E O12A 1_555 1_555
Zn4G_2 O1G 1_555 1_555
O1A Zn2A 1_555 1_555
O1D Zn3D 1_555 1_555
O2A Zn2 1_555 1_555
O3A Zn3 1_555 1_555
O4G Zn3G 1_555 1_555
O4A Zn3A 1_555 1_555
O5G Zn1G 1_555 1_555
O6D C5D 1_555 1_555
O6G Zn1G 1_555 1_555
O7D C5D 1_555 1_555
O7A Zn2A 1_555 1_555
O8G C9G 1_555 1_555
O8A Zn2A 1_555 1_555
O9G C9G 1_555 1_555
O9D Zn4D 1_555 1_555
O10A C33A 1_555 1_555
O10D Zn4D 1_555 1_555
O11A C33A 1_555 1_555
O11G Zn1G 1_555 1_555
O12A C26A 1_555 1_555
O12D Zn4 1_555 1_555
O13A C26A 1_555 1_555
O13D Zn3 1_555 1_555
O13E Zn3A 1_555 1_555
N1A C17A 1_555 1_555
C1G O4G 1_555 1_555
C2G C1G 1_555 1_555
C3G C3 1_555 1_555
H1G C3G 1_555 1_555
C4G C4 1_555 1_555
H2G C4G 1_555 1_555
C5D C6D 1_555 1_555
C6D C7D 1_555 1_555
C7D C8 1_555 1_555
H3D C7D 1_555 1_555
C8D C7 1_555 1_555
H4D C8D 1_555 1_555
C9G C10G 1_555 1_555
C10G C11G 1_555 1_555
C11G C11 1_555 1_555
H5G C11G 1_555 1_555
C12G C12 1_555 1_555
H6G C12G 1_555 1_555
C13A O2A 1_555 1_555
C14A C13A 1_555 1_555
C15A C14A 1_555 1_555
H7A C15A 1_555 1_555
C16A C15A 1_555 1_555
H8A C16A 1_555 1_555
C17A C16A 1_555 1_555
C18A C17A 1_555 1_555
H9A C18A 1_555 1_555
C19A C14A 1_555 1_555
H10A C19A 1_555 1_555
C20A N1A 1_555 1_555
C21A C20A 1_555 1_555
H11A C21A 1_555 1_555
C22A C21A 1_555 1_555
H12A C22A 1_555 1_555
C23A C22A 1_555 1_555
C24A C23A 1_555 1_555
H13A C24A 1_555 1_555
C25A C20A 1_555 1_555
H14A C25A 1_555 1_555
C26A C23A 1_555 1_555
C27A N1A 1_555 1_555
C28A C27A 1_555 1_555
H15A C28A 1_555 1_555
C29A C28A 1_555 1_555
H16A C29A 1_555 1_555
C30A C29A 1_555 1_555
C31A C30A 1_555 1_555
H17A C31A 1_555 1_555
C32A C27A 1_555 1_555
H18A C32A 1_555 1_555
C33A C30A 1_555 1_555
O5 C1 1_555 1_555
O7 C5 1_555 1_555
O9 C9 1_555 1_555
O11 C33 1_555 1_555
C18 C19 1_555 1_555
C24 C25 1_555 1_555
C30 C33 1_555 1_555
C31 C32 1_555 1_555
Zn3A O1A 1_555 1_555
Zn4D O1D 1_555 1_555
O3A C13A 1_555 1_555
O5G C1G 1_555 1_555
C2G C3G 1_555 1_555
C2G C4G 1_555 1_555
C6D C8D 1_555 1_555
C10G C12G 1_555 1_555
C18A C19A 1_555 1_555
C24A C25A 1_555 1_555
C31A C32A 1_555 1_555

#END
