
#######################################################################
#
#                 Cambridge Crystallographic Data Centre
#                                CCDC 
#
#######################################################################
#
# If this CIF has been generated from an entry in the Cambridge 
# Structural Database, then it will include bibliographic, chemical, 
# crystal, experimental, refinement or atomic coordinate data resulting 
# from the CCDC's data processing and validation procedures.
#
#######################################################################

data_XASFAY
_symmetry_cell_setting           monoclinic
_symmetry_space_group_name_H-M   'C 2/c'
_symmetry_Int_Tables_number      15
_space_group_name_Hall           '-C 2yn'
loop_
_symmetry_equiv_pos_site_id
_symmetry_equiv_pos_as_xyz
1 x,y,z
2 1/2+x,1/2+y,z
3 x,-y,1/2+z
4 1/2+x,1/2-y,1/2+z
5 -x,-y,-z
6 1/2-x,1/2-y,-z
7 -x,y,1/2-z
8 1/2-x,1/2+y,1/2-z
_cell_length_a                   13.0570(10)
_cell_length_b                   23.092(3)
_cell_length_c                   19.966(2)
_cell_angle_alpha                90
_cell_angle_beta                 106.095(3)
_cell_angle_gamma                90
_cell_volume                     5784.03
loop_
_atom_site_label
_atom_site_type_symbol
_atom_site_fract_x
_atom_site_fract_y
_atom_site_fract_z
Cu1 Cu 0.2500 0.2500 0.5000
Cu2 Cu -0.5000 0.5000 0.0000
N1 N 0.1728(5) 0.2397(3) 0.5772(4)
C1 C 0.1426(6) 0.2870(3) 0.6086(4)
H1 H 0.1659 0.3237 0.6006
C2 C 0.0781(6) 0.2801(2) 0.6516(3)
H2 H 0.0576 0.3122 0.6730
C3 C 0.0438(5) 0.2259(2) 0.6633(3)
C4 C 0.0741(5) 0.1787(3) 0.6320(3)
H3 H 0.0508 0.1419 0.6399
C5 C 0.1386(6) 0.1856(3) 0.5889(4)
H4 H 0.1591 0.1535 0.5676
C6 C -0.0272(5) 0.2202(4) 0.71130(13)
H5 H -0.0781 0.2518 0.7013
H6 H -0.0672 0.1844 0.6999
N3 N -0.4116(3) 0.57133(14) -0.0020(2)
C13 C -0.4126(5) 0.6139(2) 0.0430(3)
H13 H -0.4548 0.6094 0.0733
C14 C -0.3542(6) 0.6641(3) 0.0467(4)
H14 H -0.3605 0.6936 0.0770
C15 C -0.2864(5) 0.6701(2) 0.0050(4)
C16 C -0.2828(5) 0.6254(2) -0.0392(4)
H15 H -0.2378 0.6279 -0.0680
C17 C -0.3448(4) 0.5767(2) -0.0419(3)
H16 H -0.3401 0.5468 -0.0721
C18 C -0.2168(4) 0.72321(14) 0.0093(5)
H17 H -0.1728 0.7188 -0.0224
H18 H -0.1700 0.7269 0.0562
N4 N 0.1149(3) 0.28635(16) 0.43654(18)
C19 C 0.0541(5) 0.2573(2) 0.3830(3)
H19 H 0.0726 0.2192 0.3765
C20 C -0.0349(5) 0.2803(2) 0.3364(3)
H20 H -0.0748 0.2578 0.2997
C21 C -0.0651(4) 0.3370(2) 0.3440(2)
C22 C -0.0042(4) 0.3664(2) 0.4014(3)
H21 H -0.0225 0.4041 0.4101
C23 C 0.0845(3) 0.3402(2) 0.4462(3)
H22 H 0.1242 0.3610 0.4845
C24 C -0.1602(5) 0.3629(3) 0.2906(3)
H23 H -0.1575 0.3504 0.2448
H24 H -0.2244 0.3466 0.2985
N5 N -0.3974(3) 0.48012(16) 0.09689(19)
C25 C -0.3003(5) 0.4598(3) 0.0989(3)
H25 H -0.2824 0.4556 0.0572
C26 C -0.2264(5) 0.4449(3) 0.1597(3)
H26 H -0.1590 0.4327 0.1585
C27 C -0.2505(4) 0.4477(2) 0.2233(3)
C28 C -0.3465(5) 0.4722(3) 0.2214(3)
H27 H -0.3649 0.4784 0.2626
C29 C -0.4171(4) 0.4880(2) 0.1576(3)
H28 H -0.4815 0.5050 0.1579
C30 C -0.1706(5) 0.4271(3) 0.2897(3)
H29 H -0.1017 0.4444 0.2931
H30 H -0.1933 0.4395 0.3297
S1 S 0.16846(8) 0.09503(4) 0.41141(5)
O1 O 0.1875(2) 0.14703(12) 0.45548(16)
O2 O 0.1126(3) 0.05123(13) 0.44154(19)
O3 O 0.2705(3) 0.0724(2) 0.4072(3)
O4 O 0.1013(4) 0.1111(2) 0.34242(19)
C6F C 0.0272(5) 0.2202(4) 0.78870(13)
C3F C -0.0438(5) 0.2259(2) 0.8367(3)
C2F C -0.0781(6) 0.2801(2) 0.8484(3)
C1F C -0.1426(6) 0.2870(3) 0.8914(4)
N1F N -0.1728(5) 0.2397(3) 0.9228(4)
C5F C -0.1386(6) 0.1856(3) 0.9111(4)
C4F C -0.0741(5) 0.1787(3) 0.8680(3)
H3F H -0.0508 0.1419 0.8601
H4F H -0.1591 0.1535 0.9324
H1F H -0.1659 0.3237 0.8994
H2F H -0.0576 0.3122 0.8270
H5F H 0.0781 0.2518 0.7987
H6F H 0.0672 0.1844 0.8001
C18E C -0.2832(4) 0.77679(14) -0.0093(5)
C15E C -0.2136(5) 0.8299(2) -0.0050(4)
C14E C -0.1458(6) 0.8359(3) -0.0467(4)
C13E C -0.0874(5) 0.8861(2) -0.0430(3)
N3E N -0.0884(3) 0.92867(14) 0.0020(2)
C17E C -0.1552(4) 0.9233(2) 0.0419(3)
C16E C -0.2172(5) 0.8746(2) 0.0392(4)
H15E H -0.2622 0.8721 0.0680
H16E H -0.1599 0.9532 0.0721
H13E H -0.0452 0.8906 -0.0733
H14E H -0.1395 0.8064 -0.0770
H17E H -0.3272 0.7812 0.0224
H18E H -0.3300 0.7731 -0.0562
N4E N 0.3851(3) 0.21365(16) 0.56346(18)
C19E C 0.4459(5) 0.2427(2) 0.6170(3)
H19E H 0.4274 0.2808 0.6235
C20E C 0.5349(5) 0.2197(2) 0.6636(3)
H20E H 0.5748 0.2422 0.7003
C21E C 0.5651(4) 0.1630(2) 0.6560(2)
C22E C 0.5042(4) 0.1336(2) 0.5986(3)
H21E H 0.5225 0.0959 0.5899
C23E C 0.4155(3) 0.1598(2) 0.5538(3)
H22E H 0.3758 0.1390 0.5155
C24E C 0.6602(5) 0.1371(3) 0.7094(3)
H23E H 0.6575 0.1496 0.7552
H24E H 0.7244 0.1534 0.7015
N5E N 0.8974(3) 0.01988(16) 0.90311(19)
C25E C 0.8003(5) 0.0402(3) 0.9011(3)
H25E H 0.7824 0.0444 0.9428
C26E C 0.7264(5) 0.0551(3) 0.8403(3)
H26E H 0.6590 0.0673 0.8415
C27E C 0.7505(4) 0.0523(2) 0.7767(3)
C28E C 0.8465(5) 0.0278(3) 0.7786(3)
H27E H 0.8649 0.0216 0.7374
C29E C 0.9171(4) 0.0120(2) 0.8424(3)
H28E H 0.9815 -0.0050 0.8421
C30E C 0.6706(5) 0.0729(3) 0.7103(3)
H29E H 0.6017 0.0556 0.7069
H30E H 0.6933 0.0605 0.6703
S1E S 0.33154(8) 0.40497(4) 0.58859(5)
O1E O 0.3125(2) 0.35297(12) 0.54452(16)
O2E O 0.3874(3) 0.44877(13) 0.55846(19)
O3E O 0.2295(3) 0.4276(2) 0.5928(3)
O4E O 0.3987(4) 0.3889(2) 0.65758(19)
N1E N 0.3272(5) 0.2603(3) 0.4228(4)
N3D N -0.5884(3) 0.42867(14) 0.0020(2)
N5D N -0.6026(3) 0.51988(16) -0.09689(19)
O2C O -0.3874(3) 0.44877(13) -0.05846(19)
O2G O -0.6126(3) 0.55123(13) 0.05846(19)
Cu2C Cu 0.0000 0.0000 0.5000
Cu1C Cu -0.2500 0.2500 1.0000
Cu2A Cu 0.0000 1.0000 0.0000
Cu2A_2 Cu 1.0000 0.0000 1.0000
Cu2B Cu 0.5000 0.5000 0.5000
O5 O 0.1138(4) 0.1421(2) 0.2130(3)
O6 O 0.3875(7) 0.0754(4) 0.3141(5)
O7 O 0.3966(7) 0.0125(4) -0.0159(5)
O8 O 0.6817(10) 0.1317(6) 0.3073(7)
O9 O 0.5920(14) 0.0858(8) 0.4001(10)
N2? N 0.1767(5) 0.2391(2) 0.5761(3)
C7? C 0.2054(6) 0.2742(3) 0.6344(3)
H7? H 0.2546 0.3038 0.6369
C8? C 0.1611(8) 0.2652(4) 0.6888(4)
H8? H 0.1804 0.2888 0.7280
C9? C 0.0880(8) 0.2212(4) 0.6850(5)
C10? C 0.0593(8) 0.1861(4) 0.6267(5)
H9? H 0.0101 0.1565 0.6241
C11? C 0.1037(6) 0.1951(4) 0.5723(4)
H10? H 0.0843 0.1715 0.5330
C12? C 0.0588(3) 0.2157(12) 0.7529(6)
H11? H 0.0893 0.1800 0.7755
H12? H 0.0917 0.2475 0.7830
loop_
_geom_bond_atom_site_label_1
_geom_bond_atom_site_label_2
_geom_bond_site_symmetry_1
_geom_bond_site_symmetry_2
Cu1 N1 1_555 1_555
Cu2 N3 1_555 1_555
N1 C1 1_555 1_555
C1 H1 1_555 1_555
C2 C1 1_555 1_555
H2 C2 1_555 1_555
C3 C2 1_555 1_555
C4 C3 1_555 1_555
H3 C4 1_555 1_555
C5 N1 1_555 1_555
H4 C5 1_555 1_555
C6 C3 1_555 1_555
H5 C6 1_555 1_555
H6 C6 1_555 1_555
N3 C13 1_555 1_555
C13 H13 1_555 1_555
C14 C13 1_555 1_555
H14 C14 1_555 1_555
C15 C14 1_555 1_555
C16 C15 1_555 1_555
H15 C16 1_555 1_555
C17 N3 1_555 1_555
H16 C17 1_555 1_555
C18 C15 1_555 1_555
H17 C18 1_555 1_555
H18 C18 1_555 1_555
N4 Cu1 1_555 1_555
C19 N4 1_555 1_555
H19 C19 1_555 1_555
C20 C19 1_555 1_555
H20 C20 1_555 1_555
C21 C20 1_555 1_555
C22 C21 1_555 1_555
H21 C22 1_555 1_555
C23 N4 1_555 1_555
H22 C23 1_555 1_555
C24 C21 1_555 1_555
H23 C24 1_555 1_555
H24 C24 1_555 1_555
N5 Cu2 1_555 1_555
C25 N5 1_555 1_555
H25 C25 1_555 1_555
C26 C25 1_555 1_555
H26 C26 1_555 1_555
C27 C26 1_555 1_555
C28 C27 1_555 1_555
H27 C28 1_555 1_555
C29 N5 1_555 1_555
H28 C29 1_555 1_555
C30 C24 1_555 1_555
H29 C30 1_555 1_555
H30 C30 1_555 1_555
S1 O1 1_555 1_555
O1 Cu1 1_555 1_555
O2 S1 1_555 1_555
O3 S1 1_555 1_555
O4 S1 1_555 1_555
C6F C6 1_555 1_555
C3F C6F 1_555 1_555
C2F C3F 1_555 1_555
C1F C2F 1_555 1_555
N1F C1F 1_555 1_555
C5F N1F 1_555 1_555
C4F C3F 1_555 1_555
H3F C4F 1_555 1_555
H4F C5F 1_555 1_555
H1F C1F 1_555 1_555
H2F C2F 1_555 1_555
H5F C6F 1_555 1_555
H6F C6F 1_555 1_555
C18E C18 1_555 1_555
C15E C18E 1_555 1_555
C14E C15E 1_555 1_555
C13E C14E 1_555 1_555
N3E C13E 1_555 1_555
C17E N3E 1_555 1_555
C16E C15E 1_555 1_555
H15E C16E 1_555 1_555
H16E C17E 1_555 1_555
H13E C13E 1_555 1_555
H14E C14E 1_555 1_555
H17E C18E 1_555 1_555
H18E C18E 1_555 1_555
N4E Cu1 1_555 1_555
C19E N4E 1_555 1_555
H19E C19E 1_555 1_555
C20E C19E 1_555 1_555
H20E C20E 1_555 1_555
C21E C20E 1_555 1_555
C22E C21E 1_555 1_555
H21E C22E 1_555 1_555
C23E N4E 1_555 1_555
H22E C23E 1_555 1_555
C24E C21E 1_555 1_555
H23E C24E 1_555 1_555
H24E C24E 1_555 1_555
N5E C25E 1_555 1_555
C25E H25E 1_555 1_555
C26E C25E 1_555 1_555
H26E C26E 1_555 1_555
C27E C26E 1_555 1_555
C28E C27E 1_555 1_555
H27E C28E 1_555 1_555
C29E N5E 1_555 1_555
H28E C29E 1_555 1_555
C30E C24E 1_555 1_555
H29E C30E 1_555 1_555
H30E C30E 1_555 1_555
S1E O1E 1_555 1_555
O1E Cu1 1_555 1_555
O2E S1E 1_555 1_555
O3E S1E 1_555 1_555
O4E S1E 1_555 1_555
N1E Cu1 1_555 1_555
N3D Cu2 1_555 1_555
N5D Cu2 1_555 1_555
O2C Cu2 1_555 1_555
O2G Cu2 1_555 1_555
Cu2C O2 1_555 1_555
Cu1C N1F 1_555 1_555
Cu2A N3E 1_555 1_555
Cu2A_2 N5E 1_555 1_555
Cu2B O2E 1_555 1_555
C4 C5 1_555 1_555
C16 C17 1_555 1_555
C22 C23 1_555 1_555
C27 C30 1_555 1_555
C28 C29 1_555 1_555
C5F C4F 1_555 1_555
C17E C16E 1_555 1_555
C22E C23E 1_555 1_555
C27E C30E 1_555 1_555
C28E C29E 1_555 1_555

#END
