
#######################################################################
#
#                 Cambridge Crystallographic Data Centre
#                                CCDC 
#
#######################################################################
#
# If this CIF has been generated from an entry in the Cambridge 
# Structural Database, then it will include bibliographic, chemical, 
# crystal, experimental, refinement or atomic coordinate data resulting 
# from the CCDC's data processing and validation procedures.
#
#######################################################################

data_XEFPUV
_symmetry_cell_setting           tetragonal
_symmetry_space_group_name_H-M   'P 4 21 2'
_symmetry_Int_Tables_number      90
_space_group_name_Hall           'P 4ab 2ab'
loop_
_symmetry_equiv_pos_site_id
_symmetry_equiv_pos_as_xyz
1 x,y,z
2 1/2-y,1/2+x,z
3 -x,-y,z
4 1/2+y,1/2-x,z
5 1/2+x,1/2-y,-z
6 y,x,-z
7 1/2-x,1/2+y,-z
8 -y,-x,-z
_cell_length_a                   16.3498(3)
_cell_length_b                   16.3498(3)
_cell_length_c                   16.8924(7)
_cell_angle_alpha                90
_cell_angle_beta                 90
_cell_angle_gamma                90
_cell_volume                     4515.61
loop_
_atom_site_label
_atom_site_type_symbol
_atom_site_fract_x
_atom_site_fract_y
_atom_site_fract_z
C8 C 0.2631(2) 0.1753(2) 0.34963(19)
H7 H 0.2688 0.2205 0.3166
C9 C 0.2571(2) 0.0992(2) 0.45184(18)
C10 C 0.2569(3) 0.0699(2) 0.5352(2)
H8 H 0.2065 0.0858 0.5613
H9 H 0.3025 0.0934 0.5641
C11 C 0.2515(3) -0.0634(2) 0.6149(2)
C12 C 0.2645(2) -0.02462(19) 0.53265(18)
H10 H 0.3207 -0.0372 0.5166
C13 C 0.2274(3) -0.0394(2) 0.3923(2)
H11 H 0.1811 -0.0531 0.3589
H12 H 0.2749 -0.0690 0.3731
C14 C 0.2431(3) 0.0503(2) 0.3893(2)
Cd2 Cd 0.293590(12) 0.293590(12) 0.5000
N4 N 0.2475(2) 0.09951(17) 0.32367(16)
H15 H 0.2415 0.0846 0.2752
N5 N 0.26944(18) 0.17848(16) 0.42731(14)
N6 N 0.21025(19) -0.06281(17) 0.47421(15)
H16 H 0.1591 -0.0511 0.4988
O2 O 0.2607(3) -0.01900(18) 0.67268(15)
O3 O 0.23254(19) -0.13693(14) 0.61815(13)
C8E C 0.1753(2) 0.2631(2) 0.65037(19)
H7E H 0.2205 0.2688 0.6834
C9E C 0.0992(2) 0.2571(2) 0.54816(18)
C10E C 0.0699(2) 0.2569(3) 0.4648(2)
H8E H 0.0858 0.2065 0.4387
H9E H 0.0934 0.3025 0.4359
C11E C -0.0634(2) 0.2515(3) 0.3851(2)
C12E C -0.02462(19) 0.2645(2) 0.46735(18)
H10E H -0.0372 0.3207 0.4834
C13E C -0.0394(2) 0.2274(3) 0.6077(2)
H11E H -0.0531 0.1811 0.6411
H12E H -0.0690 0.2749 0.6269
C14E C 0.0503(2) 0.2431(3) 0.6107(2)
Cd2A Cd 0.206410(12) -0.206410(12) 0.5000
Cd2C Cd -0.206410(12) 0.206410(12) 0.5000
N4E N 0.09951(17) 0.2475(2) 0.67633(16)
H15E H 0.0846 0.2415 0.7248
N5E N 0.17848(16) 0.26944(18) 0.57269(14)
N6E N -0.06281(17) 0.21025(19) 0.52579(15)
N6C N 0.43719(17) 0.28975(19) 0.47421(15)
N6F N 0.28975(19) 0.43719(17) 0.52579(15)
H16E H -0.0511 0.1591 0.5012
H16C H 0.4489 0.3409 0.4988
H16F H 0.3409 0.4489 0.5012
O2E O -0.01900(18) 0.2607(3) 0.32732(15)
O3E O -0.13693(14) 0.23254(19) 0.38185(13)
O3C O 0.36307(14) 0.26746(19) 0.61815(13)
O3F O 0.26746(19) 0.36307(14) 0.38185(13)
C1 C 1.1504(2) 0.7581(3) 0.15299(19)
H1 H 1.1957 0.7543 0.1860
C2 C 1.0251(2) 0.7684(3) 0.1134(2)
C3 C 0.9355(2) 0.7770(4) 0.1091(3)
H2 H 0.9201 0.8333 0.1192
H3 H 0.9099 0.7428 0.1490
C4 C 0.9160(2) 0.7655(3) -0.1143(2)
C5 C 0.9560(2) 0.7863(3) -0.03408(19)
H4 H 0.9541 0.8459 -0.0284
C6 C 1.0458(2) 0.7619(3) -0.0327(2)
H5 H 1.0523 0.7072 -0.0542
H6 H 1.0776 0.7994 -0.0648
C7 C 1.0750(2) 0.7641(3) 0.0506(2)
Cd1 Cd 1.266780(11) 0.733220(11) 0.0000
N1 N 1.07463(18) 0.7651(3) 0.17913(17)
H13 H 1.0592 0.7672 0.2278
N2 N 1.15494(17) 0.7569(2) 0.07518(15)
N3 N 0.90754(17) 0.7523(2) 0.02974(16)
H14 H 0.9097 0.6894 0.0159
O1 O 0.95971(17) 0.7752(3) -0.17357(15)
O4 O 0.84292(14) 0.74444(18) -0.11616(14)
C1G C 1.2419(3) 0.8496(2) -0.15299(19)
H1G H 1.2457 0.8043 -0.1860
C2G C 1.2316(3) 0.9749(2) -0.1134(2)
C3G C 1.2230(4) 1.0645(2) -0.1091(3)
H2G H 1.1667 1.0799 -0.1192
H3G H 1.2572 1.0901 -0.1490
C4G C 1.2345(3) 1.0840(2) 0.1143(2)
C5G C 1.2137(3) 1.0440(2) 0.03408(19)
H4G H 1.1541 1.0459 0.0284
C6G C 1.2381(3) 0.9542(2) 0.0327(2)
H5G H 1.2928 0.9477 0.0542
H6G H 1.2006 0.9224 0.0648
C7G C 1.2359(3) 0.9250(2) -0.0506(2)
Cd1A Cd 0.766780(11) 0.766780(11) 0.0000
Cd1C Cd 1.233220(11) 1.233220(11) 0.0000
N1G N 1.2349(3) 0.92537(18) -0.17913(17)
H13G H 1.2328 0.9408 -0.2278
N2G N 1.2431(2) 0.84506(17) -0.07518(15)
N3G N 1.2477(2) 1.09246(17) -0.02974(16)
N3C N 1.2523(2) 0.59246(17) 0.02974(16)
N3D N 1.40754(17) 0.7477(2) -0.02974(16)
H14G H 1.3106 1.0903 -0.0159
H14C H 1.1894 0.5903 0.0159
H14D H 1.4097 0.8106 -0.0159
O1G O 1.2248(3) 1.04029(17) 0.17357(15)
O4G O 1.25556(18) 1.15708(14) 0.11616(14)
O4C O 1.24444(18) 0.65708(14) -0.11616(14)
O4D O 1.34292(14) 0.75556(18) 0.11616(14)
loop_
_geom_bond_atom_site_label_1
_geom_bond_atom_site_label_2
_geom_bond_site_symmetry_1
_geom_bond_site_symmetry_2
C1 H1 1_555 1_555
C2 C3 1_555 1_555
C3 H2 1_555 1_555
H3 C3 1_555 1_555
C4 C5 1_555 1_555
C5 H4 1_555 1_555
C6 C5 1_555 1_555
H5 C6 1_555 1_555
H6 C6 1_555 1_555
C7 C2 1_555 1_555
C8 H7 1_555 1_555
C9 C10 1_555 1_555
C10 H8 1_555 1_555
H9 C10 1_555 1_555
C11 C12 1_555 1_555
C12 C10 1_555 1_555
H10 C12 1_555 1_555
C13 H11 1_555 1_555
H12 C13 1_555 1_555
C14 C9 1_555 1_555
Cd1 N2 1_555 1_555
Cd2 N5 1_555 1_555
N1 C1 1_555 1_555
H13 N1 1_555 1_555
N2 C1 1_555 1_555
N3 C3 1_555 1_555
H14 N3 1_555 1_555
N4 C8 1_555 1_555
H15 N4 1_555 1_555
N5 C8 1_555 1_555
N6 C12 1_555 1_555
H16 N6 1_555 1_555
O1 C4 1_555 1_555
O2 C11 1_555 1_555
O3 C11 1_555 1_555
O4 C4 1_555 1_555
C1G H1G 1_555 1_555
C2G C3G 1_555 1_555
C3G H2G 1_555 1_555
H3G C3G 1_555 1_555
C4G C5G 1_555 1_555
C5G H4G 1_555 1_555
C6G C5G 1_555 1_555
H5G C6G 1_555 1_555
H6G C6G 1_555 1_555
C7G C2G 1_555 1_555
C8E H7E 1_555 1_555
C9E C10E 1_555 1_555
C10E H8E 1_555 1_555
H9E C10E 1_555 1_555
C11E C12E 1_555 1_555
C12E C10E 1_555 1_555
H10E C12E 1_555 1_555
C13E H11E 1_555 1_555
H12E C13E 1_555 1_555
C14E C9E 1_555 1_555
Cd1A N3 1_555 1_555
Cd1C N3G 1_555 1_555
Cd2A N6 1_555 1_555
Cd2C N6E 1_555 1_555
N1G C1G 1_555 1_555
H13G N1G 1_555 1_555
N2G Cd1 1_555 1_555
N3G C3G 1_555 1_555
N3C Cd1 1_555 1_555
N3D Cd1 1_555 1_555
H14G N3G 1_555 1_555
H14C N3C 1_555 1_555
H14D N3D 1_555 1_555
N4E C8E 1_555 1_555
H15E N4E 1_555 1_555
N5E Cd2 1_555 1_555
N6E C12E 1_555 1_555
N6C Cd2 1_555 1_555
N6F Cd2 1_555 1_555
H16E N6E 1_555 1_555
H16C N6C 1_555 1_555
H16F N6F 1_555 1_555
O1G C4G 1_555 1_555
O2E C11E 1_555 1_555
O3E C11E 1_555 1_555
O3C Cd2 1_555 1_555
O3F Cd2 1_555 1_555
O4G C4G 1_555 1_555
O4C Cd1 1_555 1_555
O4D Cd1 1_555 1_555
C2 N1 1_555 1_555
C5 N3 1_555 1_555
C6 C7 1_555 1_555
C7 N2 1_555 1_555
C9 N5 1_555 1_555
C13 C14 1_555 1_555
C13 N6 1_555 1_555
C14 N4 1_555 1_555
O3 Cd2A 1_555 1_555
O4 Cd1A 1_555 1_555
C1G N2G 1_555 1_555
C2G N1G 1_555 1_555
C5G N3G 1_555 1_555
C6G C7G 1_555 1_555
C7G N2G 1_555 1_555
C8E N5E 1_555 1_555
C9E N5E 1_555 1_555
C13E C14E 1_555 1_555
C13E N6E 1_555 1_555
C14E N4E 1_555 1_555
Cd1C O4G 1_555 1_555
Cd2C O3E 1_555 1_555

#END
