
#######################################################################
#
#                 Cambridge Crystallographic Data Centre
#                                CCDC 
#
#######################################################################
#
# If this CIF has been generated from an entry in the Cambridge 
# Structural Database, then it will include bibliographic, chemical, 
# crystal, experimental, refinement or atomic coordinate data resulting 
# from the CCDC's data processing and validation procedures.
#
#######################################################################

data_XEHSAF
_symmetry_cell_setting           monoclinic
_symmetry_space_group_name_H-M   'P 21/n'
_symmetry_Int_Tables_number      14
_space_group_name_Hall           '-P 2yn'
loop_
_symmetry_equiv_pos_site_id
_symmetry_equiv_pos_as_xyz
1 x,y,z
2 1/2-x,1/2+y,1/2-z
3 -x,-y,-z
4 1/2+x,1/2-y,1/2+z
_cell_length_a                   11.2790(8)
_cell_length_b                   9.8339(7)
_cell_length_c                   14.7660(11)
_cell_angle_alpha                90
_cell_angle_beta                 91.565(4)
_cell_angle_gamma                90
_cell_volume                     1637.18
loop_
_atom_site_label
_atom_site_type_symbol
_atom_site_fract_x
_atom_site_fract_y
_atom_site_fract_z
Mg1 Mg 0.24326(5) 0.92502(6) 0.86507(4)
Mg2 Mg 0.5000 1.0000 1.0000
Mg3 Mg 0.26020(5) 1.11695(6) 0.69398(4)
Mg4 Mg 0.0000 1.0000 1.0000
O1 O 0.36967(11) 1.01166(13) 0.78332(8)
O2 O 0.53938(11) 1.00580(14) 0.86466(9)
O3 O 0.34203(11) 0.74711(13) 0.88678(8)
O4 O 0.47868(11) 0.79325(13) 0.99500(9)
O5 O 0.09979(11) 0.85055(12) 0.93410(8)
O6 O 0.10589(11) 0.63027(13) 0.89509(9)
O7 O 0.19191(11) 0.80530(13) 0.75232(8)
O8 O 0.19089(12) 0.94825(13) 0.63433(9)
O9 O 0.31654(11) 1.02833(13) 0.97435(8)
O10 O 0.15042(11) 1.10367(14) 1.03717(9)
O11 O 0.15027(11) 1.08614(13) 0.80524(8)
O12 O -0.01329(12) 1.11767(14) 0.88511(9)
C1 C 0.48165(15) 1.02363(18) 0.79336(12)
H1 H 0.5246 1.0485 0.7414
C2 C 0.42266(15) 0.71342(18) 0.94530(12)
H2 H 0.4409 0.6194 0.9510
C3 C 0.06471(15) 0.72709(18) 0.93781(12)
H3 H 0.0013 0.7078 0.9769
C4 C 0.17277(15) 0.83574(18) 0.66931(12)
H4 H 0.1419 0.7661 0.6308
C5 C 0.25923(15) 1.10256(18) 1.02967(12)
H5 H 0.3043 1.1617 1.0681
C6 C 0.05075(15) 1.14304(18) 0.82073(12)
H6 H 0.0238 1.2107 0.7791
Mg1B Mg 0.75674(5) 1.07498(6) 1.13493(4)
Mg1A Mg 0.25674(5) 1.42502(6) 0.63493(4)
Mg1B_2 Mg -0.24326(5) 1.07498(6) 1.13493(4)
Mg3B Mg 0.73980(5) 0.88305(6) 1.30602(4)
Mg3A Mg 0.23980(5) 0.61695(6) 0.80602(4)
Mg3C Mg 0.76020(5) 1.38305(6) 1.19398(4)
Mg3A_2 Mg 0.23980(5) 1.61695(6) 0.80602(4)
Mg3B_2 Mg -0.26020(5) 0.88305(6) 1.30602(4)
Mg4_2 Mg 1.0000 1.0000 1.0000
Mg4C Mg 0.5000 1.5000 0.5000
O1B O 0.63033(11) 0.98834(13) 1.21668(8)
O2B O 0.46062(11) 0.99420(14) 1.13534(9)
O3B O 0.65797(11) 1.25289(13) 1.11322(8)
O3A O 0.15797(11) 1.24711(13) 0.61322(8)
O3C O 0.84203(11) 0.75289(13) 1.38678(8)
O4B O 0.52132(11) 1.20675(13) 1.00500(9)
O5A O 0.40021(11) 1.35055(12) 0.56590(8)
O5B O -0.09979(11) 1.14945(12) 1.06590(8)
O5B_2 O 0.90021(11) 1.14945(12) 1.06590(8)
O6A O 0.39411(11) 1.13027(13) 0.60491(9)
O6C O 0.60589(11) 0.86973(13) 1.39509(9)
O7A O 0.30809(11) 1.30530(13) 0.74768(8)
O7B O 0.80809(11) 1.19470(13) 1.24768(8)
O7C O 0.69191(11) 0.69470(13) 1.25232(8)
O8A O 0.30911(12) 1.44825(13) 0.86567(9)
O8B O 0.80911(12) 1.05175(13) 1.36567(9)
O9B O 0.68346(11) 0.97167(13) 1.02565(8)
O10B O 0.84958(11) 0.89633(14) 0.96283(9)
O10B_2 O -0.15042(11) 0.89633(14) 0.96283(9)
O11B O -0.15027(11) 0.91386(13) 1.19476(8)
O11B_2 O 0.84973(11) 0.91386(13) 1.19476(8)
O12B O 0.01329(12) 0.88233(14) 1.11489(9)
C1B C 0.51835(15) 0.97637(18) 1.20664(12)
H1B H 0.4754 0.9515 1.2586
C2B C 0.57734(15) 1.28658(18) 1.05470(12)
H2B H 0.5591 1.3806 1.0490
C3A C 0.43529(15) 1.22709(18) 0.56219(12)
H3A H 0.4987 1.2078 0.5231
C4A C 0.32723(15) 1.33574(18) 0.83069(12)
H4A H 0.3581 1.2661 0.8692
C5B C 0.74077(15) 0.89744(18) 0.97033(12)
H5B H 0.6957 0.8383 0.9319
C6B C -0.05075(15) 0.85696(18) 1.17927(12)
H6B H -0.0238 0.7893 1.2209
C7 C 0.8195(2) 0.9824(4) 0.66166(17)
O13 O 0.8797(3) 1.0859(4) 0.66687(18)
C8 C 0.7151(3) 0.9826(5) 0.5984(2)
H7 H 0.6677 1.0645 0.6084
H8 H 0.6667 0.9017 0.6091
H9 H 0.7420 0.9818 0.5358
C9 C 0.8476(4) 0.8615(5) 0.7162(3)
H10 H 0.8630 0.7845 0.6761
H11 H 0.7805 0.8399 0.7544
H12 H 0.9181 0.8793 0.7546
loop_
_geom_bond_atom_site_label_1
_geom_bond_atom_site_label_2
_geom_bond_site_symmetry_1
_geom_bond_site_symmetry_2
Mg1 O1 1_555 1_555
Mg2 O2 1_555 1_555
Mg3 O1 1_555 1_555
Mg4 O5 1_555 1_555
O1 C1 1_555 1_555
O2 C1 1_555 1_555
O3 Mg1 1_555 1_555
O4 Mg2 1_555 1_555
O5 Mg1 1_555 1_555
O6 C3 1_555 1_555
O7 Mg1 1_555 1_555
O8 Mg3 1_555 1_555
O9 Mg1 1_555 1_555
O10 Mg4 1_555 1_555
O11 Mg1 1_555 1_555
O12 Mg4 1_555 1_555
C1 H1 1_555 1_555
C2 O3 1_555 1_555
H2 C2 1_555 1_555
C3 O5 1_555 1_555
H3 C3 1_555 1_555
C4 O7 1_555 1_555
H4 C4 1_555 1_555
C5 O9 1_555 1_555
H5 C5 1_555 1_555
C6 O11 1_555 1_555
H6 C6 1_555 1_555
C7 O13 1_555 1_555
C8 C7 1_555 1_555
H7 C8 1_555 1_555
H8 C8 1_555 1_555
H9 C8 1_555 1_555
C9 C7 1_555 1_555
H10 C9 1_555 1_555
H11 C9 1_555 1_555
H12 C9 1_555 1_555
Mg1B O1B 1_555 1_555
Mg1A O3A 1_555 1_555
Mg1B_2 O5B 1_555 1_555
Mg3B O1B 1_555 1_555
Mg3A O3 1_555 1_555
Mg3C O3B 1_555 1_555
Mg3A_2 O8A 1_555 1_555
Mg3B_2 O11B 1_555 1_555
Mg4_2 O5B_2 1_555 1_555
Mg4C O5A 1_555 1_555
O1B C1B 1_555 1_555
O2B Mg2 1_555 1_555
O3B Mg1B 1_555 1_555
O3A Mg3 1_555 1_555
O3C Mg3B 1_555 1_555
O4B Mg2 1_555 1_555
O5A Mg1A 1_555 1_555
O5B Mg4 1_555 1_555
O5B_2 Mg1B 1_555 1_555
O6A Mg3 1_555 1_555
O6C Mg3B 1_555 1_555
O7A Mg3 1_555 1_555
O7B Mg1B 1_555 1_555
O7C Mg3B 1_555 1_555
O8A C4A 1_555 1_555
O8B Mg3B 1_555 1_555
O9B Mg2 1_555 1_555
O10B Mg4_2 1_555 1_555
O10B_2 Mg4 1_555 1_555
O11B Mg1B_2 1_555 1_555
O11B_2 Mg1B 1_555 1_555
O12B Mg4 1_555 1_555
C1B O2B 1_555 1_555
H1B C1B 1_555 1_555
C2B O3B 1_555 1_555
H2B C2B 1_555 1_555
C3A O5A 1_555 1_555
H3A C3A 1_555 1_555
C4A O7A 1_555 1_555
H4A C4A 1_555 1_555
C5B O9B 1_555 1_555
H5B C5B 1_555 1_555
C6B O11B 1_555 1_555
H6B C6B 1_555 1_555
Mg2 O9 1_555 1_555
Mg3 O11 1_555 1_555
O4 C2 1_555 1_555
O6 Mg3A 1_555 1_555
O7 Mg3A 1_555 1_555
O8 C4 1_555 1_555
O10 C5 1_555 1_555
O12 C6 1_555 1_555
Mg1B O9B 1_555 1_555
Mg1A O7A 1_555 1_555
Mg3B O11B_2 1_555 1_555
Mg3C O7B 1_555 1_555
O4B C2B 1_555 1_555
O6A C3A 1_555 1_555
O10B C5B 1_555 1_555
O12B C6B 1_555 1_555

#END
