
#######################################################################
#
#                 Cambridge Crystallographic Data Centre
#                                CCDC 
#
#######################################################################
#
# If this CIF has been generated from an entry in the Cambridge 
# Structural Database, then it will include bibliographic, chemical, 
# crystal, experimental, refinement or atomic coordinate data resulting 
# from the CCDC's data processing and validation procedures.
#
#######################################################################

data_XEHSIN
_symmetry_cell_setting           monoclinic
_symmetry_space_group_name_H-M   'P 21/n'
_symmetry_Int_Tables_number      14
_space_group_name_Hall           '-P 2yn'
loop_
_symmetry_equiv_pos_site_id
_symmetry_equiv_pos_as_xyz
1 x,y,z
2 1/2-x,1/2+y,1/2-z
3 -x,-y,-z
4 1/2+x,1/2-y,1/2+z
_cell_length_a                   11.2962(3)
_cell_length_b                   9.8184(3)
_cell_length_c                   14.5847(4)
_cell_angle_alpha                90
_cell_angle_beta                 91.662(1)
_cell_angle_gamma                90
_cell_volume                     1616.92
loop_
_atom_site_label
_atom_site_type_symbol
_atom_site_fract_x
_atom_site_fract_y
_atom_site_fract_z
Mg1 Mg 0.25645(6) 0.42040(8) 0.63511(5)
Mg2 Mg 0.0000 0.5000 0.5000
Mg3 Mg 0.24017(7) 0.61114(8) 0.80926(5)
Mg4 Mg 0.5000 0.5000 0.5000
O1 O 0.13082(14) 0.50634(16) 0.71920(11)
O2 O -0.03784(14) 0.50513(19) 0.63663(12)
O3 O 0.15593(14) 0.24386(16) 0.61252(11)
O4 O 0.01707(15) 0.29308(17) 0.50534(12)
O5 O 0.39925(14) 0.34790(17) 0.56356(11)
O6 O 0.38827(14) 0.12614(17) 0.59736(11)
O7 O 0.30816(14) 0.29929(16) 0.74703(11)
O8 O 0.31390(15) 0.44223(17) 0.86643(11)
O9 O 0.18394(14) 0.52563(17) 0.52526(11)
O10 O 0.34929(15) 0.60325(18) 0.46306(12)
O11 O 0.34969(14) 0.58114(16) 0.69622(11)
O12 O 0.51512(15) 0.61074(19) 0.61867(12)
C1 C 0.0194(2) 0.5205(2) 0.70920(16)
H1 H -0.0233 0.5450 0.7619
C2 C 0.0734(2) 0.2126(2) 0.55455(16)
H2 H 0.0536 0.1188 0.5489
C3 C 0.4313(2) 0.2239(2) 0.55692(16)
H3 H 0.4942 0.2049 0.5170
C4 C 0.3297(2) 0.3293(2) 0.83079(16)
H4 H 0.3607 0.2590 0.8693
C5 C 0.2407(2) 0.5998(2) 0.46975(16)
H5 H 0.1953 0.6574 0.4300
C6 C 0.4501(2) 0.6352(2) 0.68333(16)
H6 H 0.4776 0.7001 0.7273
Mg1B Mg -0.25645(6) 0.57960(8) 0.36489(5)
Mg1A Mg 0.24355(6) 0.92040(8) 0.86489(5)
Mg1B_2 Mg 0.74355(6) 0.57960(8) 0.36489(5)
Mg3B Mg -0.24017(7) 0.38886(8) 0.19074(5)
Mg3A Mg 0.25983(7) 0.11114(8) 0.69074(5)
Mg3C Mg -0.25983(7) 0.88886(8) 0.30926(5)
Mg3A_2 Mg 0.25983(7) 1.11114(8) 0.69074(5)
Mg3B_2 Mg 0.75983(7) 0.38886(8) 0.19074(5)
Mg4_2 Mg -0.5000 0.5000 0.5000
Mg4C Mg 0.0000 1.0000 1.0000
O1B O -0.13082(14) 0.49366(16) 0.28080(11)
O2B O 0.03784(14) 0.49487(19) 0.36337(12)
O3B O -0.15593(14) 0.75614(16) 0.38748(11)
O3A O 0.34407(14) 0.74386(16) 0.88748(11)
O3C O -0.34407(14) 0.25614(16) 0.11252(11)
O4B O -0.01707(15) 0.70692(17) 0.49466(12)
O5A O 0.10075(14) 0.84790(17) 0.93644(11)
O5B O 0.60075(14) 0.65210(17) 0.43644(11)
O5B_2 O -0.39925(14) 0.65210(17) 0.43644(11)
O6A O 0.11173(14) 0.62614(17) 0.90264(11)
O6C O -0.11173(14) 0.37386(17) 0.09736(11)
O7A O 0.19184(14) 0.79929(16) 0.75297(11)
O7B O -0.30816(14) 0.70071(16) 0.25297(11)
O7C O -0.19184(14) 0.20071(16) 0.24703(11)
O8A O 0.18610(15) 0.94223(17) 0.63357(11)
O8B O -0.31390(15) 0.55777(17) 0.13357(11)
O9B O -0.18394(14) 0.47437(17) 0.47474(11)
O10B O -0.34929(15) 0.39675(18) 0.53694(12)
O10B_2 O 0.65071(15) 0.39675(18) 0.53694(12)
O11B O 0.65031(14) 0.41886(16) 0.30378(11)
O11B_2 O -0.34969(14) 0.41886(16) 0.30378(11)
O12B O 0.48488(15) 0.38926(19) 0.38133(12)
C1B C -0.0194(2) 0.4795(2) 0.29080(16)
H1B H 0.0233 0.4550 0.2381
C2B C -0.0734(2) 0.7874(2) 0.44545(16)
H2B H -0.0536 0.8812 0.4511
C3A C 0.0687(2) 0.7239(2) 0.94308(16)
H3A H 0.0058 0.7049 0.9830
C4A C 0.1703(2) 0.8293(2) 0.66921(16)
H4A H 0.1393 0.7590 0.6307
C5B C -0.2407(2) 0.4002(2) 0.53025(16)
H5B H -0.1953 0.3426 0.5700
C6B C 0.5499(2) 0.3648(2) 0.31667(16)
H6B H 0.5224 0.2999 0.2727
O13 O 0.8507(5) 0.7668(8) 0.7846(4)
H7 H 0.7829 0.7337 0.7908
C7 C 0.8490(14) 0.8580(16) 0.7077(7)
H8 H 0.8960 0.9398 0.7248
H9 H 0.8890 0.8129 0.6564
C8 C 0.7572(19) 0.893(3) 0.6820(16)
H10 H 0.7065 0.8129 0.6715
H11 H 0.7645 0.9431 0.6245
H12 H 0.7220 0.9518 0.7280
O14? O 0.8516(6) 1.1167(7) 0.6654(4)
H13? H 0.8049 1.1541 0.7015
C9? C 0.8386(15) 0.9724(19) 0.6705(16)
H14? H 0.9154 0.9352 0.6511
H15? H 0.8343 0.9521 0.7368
C10? C 0.7526(12) 0.889(4) 0.6281(12)
H16? H 0.6758 0.9052 0.6559
H17? H 0.7749 0.7933 0.6363
H18? H 0.7467 0.9103 0.5625
loop_
_geom_bond_atom_site_label_1
_geom_bond_atom_site_label_2
_geom_bond_site_symmetry_1
_geom_bond_site_symmetry_2
Mg1 O1 1_555 1_555
Mg2 O2 1_555 1_555
Mg3 O1 1_555 1_555
Mg4 O5 1_555 1_555
O1 C1 1_555 1_555
O2 C1 1_555 1_555
O3 Mg1 1_555 1_555
O4 Mg2 1_555 1_555
O5 Mg1 1_555 1_555
O6 C3 1_555 1_555
O7 Mg1 1_555 1_555
O8 Mg3 1_555 1_555
O9 Mg1 1_555 1_555
O10 Mg4 1_555 1_555
O11 Mg1 1_555 1_555
O12 Mg4 1_555 1_555
C1 H1 1_555 1_555
C2 O3 1_555 1_555
H2 C2 1_555 1_555
C3 O5 1_555 1_555
H3 C3 1_555 1_555
C4 O7 1_555 1_555
H4 C4 1_555 1_555
C5 O9 1_555 1_555
H5 C5 1_555 1_555
C6 O11 1_555 1_555
H6 C6 1_555 1_555
O13 H7 1_555 1_555
C7 O13 1_555 1_555
H8 C7 1_555 1_555
H9 C7 1_555 1_555
C8 C7 1_555 1_555
H10 C8 1_555 1_555
H11 C8 1_555 1_555
H12 C8 1_555 1_555
Mg1B O1B 1_555 1_555
Mg1A O3A 1_555 1_555
Mg1B_2 O5B 1_555 1_555
Mg3B O1B 1_555 1_555
Mg3A O3 1_555 1_555
Mg3C O3B 1_555 1_555
Mg3A_2 O8A 1_555 1_555
Mg3B_2 O11B 1_555 1_555
Mg4_2 O5B_2 1_555 1_555
Mg4C O5A 1_555 1_555
O1B C1B 1_555 1_555
O2B Mg2 1_555 1_555
O3B Mg1B 1_555 1_555
O3A Mg3 1_555 1_555
O3C Mg3B 1_555 1_555
O4B Mg2 1_555 1_555
O5A Mg1A 1_555 1_555
O5B Mg4 1_555 1_555
O5B_2 Mg1B 1_555 1_555
O6A Mg3 1_555 1_555
O6C Mg3B 1_555 1_555
O7A Mg3 1_555 1_555
O7B Mg1B 1_555 1_555
O7C Mg3B 1_555 1_555
O8A C4A 1_555 1_555
O8B Mg3B 1_555 1_555
O9B Mg2 1_555 1_555
O10B Mg4_2 1_555 1_555
O10B_2 Mg4 1_555 1_555
O11B Mg1B_2 1_555 1_555
O11B_2 Mg1B 1_555 1_555
O12B Mg4 1_555 1_555
C1B O2B 1_555 1_555
H1B C1B 1_555 1_555
C2B O3B 1_555 1_555
H2B C2B 1_555 1_555
C3A O5A 1_555 1_555
H3A C3A 1_555 1_555
C4A O7A 1_555 1_555
H4A C4A 1_555 1_555
C5B O9B 1_555 1_555
H5B C5B 1_555 1_555
C6B O11B 1_555 1_555
H6B C6B 1_555 1_555
Mg2 O9 1_555 1_555
Mg3 O11 1_555 1_555
O4 C2 1_555 1_555
O6 Mg3A 1_555 1_555
O7 Mg3A 1_555 1_555
O8 C4 1_555 1_555
O10 C5 1_555 1_555
O12 C6 1_555 1_555
Mg1B O9B 1_555 1_555
Mg1A O7A 1_555 1_555
Mg3B O11B_2 1_555 1_555
Mg3C O7B 1_555 1_555
O4B C2B 1_555 1_555
O6A C3A 1_555 1_555
O10B C5B 1_555 1_555
O12B C6B 1_555 1_555

#END
