
#######################################################################
#
#                 Cambridge Crystallographic Data Centre
#                                CCDC 
#
#######################################################################
#
# If this CIF has been generated from an entry in the Cambridge 
# Structural Database, then it will include bibliographic, chemical, 
# crystal, experimental, refinement or atomic coordinate data resulting 
# from the CCDC's data processing and validation procedures.
#
#######################################################################

data_XEJVOZ
_symmetry_cell_setting           rhombohedral
_symmetry_space_group_name_H-M   'R 3 c'
_symmetry_Int_Tables_number      161
_space_group_name_Hall           'R 3 -2"c'
loop_
_symmetry_equiv_pos_site_id
_symmetry_equiv_pos_as_xyz
1 x,y,z
2 -y,x-y,z
3 -x+y,-x,z
4 -y,-x,1/2+z
5 -x+y,y,1/2+z
6 x,x-y,1/2+z
7 2/3+x,1/3+y,1/3+z
8 2/3-y,1/3+x-y,1/3+z
9 2/3-x+y,1/3-x,1/3+z
10 2/3-y,1/3-x,5/6+z
11 2/3-x+y,1/3+y,5/6+z
12 2/3+x,1/3+x-y,5/6+z
13 1/3+x,2/3+y,2/3+z
14 1/3-y,2/3+x-y,2/3+z
15 1/3-x+y,2/3-x,2/3+z
16 1/3-y,2/3-x,1/6+z
17 1/3-x+y,2/3+y,1/6+z
18 1/3+x,2/3+x-y,1/6+z
_cell_length_a                   27.855(4)
_cell_length_b                   27.855(4)
_cell_length_c                   9.5354(19)
_cell_angle_alpha                90
_cell_angle_beta                 90
_cell_angle_gamma                120
_cell_volume                     6407.31
loop_
_atom_site_label
_atom_site_type_symbol
_atom_site_fract_x
_atom_site_fract_y
_atom_site_fract_z
Sr1 Sr 0.76460(2) 0.81781(2) -0.18169(4)
Sr2 Sr 0.62766(2) 0.84105(2) 0.01534(5)
O1 O 0.69612(16) 0.79957(16) 0.0221(4)
O2 O 0.71503(17) 0.85573(17) 0.2023(5)
O3 O 0.77253(18) 0.75093(18) -0.0203(4)
O4 O 0.74201(19) 0.66858(17) 0.0744(4)
O5 O 0.83723(18) 0.88942(17) -0.3403(4)
O6 O 0.8231(2) 0.9264(2) -0.5311(4)
O7 O 0.80839(18) 0.77240(17) -0.3155(4)
O8 O 0.85341(16) 0.73702(17) -0.4232(4)
N1 N 0.7022(2) 0.7678(2) 0.3804(5)
N2 N 0.7261(2) 0.7058(2) 0.3290(5)
H1 H 0.7328 0.6788 0.3265
N3 N 0.8544(2) 0.8671(2) -0.7019(5)
H2 H 0.852(3) 0.893(2) -0.742(7)
N4 N 0.8631(2) 0.7932(2) -0.6642(5)
C1 C 0.7090(2) 0.7276(2) 0.4289(6)
H3 H 0.7026 0.7155 0.5216
C2 C 0.7162(2) 0.7725(2) 0.2398(5)
C3 C 0.7319(2) 0.7337(2) 0.2072(5)
C4 C 0.7098(2) 0.8127(2) 0.1498(6)
C5 C 0.7496(2) 0.7163(2) 0.0780(6)
C6 C 0.8668(3) 0.8301(3) -0.7578(6)
H4 H 0.8768 0.8305 -0.8510
C7 C 0.8435(2) 0.8550(2) -0.5621(6)
C8 C 0.8482(2) 0.8080(2) -0.5408(6)
C9 C 0.8334(2) 0.8923(2) -0.4704(6)
C10 C 0.8365(2) 0.7711(2) -0.4178(6)
Sr1E Sr 0.76460(2) 0.94679(3) 0.31831(4)
Sr1H Sr 0.71988(3) 0.56873(2) 0.15164(4)
Sr1E_2 Sr 0.76460(2) 0.94679(3) -0.68169(4)
Sr2I Sr 0.82562(2) 0.70567(2) -0.15133(5)
Sr2H Sr 0.88006(3) 0.70567(2) -0.65133(5)
Sr2E Sr 0.62766(2) 0.78661(3) 0.51534(5)
O2E O 0.71503(17) 0.85930(24) -0.2977(5)
O3O O 0.58240(18) 0.89414(18) 0.1464(4)
O4M O 0.66475(17) 0.74010(25) -0.2589(4)
O4O O 0.66475(17) 0.92466(19) 0.2411(4)
O6E O 0.8231(2) 0.8967(3) -0.0311(4)
O7O O 0.56093(17) 0.85828(18) -0.1488(4)
O8O O 0.59631(17) 0.81326(16) -0.2565(4)
O8M O 0.59631(17) 0.78306(23) 0.2435(4)
N1E N 0.7022(2) 0.9344(3) -0.1196(5)
N4M N 0.5401(2) 0.7366(3) 0.0025(5)
loop_
_geom_bond_atom_site_label_1
_geom_bond_atom_site_label_2
_geom_bond_site_symmetry_1
_geom_bond_site_symmetry_2
Sr1 O1 1_555 1_555
Sr2 O1 1_555 1_555
O1 C4 1_555 1_555
O2 Sr2 1_555 1_555
O3 Sr1 1_555 1_555
O4 C5 1_555 1_555
O5 Sr1 1_555 1_555
O6 C9 1_555 1_555
O7 Sr1 1_555 1_555
O8 C10 1_555 1_555
N1 C1 1_555 1_555
N2 H1 1_555 1_555
N3 H2 1_555 1_555
N4 C6 1_555 1_555
C1 N2 1_555 1_555
H3 C1 1_555 1_555
C2 N1 1_555 1_555
C3 N2 1_555 1_555
C4 O2 1_555 1_555
C5 O3 1_555 1_555
C6 N3 1_555 1_555
H4 C6 1_555 1_555
C7 N3 1_555 1_555
C8 N4 1_555 1_555
C9 O5 1_555 1_555
C10 O7 1_555 1_555
Sr1E O2 1_555 1_555
Sr1H O4 1_555 1_555
Sr1E_2 O6 1_555 1_555
Sr2I O3 1_555 1_555
Sr2H O8 1_555 1_555
Sr2E N1 1_555 1_555
O2E Sr1 1_555 1_555
O3O Sr2 1_555 1_555
O4M Sr1 1_555 1_555
O4O Sr2 1_555 1_555
O6E Sr1 1_555 1_555
O7O Sr2 1_555 1_555
O8O Sr2 1_555 1_555
O8M Sr2 1_555 1_555
N1E Sr2 1_555 1_555
N4M Sr2 1_555 1_555
O4 Sr2I 1_555 1_555
O7 Sr2I 1_555 1_555
O8 Sr2I 1_555 1_555
N4 Sr2H 1_555 1_555
C2 C3 1_555 1_555
C2 C4 1_555 1_555
C3 C5 1_555 1_555
C7 C8 1_555 1_555
C7 C9 1_555 1_555
C8 C10 1_555 1_555
Sr1E O4O 1_555 1_555
Sr2E O8M 1_555 1_555

#END
