
#######################################################################
#
#                 Cambridge Crystallographic Data Centre
#                                CCDC 
#
#######################################################################
#
# If this CIF has been generated from an entry in the Cambridge 
# Structural Database, then it will include bibliographic, chemical, 
# crystal, experimental, refinement or atomic coordinate data resulting 
# from the CCDC's data processing and validation procedures.
#
#######################################################################

data_XEJXAN
_symmetry_cell_setting           orthorhombic
_symmetry_space_group_name_H-M   'P 21 21 2'
_symmetry_Int_Tables_number      18
_space_group_name_Hall           'P 2 2ab'
loop_
_symmetry_equiv_pos_site_id
_symmetry_equiv_pos_as_xyz
1 x,y,z
2 -x,-y,z
3 1/2+x,1/2-y,-z
4 1/2-x,1/2+y,-z
_cell_length_a                   22.186(1)
_cell_length_b                   6.731(1)
_cell_length_c                   7.575(1)
_cell_angle_alpha                90
_cell_angle_beta                 90
_cell_angle_gamma                90
_cell_volume                     1131.2
loop_
_atom_site_label
_atom_site_type_symbol
_atom_site_fract_x
_atom_site_fract_y
_atom_site_fract_z
Ni1 Ni 0.71106(2) -0.45767(8) 0.75403(8)
O1 O 0.75175(16) -0.2494(5) 0.5971(5)
O2 O 0.82702(15) -0.1013(6) 0.4530(5)
C1 C 0.8067(2) -0.2083(8) 0.5743(7)
C2 C 0.8553(2) -0.2865(8) 0.6996(7)
H1 H 0.8845 -0.3641 0.6291
H2 H 0.8772 -0.1709 0.7487
C3 C 0.8349(2) -0.4140(8) 0.8515(7)
H3 H 0.8711 -0.4694 0.9131
O3 O 0.79938(14) -0.5761(5) 0.7808(5)
H4 H 0.8126 -0.7065 0.7526
C4 C 0.7978(2) -0.2892(8) 0.9838(6)
O4 O 0.74099(16) -0.3132(6) 0.9794(5)
O5 O 0.82546(15) -0.1750(6) 1.0823(5)
N1 N 0.63351(16) -0.2873(6) 0.7725(5)
C5 C 0.6343(5) -0.0899(11) 0.7308(14)
H5 H 0.6714 -0.0306 0.6961
C6 C 0.5828(4) 0.0269(18) 0.7376(15)
H6 H 0.5847 0.1636 0.7071
C7 C 0.5280(2) -0.0581(7) 0.7897(7)
C8 C 0.5269(5) -0.2607(13) 0.830(2)
H7 H 0.4901 -0.3237 0.8614
C9 C 0.5802(4) -0.3691(17) 0.824(2)
H8 H 0.5793 -0.5054 0.8561
Ni1C Ni 0.78894(2) -0.95767(8) 0.24597(8)
Ni1C_2 Ni 0.78894(2) 0.04233(8) 0.24597(8)
Ni1C_3 Ni 0.78894(2) 0.04233(8) 1.24597(8)
Ni1A Ni 0.28894(2) 0.45767(8) 0.75403(8)
Ni1_2 Ni 0.71106(2) -0.45767(8) -0.24597(8)
O1C O 0.74825(16) -0.7494(5) 0.4029(5)
O2C O 0.67298(15) -0.6013(6) 0.5470(5)
O2_2 O 0.82702(15) -1.1013(6) 0.4530(5)
C1C C 0.6933(2) -0.7083(8) 0.4257(7)
C2C C 0.6447(2) -0.7865(8) 0.3004(7)
H1C H 0.6155 -0.8641 0.3709
H2C H 0.6228 -0.6709 0.2513
C3C C 0.6651(2) -0.9140(8) 0.1485(7)
H3C H 0.6289 -0.9694 0.0869
O3C O 0.70062(14) -1.0761(5) 0.2192(5)
H4C H 0.6874 -1.2065 0.2474
C4C C 0.7022(2) -0.7892(8) 0.0162(6)
O4C O 0.75901(16) -0.8132(6) 0.0206(5)
O5C O 0.67454(15) -0.6750(6) -0.0823(5)
O5C_2 O 0.67454(15) -0.6750(6) 0.9177(5)
O5_2 O 0.82546(15) -1.1750(6) 0.0823(5)
N1A N 0.36649(16) 0.2873(6) 0.7725(5)
N1C N 0.86649(16) -0.7873(6) 0.2275(5)
C5A C 0.3657(5) 0.0899(11) 0.7308(14)
H5A H 0.3286 0.0306 0.6961
C6A C 0.4172(4) -0.0269(18) 0.7376(15)
H6A H 0.4153 -0.1636 0.7071
C7A C 0.4720(2) 0.0581(7) 0.7897(7)
C8A C 0.4731(5) 0.2607(13) 0.830(2)
H7A H 0.5099 0.3237 0.8614
C9A C 0.4198(4) 0.3691(17) 0.824(2)
H8A H 0.4207 0.5054 0.8561
O6 O 0.5000 -0.5000 1.2253(14)
O7 O 0.6059(5) -0.3181(14) 1.3562(13)
C10? C 0.6285(7) -0.1112(17) 0.683(2)
C11? C 0.5778(5) 0.008(3) 0.694(2)
C12? C 0.5280(2) -0.0581(7) 0.7897(7)
C13? C 0.5353(6) -0.228(2) 0.893(2)
C14? C 0.5876(5) -0.342(2) 0.885(2)
H9? H 0.6611 -0.0691 0.6109
H10? H 0.5769 0.1331 0.6366
H11? H 0.5037 -0.2677 0.9699
H12? H 0.5917 -0.4561 0.9574
N2? N 0.63351(16) -0.2873(6) 0.7725(5)
loop_
_geom_bond_atom_site_label_1
_geom_bond_atom_site_label_2
_geom_bond_site_symmetry_1
_geom_bond_site_symmetry_2
Ni1 O1 1_555 1_555
O1 C1 1_555 1_555
O2 C1 1_555 1_555
C1 C2 1_555 1_555
C2 H1 1_555 1_555
H2 C2 1_555 1_555
C3 C2 1_555 1_555
H3 C3 1_555 1_555
O3 Ni1 1_555 1_555
H4 O3 1_555 1_555
C4 C3 1_555 1_555
O4 Ni1 1_555 1_555
O5 C4 1_555 1_555
N1 Ni1 1_555 1_555
C5 N1 1_555 1_555
H5 C5 1_555 1_555
C6 C5 1_555 1_555
H6 C6 1_555 1_555
C7 C6 1_555 1_555
C8 C7 1_555 1_555
H7 C8 1_555 1_555
C9 N1 1_555 1_555
H8 C9 1_555 1_555
Ni1C O1C 1_555 1_555
Ni1C_2 O2 1_555 1_555
Ni1C_3 O5 1_555 1_555
Ni1A N1A 1_555 1_555
Ni1_2 O5C 1_555 1_555
O1C C1C 1_555 1_555
O2C Ni1 1_555 1_555
O2_2 Ni1C 1_555 1_555
C1C O2C 1_555 1_555
C2C C1C 1_555 1_555
H1C C2C 1_555 1_555
H2C C2C 1_555 1_555
C3C C2C 1_555 1_555
H3C C3C 1_555 1_555
O3C Ni1C 1_555 1_555
H4C O3C 1_555 1_555
C4C C3C 1_555 1_555
O4C Ni1C 1_555 1_555
O5C C4C 1_555 1_555
O5C_2 Ni1 1_555 1_555
O5_2 Ni1C 1_555 1_555
N1A C5A 1_555 1_555
N1C Ni1C 1_555 1_555
C5A H5A 1_555 1_555
C6A C5A 1_555 1_555
H6A C6A 1_555 1_555
C7A C7 1_555 1_555
C8A C7A 1_555 1_555
H7A C8A 1_555 1_555
C9A N1A 1_555 1_555
H8A C9A 1_555 1_555
C3 O3 1_555 1_555
C4 O4 1_555 1_555
C8 C9 1_555 1_555
C3C O3C 1_555 1_555
C4C O4C 1_555 1_555
C6A C7A 1_555 1_555
C8A C9A 1_555 1_555

#END
