
#######################################################################
#
#                 Cambridge Crystallographic Data Centre
#                                CCDC 
#
#######################################################################
#
# If this CIF has been generated from an entry in the Cambridge 
# Structural Database, then it will include bibliographic, chemical, 
# crystal, experimental, refinement or atomic coordinate data resulting 
# from the CCDC's data processing and validation procedures.
#
#######################################################################

data_XEKMIL
_symmetry_cell_setting           monoclinic
_symmetry_space_group_name_H-M   'P 21/n'
_symmetry_Int_Tables_number      14
_space_group_name_Hall           '-P 2yn'
loop_
_symmetry_equiv_pos_site_id
_symmetry_equiv_pos_as_xyz
1 x,y,z
2 1/2-x,1/2+y,1/2-z
3 -x,-y,-z
4 1/2+x,1/2-y,1/2+z
_cell_length_a                   10.2370(9)
_cell_length_b                   11.2579(9)
_cell_length_c                   22.1898(19)
_cell_angle_alpha                90
_cell_angle_beta                 97.2700(10)
_cell_angle_gamma                90
_cell_volume                     2536.75
loop_
_atom_site_label
_atom_site_type_symbol
_atom_site_fract_x
_atom_site_fract_y
_atom_site_fract_z
Eu1 Eu 0.389715(18) 0.315483(16) 0.274119(8)
Eu2 Eu 0.259420(19) 0.410250(19) 0.564080(9)
O1 O 0.4023(3) 0.3246(2) 0.38353(12)
O2 O 0.3200(3) 0.3727(3) 0.46744(13)
O3 O 0.0600(3) 0.3621(3) 0.50070(13)
O4 O -0.1261(3) 0.4163(3) 0.44562(15)
O5 O 0.9301(3) -0.0572(3) 0.24854(13)
O6 O 0.8150(3) -0.0113(3) 0.15994(13)
O7 O 0.6245(4) 0.1675(3) 0.13079(14)
O8 O 0.4756(3) 0.2475(3) 0.18180(13)
O9 O 0.1573(3) 0.6161(3) 0.18437(13)
O10 O 0.2711(3) 0.4471(2) 0.19920(13)
O11 O 0.3667(3) 0.5226(2) 0.31152(13)
O12 O 0.2690(3) 0.6980(2) 0.29178(13)
O13 O 0.3941(3) 0.5749(3) 0.53460(15)
H1 H 0.4448 0.6250 0.5544
H2 H 0.3375 0.6045 0.5074
O14 O 0.4829(3) 0.3535(4) 0.59781(17)
H3 H 0.5221 0.3973 0.6257
H4 H 0.5192 0.2856 0.5981
O15 O 0.2718(4) 0.1922(3) 0.5570(2)
H5 H 0.2989 0.1443 0.5317
H6 H 0.2081 0.1552 0.5695
N1 N 0.1630(3) 0.3407(3) 0.31367(15)
N2 N -0.0346(3) 0.3712(3) 0.34009(16)
H7 H -0.1185 0.3810 0.3370
N3 N 0.6086(4) 0.1896(3) 0.29105(16)
N4 N 0.7815(4) 0.0741(3) 0.31423(16)
H8 H 0.8436 0.0357 0.3356
C1 C 0.1732(4) 0.3521(4) 0.37611(18)
C2 C 0.0502(4) 0.3712(4) 0.39360(18)
C3 C 0.0360(4) 0.3533(4) 0.29315(19)
C4 C 0.3065(4) 0.3490(4) 0.41183(18)
C5 C -0.0071(4) 0.3856(4) 0.45118(19)
C6 C -0.0259(5) 0.3484(5) 0.2288(2)
H9 H -0.0146 0.4234 0.2095
H10 H -0.1182 0.3317 0.2275
H11 H 0.0150 0.2869 0.2078
C7 C 0.7592(4) 0.0768(4) 0.25153(19)
C8 C 0.6523(4) 0.1498(4) 0.23800(18)
C9 C 0.6901(4) 0.1416(4) 0.33643(19)
C10 C 0.8423(4) -0.0015(4) 0.21652(19)
C11 C 0.5811(4) 0.1902(4) 0.17920(19)
C12 C 0.6823(6) 0.1547(5) 0.4026(2)
H12 H 0.7216 0.2288 0.4167
H13 H 0.7285 0.0904 0.4243
H14 H 0.5917 0.1536 0.4097
C13 C 0.2358(4) 0.5481(4) 0.21492(18)
C14 C 0.2951(4) 0.5932(4) 0.27846(19)
Eu1A Eu 0.110285(18) 0.815483(16) 0.225881(8)
Eu1A_2 Eu 1.110285(18) -0.184517(16) 0.225881(8)
Eu2B Eu -0.259420(19) 0.589750(19) 0.435920(9)
Eu2C Eu 0.759420(19) 0.089750(19) 0.064080(9)
O4B O 0.1261(3) 0.5837(3) 0.55438(15)
O5A O 0.5699(3) 0.4428(3) 0.25146(13)
O6C O 0.3150(3) 0.5113(3) 0.65994(13)
O7C O 0.1245(4) 0.3325(3) 0.63079(14)
O9A O 0.3427(3) 0.1161(3) 0.31563(13)
O12A O 0.2310(3) 0.1980(2) 0.20822(13)
O16 O 0.3676(5) 0.8514(4) 0.4150(2)
H15 H 0.3279 0.8792 0.3821
H16 H 0.3104 0.7989 0.4200
O17 O 0.1863(5) 0.6851(7) 0.4347(2)
H17 H 0.1694 0.6568 0.4683
H18 H 0.1404 0.7021 0.4011
loop_
_geom_bond_atom_site_label_1
_geom_bond_atom_site_label_2
_geom_bond_site_symmetry_1
_geom_bond_site_symmetry_2
Eu1 O1 1_555 1_555
Eu2 O2 1_555 1_555
O1 C4 1_555 1_555
O2 C4 1_555 1_555
O3 Eu2 1_555 1_555
O4 C5 1_555 1_555
O5 C10 1_555 1_555
O6 C10 1_555 1_555
O7 C11 1_555 1_555
O8 Eu1 1_555 1_555
O9 C13 1_555 1_555
O10 Eu1 1_555 1_555
O11 Eu1 1_555 1_555
O12 C14 1_555 1_555
O13 Eu2 1_555 1_555
H1 O13 1_555 1_555
H2 O13 1_555 1_555
O14 Eu2 1_555 1_555
H3 O14 1_555 1_555
H4 O14 1_555 1_555
O15 Eu2 1_555 1_555
H5 O15 1_555 1_555
H6 O15 1_555 1_555
N1 Eu1 1_555 1_555
N2 H7 1_555 1_555
N3 Eu1 1_555 1_555
N4 H8 1_555 1_555
C1 N1 1_555 1_555
C2 N2 1_555 1_555
C3 N1 1_555 1_555
C4 C1 1_555 1_555
C5 O3 1_555 1_555
C6 C3 1_555 1_555
H9 C6 1_555 1_555
H10 C6 1_555 1_555
H11 C6 1_555 1_555
C7 N4 1_555 1_555
C8 N3 1_555 1_555
C9 N3 1_555 1_555
C10 C7 1_555 1_555
C11 O8 1_555 1_555
C12 C9 1_555 1_555
H12 C12 1_555 1_555
H13 C12 1_555 1_555
H14 C12 1_555 1_555
C13 O10 1_555 1_555
C14 O11 1_555 1_555
O16 H15 1_555 1_555
H16 O16 1_555 1_555
O17 H17 1_555 1_555
H18 O17 1_555 1_555
Eu1A O9 1_555 1_555
Eu1A_2 O5 1_555 1_555
Eu2B O4 1_555 1_555
Eu2C O6 1_555 1_555
O4B Eu2 1_555 1_555
O5A Eu1 1_555 1_555
O6C Eu2 1_555 1_555
O7C Eu2 1_555 1_555
O9A Eu1 1_555 1_555
O12A Eu1 1_555 1_555
O7 Eu2C 1_555 1_555
O12 Eu1A 1_555 1_555
N2 C3 1_555 1_555
N4 C9 1_555 1_555
C1 C2 1_555 1_555
C2 C5 1_555 1_555
C7 C8 1_555 1_555
C8 C11 1_555 1_555
C13 C14 1_555 1_555

#END
