
#######################################################################
#
#                 Cambridge Crystallographic Data Centre
#                                CCDC 
#
#######################################################################
#
# If this CIF has been generated from an entry in the Cambridge 
# Structural Database, then it will include bibliographic, chemical, 
# crystal, experimental, refinement or atomic coordinate data resulting 
# from the CCDC's data processing and validation procedures.
#
#######################################################################

data_XEQLEM01
_symmetry_cell_setting           monoclinic
_symmetry_space_group_name_H-M   'P 21'
_symmetry_Int_Tables_number      4
_space_group_name_Hall           'P 2yb'
loop_
_symmetry_equiv_pos_site_id
_symmetry_equiv_pos_as_xyz
1 x,y,z
2 -x,1/2+y,-z
_cell_length_a                   9.8460(12)
_cell_length_b                   12.8415(13)
_cell_length_c                   10.9975(13)
_cell_angle_alpha                90
_cell_angle_beta                 99.390(12)
_cell_angle_gamma                90
_cell_volume                     1371.86
loop_
_atom_site_label
_atom_site_type_symbol
_atom_site_fract_x
_atom_site_fract_y
_atom_site_fract_z
Mg1 Mg 1.1241(2) 0.4421(2) -0.24790(19)
Mg2 Mg 1.6276(2) 0.4427(2) -0.25096(19)
C1 C 0.9035(6) 0.3458(5) -0.1023(5)
C2 C 0.8980(6) 0.2553(5) -0.0161(5)
C3 C 0.7761(5) 0.2253(4) 0.0202(4)
H1 H 0.6949 0.2614 -0.0071
C4 C 0.7771(5) 0.1413(4) 0.0974(4)
H2 H 0.6942 0.1213 0.1206
C5 C 1.0066(5) 0.1176(4) 0.1077(4)
H3 H 1.0862 0.0805 0.1376
C6 C 1.0164(4) 0.2008(4) 0.0323(4)
H4 H 1.1014 0.2207 0.0135
C7 C 1.4028(6) 0.3458(5) -0.1084(5)
C8 C 1.3945(6) 0.2527(5) -0.0253(6)
C9 C 1.3922(6) 0.1526(5) -0.0690(5)
H5 H 1.3949 0.1400 -0.1518
C10 C 1.3858(6) 0.0712(4) 0.0107(5)
H6 H 1.3817 0.0040 -0.0211
C11 C 1.3878(5) 0.1792(5) 0.1740(4)
H7 H 1.3869 0.1895 0.2575
C12 C 1.3919(6) 0.2653(4) 0.0998(5)
H8 H 1.3930 0.3318 0.1334
C13 C 1.3476(5) 0.5395(5) -0.3926(5)
C14 C 1.3542(5) 0.6313(4) -0.4770(5)
C15 C 1.3707(6) 0.6210(5) -0.5967(5)
H9 H 1.3810 0.5552 -0.6291
C16 C 1.3723(5) 0.7078(4) -0.6702(4)
H10 H 1.3793 0.6977 -0.7527
C17 C 1.3530(6) 0.8160(4) -0.5094(5)
H11 H 1.3506 0.8827 -0.4768
C18 C 1.3448(6) 0.7324(5) -0.4332(5)
H12 H 1.3330 0.7433 -0.3520
C19 C 1.1539(6) 0.0390(4) -0.6023(5)
C20 C 1.1485(6) 0.1280(4) -0.5112(5)
C21 C 1.0279(5) 0.1536(4) -0.4706(5)
H13 H 0.9486 0.1145 -0.4946
C22 C 1.0266(5) 0.2382(5) -0.3938(5)
H14 H 0.9451 0.2530 -0.3648
C23 C 1.2528(5) 0.2715(4) -0.3947(4)
H15 H 1.3322 0.3093 -0.3664
C24 C 1.2622(4) 0.1880(4) -0.4725(4)
H16 H 1.3453 0.1727 -0.4983
N1 N 0.8883(5) 0.0869(4) 0.1407(4)
N2 N 1.3851(5) 0.0828(4) 0.1321(5)
N3 N 1.3643(5) 0.8057(4) -0.6300(5)
N4 N 1.1353(5) 0.3006(4) -0.3581(4)
O1 O 0.7961(4) 0.3986(4) -0.1318(4)
O2 O 1.0154(4) 0.3621(4) -0.1348(4)
O3 O 1.3033(4) 0.4059(4) -0.1276(4)
O4 O 1.5138(4) 0.3540(4) -0.1461(4)
O5 O 1.4532(4) 0.4871(4) -0.3678(4)
O6 O 1.2352(4) 0.5254(4) -0.3571(4)
O7 O 1.2662(4) 0.0295(4) -0.6421(4)
O8 O 1.0494(4) -0.0137(4) -0.6305(3)
Mg1A Mg 0.8759(2) -0.0579(2) -0.75210(19)
Mg1A_2 Mg 0.8759(2) -0.0579(2) 0.24790(19)
Mg2_2 Mg 0.6276(2) 0.4427(2) -0.25096(19)
Mg2A Mg 1.3724(2) -0.0573(2) -0.74904(19)
Mg2A_2 Mg 1.3724(2) -0.0573(2) 0.25096(19)
Mg2A_3 Mg 1.3724(2) 0.9427(2) -0.74904(19)
N1A N 1.1117(5) 0.5869(4) -0.1407(4)
N2A N 1.6149(5) 0.5828(4) -0.1321(5)
N3A N 1.6357(5) 0.3057(4) -0.3700(5)
O1_2 O 1.7961(4) 0.3986(4) -0.1318(4)
O7A O 1.7338(4) 0.5295(4) -0.3579(4)
O8A O 0.9506(4) 0.4863(4) -0.3695(3)
O9 O 1.0365(17) -0.0672(8) -0.2565(8)
O10 O 1.2494(8) -0.0574(8) -0.2504(7)
loop_
_geom_bond_atom_site_label_1
_geom_bond_atom_site_label_2
_geom_bond_site_symmetry_1
_geom_bond_site_symmetry_2
Mg1 N4 1_555 1_555
Mg2 O4 1_555 1_555
C1 C2 1_555 1_555
C2 C3 1_555 1_555
C3 H1 1_555 1_555
C4 C3 1_555 1_555
H2 C4 1_555 1_555
C5 H3 1_555 1_555
C6 C2 1_555 1_555
H4 C6 1_555 1_555
C7 C8 1_555 1_555
C8 C9 1_555 1_555
C9 H5 1_555 1_555
C10 C9 1_555 1_555
H6 C10 1_555 1_555
C11 H7 1_555 1_555
C12 C8 1_555 1_555
H8 C12 1_555 1_555
C13 C14 1_555 1_555
C14 C15 1_555 1_555
C15 H9 1_555 1_555
C16 C15 1_555 1_555
H10 C16 1_555 1_555
C17 H11 1_555 1_555
C18 C14 1_555 1_555
H12 C18 1_555 1_555
C19 C20 1_555 1_555
C20 C21 1_555 1_555
C21 H13 1_555 1_555
C22 C21 1_555 1_555
H14 C22 1_555 1_555
C23 H15 1_555 1_555
C24 C20 1_555 1_555
H16 C24 1_555 1_555
N1 C4 1_555 1_555
N2 C10 1_555 1_555
N3 C16 1_555 1_555
N4 C22 1_555 1_555
O1 C1 1_555 1_555
O2 Mg1 1_555 1_555
O3 Mg1 1_555 1_555
O4 C7 1_555 1_555
O5 Mg2 1_555 1_555
O6 Mg1 1_555 1_555
O7 C19 1_555 1_555
O8 C19 1_555 1_555
Mg1A O8 1_555 1_555
Mg1A_2 N1 1_555 1_555
Mg2_2 O1 1_555 1_555
Mg2A O7 1_555 1_555
Mg2A_2 N2 1_555 1_555
Mg2A_3 N3 1_555 1_555
N1A Mg1 1_555 1_555
N2A Mg2 1_555 1_555
N3A Mg2 1_555 1_555
O1_2 Mg2 1_555 1_555
O7A Mg2 1_555 1_555
O8A Mg1 1_555 1_555
C1 O2 1_555 1_555
C5 C6 1_555 1_555
C5 N1 1_555 1_555
C7 O3 1_555 1_555
C11 C12 1_555 1_555
C11 N2 1_555 1_555
C13 O5 1_555 1_555
C13 O6 1_555 1_555
C17 C18 1_555 1_555
C17 N3 1_555 1_555
C23 C24 1_555 1_555
C23 N4 1_555 1_555

#END
