
#######################################################################
#
#                 Cambridge Crystallographic Data Centre
#                                CCDC 
#
#######################################################################
#
# If this CIF has been generated from an entry in the Cambridge 
# Structural Database, then it will include bibliographic, chemical, 
# crystal, experimental, refinement or atomic coordinate data resulting 
# from the CCDC's data processing and validation procedures.
#
#######################################################################

data_XESBED
_symmetry_cell_setting           orthorhombic
_symmetry_space_group_name_H-M   'C c c a'
_symmetry_Int_Tables_number      68
_space_group_name_Hall           '-C 2b 2bc'
loop_
_symmetry_equiv_pos_site_id
_symmetry_equiv_pos_as_xyz
1 x,y,z
2 1/2+x,1/2+y,z
3 1/2+x,-y,1/2-z
4 -x,y,1/2-z
5 1/2-x,-y,z
6 x,1/2-y,1/2-z
7 1/2-x,1/2+y,1/2-z
8 -x,1/2-y,z
9 -x,-y,-z
10 1/2-x,1/2-y,-z
11 1/2-x,y,1/2+z
12 x,-y,1/2+z
13 1/2+x,y,-z
14 -x,1/2+y,1/2+z
15 1/2+x,1/2-y,1/2+z
16 x,1/2+y,-z
_cell_length_a                   17.9172(17)
_cell_length_b                   31.246(3)
_cell_length_c                   19.332(2)
_cell_angle_alpha                90
_cell_angle_beta                 90
_cell_angle_gamma                90
_cell_volume                     10822.8
loop_
_atom_site_label
_atom_site_type_symbol
_atom_site_fract_x
_atom_site_fract_y
_atom_site_fract_z
Ni1 Ni 0.0000 0.2500 1.02376(3)
Ni2 Ni 0.2500 0.0000 0.52369(2)
S1 S 0.21199(6) 0.32308(4) 0.94591(6)
S2 S 0.47706(6) 0.07648(4) 0.49623(9)
N1 N 0.04618(13) 0.20944(8) 0.94743(12)
N2 N 0.19837(13) 0.03688(8) 0.60295(11)
N3 N 0.14082(16) 0.12575(10) 0.80241(13)
N4 N 0.10061(14) 0.11199(10) 0.75770(13)
N5 N -0.04521(16) 0.29028(8) 1.10143(12)
N6 N -0.19480(14) 0.46421(8) 1.44498(12)
N7 N -0.12917(19) 0.36285(11) 1.26917(18)
N8 N -0.10552(19) 0.39736(11) 1.27290(17)
N9 N 0.09765(16) 0.28569(8) 1.02233(13)
N10 N 0.33810(14) 0.04159(8) 0.52181(12)
C1 C 0.11688(18) 0.19719(11) 0.95090(16)
C2 C 0.14858(19) 0.16946(12) 0.90364(17)
C3 C 0.10553(18) 0.15407(11) 0.85098(16)
C4 C 0.03137(17) 0.16581(10) 0.84691(13)
C5 C 0.00440(18) 0.19364(9) 0.89603(12)
C6 C 0.24117(18) 0.05722(11) 0.64903(14)
C7 C 0.21245(18) 0.08160(12) 0.70188(16)
C8 C 0.13624(18) 0.08566(11) 0.70719(16)
C9 C 0.09218(18) 0.06542(12) 0.65987(17)
C10 C 0.12552(17) 0.04097(11) 0.60873(16)
C11 C -0.0270(2) 0.33117(11) 1.10511(19)
C12 C -0.0535(2) 0.35795(12) 1.1575(2)
C13 C -0.0996(2) 0.34092(13) 1.20678(18)
C14 C -0.1208(2) 0.30004(13) 1.2016(2)
C15 C -0.0922(2) 0.27540(12) 1.14866(18)
C16 C -0.19595(18) 0.42172(10) 1.44620(16)
C17 C -0.1665(2) 0.39717(11) 1.3926(2)
C18 C -0.13555(19) 0.41800(13) 1.33666(18)
C19 C -0.1314(2) 0.46144(13) 1.33602(18)
C20 C -0.1618(2) 0.48335(12) 1.39132(16)
C21 C 0.1455(2) 0.30119(11) 0.99136(17)
C22 C 0.3954(2) 0.05641(10) 0.51123(16)
H1 H 0.1471 0.2082 0.9872
H2 H 0.1994 0.1612 0.9078
H3 H 0.0000 0.1552 0.8112
H4 H -0.0465 0.2020 0.8933
H5 H 0.2939 0.0548 0.6451
H6 H 0.2445 0.0954 0.7340
H7 H 0.0394 0.0680 0.6621
H8 H 0.0944 0.0266 0.5765
H9 H 0.0055 0.3428 1.0712
H10 H -0.0401 0.3874 1.1586
H11 H -0.1549 0.2881 1.2339
H12 H -0.1071 0.2463 1.1460
H13 H -0.2180 0.4076 1.4847
H14 H -0.1675 0.3668 1.3948
H15 H -0.1083 0.4763 1.2988
H16 H -0.1591 0.5137 1.3911
Ni2A Ni -0.2500 0.5000 1.52369(2)
Ni2A_2 Ni -0.2500 0.5000 0.52369(2)
Ni2_2 Ni 0.2500 0.0000 1.52369(2)
S1G S -0.21199(6) 0.17692(4) 0.94591(6)
S2D S 0.02294(6) -0.07648(4) 0.49623(9)
N1G N -0.04618(13) 0.29056(8) 0.94743(12)
N2G N -0.19837(13) 0.46312(8) 0.60295(11)
N2D N 0.30163(13) -0.03688(8) 0.60295(11)
N3G N -0.14082(16) 0.37425(10) 0.80241(13)
N4G N -0.10061(14) 0.38801(10) 0.75770(13)
N5G N 0.04521(16) 0.20972(8) 1.10143(12)
N6G N 0.19480(14) 0.03579(8) 1.44498(12)
N6A N 0.30520(14) -0.03579(8) 0.44498(12)
N6G_2 N 0.19480(14) 0.03579(8) 0.44498(12)
N7G N 0.12917(19) 0.13715(11) 1.26917(18)
N8G N 0.10552(19) 0.10264(11) 1.27290(17)
N9G N -0.09765(16) 0.21431(8) 1.02233(13)
N10D N 0.16190(14) -0.04159(8) 0.52181(12)
C1G C -0.11688(18) 0.30281(11) 0.95090(16)
C2G C -0.14858(19) 0.33054(12) 0.90364(17)
C3G C -0.10553(18) 0.34593(11) 0.85098(16)
C4G C -0.03137(17) 0.33419(10) 0.84691(13)
C5G C -0.00440(18) 0.30636(9) 0.89603(12)
C6G C -0.24117(18) 0.44278(11) 0.64903(14)
C7G C -0.21245(18) 0.41840(12) 0.70188(16)
C8G C -0.13624(18) 0.41434(11) 0.70719(16)
C9G C -0.09218(18) 0.43458(12) 0.65987(17)
C10G C -0.12552(17) 0.45903(11) 0.60873(16)
C11G C 0.0270(2) 0.16883(11) 1.10511(19)
C12G C 0.0535(2) 0.14205(12) 1.1575(2)
C13G C 0.0996(2) 0.15908(13) 1.20678(18)
C14G C 0.1208(2) 0.19996(13) 1.2016(2)
C15G C 0.0922(2) 0.22460(12) 1.14866(18)
C16G C 0.19595(18) 0.07828(10) 1.44620(16)
C17G C 0.1665(2) 0.10283(11) 1.3926(2)
C18G C 0.13555(19) 0.08200(13) 1.33666(18)
C19G C 0.1314(2) 0.03856(13) 1.33602(18)
C20G C 0.1618(2) 0.01665(12) 1.39132(16)
C21G C -0.1455(2) 0.19881(11) 0.99136(17)
C22D C 0.1046(2) -0.05641(10) 0.51123(16)
H1G H -0.1471 0.2918 0.9872
H2G H -0.1994 0.3388 0.9078
H3G H 0.0000 0.3448 0.8112
H4G H 0.0465 0.2980 0.8933
H5G H -0.2939 0.4452 0.6451
H6G H -0.2445 0.4046 0.7340
H7G H -0.0394 0.4320 0.6621
H8G H -0.0944 0.4734 0.5765
H9G H -0.0055 0.1572 1.0712
H10G H 0.0401 0.1126 1.1586
H11G H 0.1549 0.2119 1.2339
H12G H 0.1071 0.2537 1.1460
H13G H 0.2180 0.0924 1.4847
H14G H 0.1675 0.1332 1.3948
H15G H 0.1083 0.0237 1.2988
H16G H 0.1591 -0.0137 1.3911
loop_
_geom_bond_atom_site_label_1
_geom_bond_atom_site_label_2
_geom_bond_site_symmetry_1
_geom_bond_site_symmetry_2
Ni1 N1 1_555 1_555
Ni2 N2 1_555 1_555
S1 C21 1_555 1_555
S2 C22 1_555 1_555
N1 C1 1_555 1_555
N2 C6 1_555 1_555
N3 N4 1_555 1_555
N4 C8 1_555 1_555
N5 Ni1 1_555 1_555
N6 C16 1_555 1_555
N7 N8 1_555 1_555
N8 C18 1_555 1_555
N9 Ni1 1_555 1_555
N10 Ni2 1_555 1_555
C1 C2 1_555 1_555
C2 C3 1_555 1_555
C3 N3 1_555 1_555
C4 C3 1_555 1_555
C5 N1 1_555 1_555
C6 C7 1_555 1_555
C7 C8 1_555 1_555
C8 C9 1_555 1_555
C9 C10 1_555 1_555
C10 N2 1_555 1_555
C11 N5 1_555 1_555
C12 C11 1_555 1_555
C13 N7 1_555 1_555
C14 C13 1_555 1_555
C15 N5 1_555 1_555
C16 C17 1_555 1_555
C17 C18 1_555 1_555
C18 C19 1_555 1_555
C19 C20 1_555 1_555
C20 N6 1_555 1_555
C21 N9 1_555 1_555
C22 N10 1_555 1_555
H1 C1 1_555 1_555
H2 C2 1_555 1_555
H3 C4 1_555 1_555
H4 C5 1_555 1_555
H5 C6 1_555 1_555
H6 C7 1_555 1_555
H7 C9 1_555 1_555
H8 C10 1_555 1_555
H9 C11 1_555 1_555
H10 C12 1_555 1_555
H11 C14 1_555 1_555
H12 C15 1_555 1_555
H13 C16 1_555 1_555
H14 C17 1_555 1_555
H15 C19 1_555 1_555
H16 C20 1_555 1_555
Ni2A N6 1_555 1_555
Ni2A_2 N2G 1_555 1_555
Ni2_2 N6G 1_555 1_555
S1G C21G 1_555 1_555
S2D C22D 1_555 1_555
N1G Ni1 1_555 1_555
N2G C6G 1_555 1_555
N2D Ni2 1_555 1_555
N3G N4G 1_555 1_555
N4G C8G 1_555 1_555
N5G Ni1 1_555 1_555
N6G C16G 1_555 1_555
N6A Ni2 1_555 1_555
N6G_2 Ni2 1_555 1_555
N7G N8G 1_555 1_555
N8G C18G 1_555 1_555
N9G Ni1 1_555 1_555
N10D Ni2 1_555 1_555
C1G N1G 1_555 1_555
C2G C1G 1_555 1_555
C3G N3G 1_555 1_555
C4G C3G 1_555 1_555
C5G N1G 1_555 1_555
C6G C7G 1_555 1_555
C7G C8G 1_555 1_555
C8G C9G 1_555 1_555
C9G C10G 1_555 1_555
C10G N2G 1_555 1_555
C11G N5G 1_555 1_555
C12G C11G 1_555 1_555
C13G N7G 1_555 1_555
C14G C13G 1_555 1_555
C15G N5G 1_555 1_555
C16G C17G 1_555 1_555
C17G C18G 1_555 1_555
C18G C19G 1_555 1_555
C19G C20G 1_555 1_555
C20G N6G 1_555 1_555
C21G N9G 1_555 1_555
C22D N10D 1_555 1_555
H1G C1G 1_555 1_555
H2G C2G 1_555 1_555
H3G C4G 1_555 1_555
H4G C5G 1_555 1_555
H5G C6G 1_555 1_555
H6G C7G 1_555 1_555
H7G C9G 1_555 1_555
H8G C10G 1_555 1_555
H9G C11G 1_555 1_555
H10G C12G 1_555 1_555
H11G C14G 1_555 1_555
H12G C15G 1_555 1_555
H13G C16G 1_555 1_555
H14G C17G 1_555 1_555
H15G C19G 1_555 1_555
H16G C20G 1_555 1_555
C4 C5 1_555 1_555
C12 C13 1_555 1_555
C14 C15 1_555 1_555
C2G C3G 1_555 1_555
C4G C5G 1_555 1_555
C12G C13G 1_555 1_555
C14G C15G 1_555 1_555

#END
