
#######################################################################
#
#                 Cambridge Crystallographic Data Centre
#                                CCDC 
#
#######################################################################
#
# If this CIF has been generated from an entry in the Cambridge 
# Structural Database, then it will include bibliographic, chemical, 
# crystal, experimental, refinement or atomic coordinate data resulting 
# from the CCDC's data processing and validation procedures.
#
#######################################################################

data_XESBIH
_symmetry_cell_setting           orthorhombic
_symmetry_space_group_name_H-M   'C c c a'
_symmetry_Int_Tables_number      68
_space_group_name_Hall           '-C 2b 2bc'
loop_
_symmetry_equiv_pos_site_id
_symmetry_equiv_pos_as_xyz
1 x,y,z
2 1/2+x,1/2+y,z
3 1/2+x,-y,1/2-z
4 -x,y,1/2-z
5 1/2-x,-y,z
6 x,1/2-y,1/2-z
7 1/2-x,1/2+y,1/2-z
8 -x,1/2-y,z
9 -x,-y,-z
10 1/2-x,1/2-y,-z
11 1/2-x,y,1/2+z
12 x,-y,1/2+z
13 1/2+x,y,-z
14 -x,1/2+y,1/2+z
15 1/2+x,1/2-y,1/2+z
16 x,1/2+y,-z
_cell_length_a                   18.154(2)
_cell_length_b                   31.786(3)
_cell_length_c                   19.053(2)
_cell_angle_alpha                90
_cell_angle_beta                 90
_cell_angle_gamma                90
_cell_volume                     10994.4
loop_
_atom_site_label
_atom_site_type_symbol
_atom_site_fract_x
_atom_site_fract_y
_atom_site_fract_z
Se1 Se 0.21223(3) 0.32425(2) 0.93848(3)
Se2 Se 0.48176(3) 0.07801(2) 0.50047(4)
Ni1 Ni 0.0000 0.2500 1.02673(3)
Ni2 Ni 0.2500 0.0000 0.52709(3)
N1 N 0.04568(14) 0.21015(9) 0.94955(12)
N2 N 0.19869(13) 0.03629(8) 0.60678(12)
N3 N 0.13998(17) 0.12638(11) 0.80514(16)
N4 N 0.09986(16) 0.11241(10) 0.75973(16)
N5 N -0.04537(17) 0.28933(9) 1.10590(12)
N6 N -0.19580(14) 0.46458(9) 1.44691(12)
N7 N -0.13231(18) 0.36244(11) 1.27019(17)
N8 N -0.10776(18) 0.39749(11) 1.27653(17)
N9 N 0.09606(17) 0.28564(9) 1.02378(14)
N10 N 0.33672(14) 0.04093(8) 0.52541(14)
C1 C 0.11615(19) 0.19807(11) 0.95389(18)
C2 C 0.1472(2) 0.17016(12) 0.90661(19)
C3 C 0.10442(19) 0.15463(11) 0.85308(18)
C4 C 0.03143(18) 0.16656(11) 0.84780(17)
C5 C 0.00495(19) 0.19456(10) 0.89677(16)
C6 C 0.24032(19) 0.05657(12) 0.65391(17)
C7 C 0.21124(19) 0.08132(12) 0.70641(19)
C8 C 0.13631(19) 0.08602(11) 0.70996(18)
C9 C 0.0924(2) 0.06547(12) 0.66165(19)
C10 C 0.12655(19) 0.04039(12) 0.61133(18)
C11 C -0.0251(2) 0.32928(12) 1.1115(2)
C12 C -0.0521(2) 0.35586(12) 1.1634(2)
C13 C -0.1016(2) 0.33982(12) 1.21052(18)
C14 C -0.1257(2) 0.29950(12) 1.2038(2)
C15 C -0.0959(2) 0.27489(12) 1.1503(2)
C16 C -0.19872(19) 0.42272(11) 1.44744(18)
C17 C -0.1700(2) 0.39834(12) 1.39384(19)
C18 C -0.13760(19) 0.41883(12) 1.33767(18)
C19 C -0.1314(2) 0.46158(12) 1.33723(19)
C20 C -0.1622(2) 0.48359(12) 1.39317(17)
C21 C 0.1428(2) 0.30092(11) 0.99182(18)
C22 C 0.3934(2) 0.05569(11) 0.51612(18)
H1 H 0.1456 0.2090 0.9908
H2 H 0.1974 0.1620 0.9107
H3 H 0.0008 0.1559 0.8115
H4 H -0.0450 0.2033 0.8934
H5 H 0.2923 0.0537 0.6508
H6 H 0.2424 0.0951 0.7391
H7 H 0.0403 0.0682 0.6632
H8 H 0.0967 0.0257 0.5785
H9 H 0.0095 0.3400 1.0787
H10 H -0.0367 0.3844 1.1662
H11 H -0.1617 0.2884 1.2349
H12 H -0.1122 0.2467 1.1453
H13 H -0.2218 0.4092 1.4861
H14 H -0.1722 0.3685 1.3953
H15 H -0.1070 0.4757 1.2999
H16 H -0.1589 0.5134 1.3934
Se1G Se -0.21223(3) 0.17575(2) 0.93848(3)
Se2D Se 0.01824(3) -0.07801(2) 0.50047(4)
Ni2A Ni -0.2500 0.5000 1.52709(3)
Ni2A_2 Ni -0.2500 0.5000 0.52709(3)
Ni2_2 Ni 0.2500 0.0000 1.52709(3)
N1G N -0.04568(14) 0.28985(9) 0.94955(12)
N2G N -0.19869(13) 0.46371(8) 0.60678(12)
N2D N 0.30131(13) -0.03629(8) 0.60678(12)
N3G N -0.13998(17) 0.37362(11) 0.80514(16)
N4G N -0.09986(16) 0.38759(10) 0.75973(16)
N5G N 0.04537(17) 0.21067(9) 1.10590(12)
N6G N 0.19580(14) 0.03542(9) 1.44691(12)
N6A N 0.30420(14) -0.03542(9) 0.44691(12)
N6G_2 N 0.19580(14) 0.03542(9) 0.44691(12)
N7G N 0.13231(18) 0.13756(11) 1.27019(17)
N8G N 0.10776(18) 0.10251(11) 1.27653(17)
N9G N -0.09606(17) 0.21436(9) 1.02378(14)
N10D N 0.16328(14) -0.04093(8) 0.52541(14)
C1G C -0.11615(19) 0.30193(11) 0.95389(18)
C2G C -0.1472(2) 0.32984(12) 0.90661(19)
C3G C -0.10442(19) 0.34537(11) 0.85308(18)
C4G C -0.03143(18) 0.33344(11) 0.84780(17)
C5G C -0.00495(19) 0.30544(10) 0.89677(16)
C6G C -0.24032(19) 0.44343(12) 0.65391(17)
C7G C -0.21124(19) 0.41868(12) 0.70641(19)
C8G C -0.13631(19) 0.41398(11) 0.70996(18)
C9G C -0.0924(2) 0.43453(12) 0.66165(19)
C10G C -0.12655(19) 0.45961(12) 0.61133(18)
C11G C 0.0251(2) 0.17072(12) 1.1115(2)
C12G C 0.0521(2) 0.14414(12) 1.1634(2)
C13G C 0.1016(2) 0.16018(12) 1.21052(18)
C14G C 0.1257(2) 0.20050(12) 1.2038(2)
C15G C 0.0959(2) 0.22511(12) 1.1503(2)
C16G C 0.19872(19) 0.07728(11) 1.44744(18)
C17G C 0.1700(2) 0.10166(12) 1.39384(19)
C18G C 0.13760(19) 0.08117(12) 1.33767(18)
C19G C 0.1314(2) 0.03842(12) 1.33723(19)
C20G C 0.1622(2) 0.01641(12) 1.39317(17)
C21G C -0.1428(2) 0.19908(11) 0.99182(18)
C22D C 0.1066(2) -0.05569(11) 0.51612(18)
H1G H -0.1456 0.2910 0.9908
H2G H -0.1974 0.3380 0.9107
H3G H -0.0008 0.3441 0.8115
H4G H 0.0450 0.2967 0.8934
H5G H -0.2923 0.4463 0.6508
H6G H -0.2424 0.4049 0.7391
H7G H -0.0403 0.4318 0.6632
H8G H -0.0967 0.4743 0.5785
H9G H -0.0095 0.1600 1.0787
H10G H 0.0367 0.1156 1.1662
H11G H 0.1617 0.2116 1.2349
H12G H 0.1122 0.2533 1.1453
H13G H 0.2218 0.0908 1.4861
H14G H 0.1722 0.1315 1.3953
H15G H 0.1070 0.0243 1.2999
H16G H 0.1589 -0.0134 1.3934
loop_
_geom_bond_atom_site_label_1
_geom_bond_atom_site_label_2
_geom_bond_site_symmetry_1
_geom_bond_site_symmetry_2
Se1 C21 1_555 1_555
Se2 C22 1_555 1_555
Ni1 N1 1_555 1_555
Ni2 N2 1_555 1_555
N1 C1 1_555 1_555
N2 C6 1_555 1_555
N3 N4 1_555 1_555
N4 C8 1_555 1_555
N5 Ni1 1_555 1_555
N6 C16 1_555 1_555
N7 N8 1_555 1_555
N8 C18 1_555 1_555
N9 Ni1 1_555 1_555
N10 Ni2 1_555 1_555
C1 C2 1_555 1_555
C2 C3 1_555 1_555
C3 N3 1_555 1_555
C4 C3 1_555 1_555
C5 N1 1_555 1_555
C6 C7 1_555 1_555
C7 C8 1_555 1_555
C8 C9 1_555 1_555
C9 C10 1_555 1_555
C10 N2 1_555 1_555
C11 N5 1_555 1_555
C12 C11 1_555 1_555
C13 N7 1_555 1_555
C14 C13 1_555 1_555
C15 N5 1_555 1_555
C16 C17 1_555 1_555
C17 C18 1_555 1_555
C18 C19 1_555 1_555
C19 C20 1_555 1_555
C20 N6 1_555 1_555
C21 N9 1_555 1_555
C22 N10 1_555 1_555
H1 C1 1_555 1_555
H2 C2 1_555 1_555
H3 C4 1_555 1_555
H4 C5 1_555 1_555
H5 C6 1_555 1_555
H6 C7 1_555 1_555
H7 C9 1_555 1_555
H8 C10 1_555 1_555
H9 C11 1_555 1_555
H10 C12 1_555 1_555
H11 C14 1_555 1_555
H12 C15 1_555 1_555
H13 C16 1_555 1_555
H14 C17 1_555 1_555
H15 C19 1_555 1_555
H16 C20 1_555 1_555
Se1G C21G 1_555 1_555
Se2D C22D 1_555 1_555
Ni2A N6 1_555 1_555
Ni2A_2 N2G 1_555 1_555
Ni2_2 N6G 1_555 1_555
N1G Ni1 1_555 1_555
N2G C6G 1_555 1_555
N2D Ni2 1_555 1_555
N3G N4G 1_555 1_555
N4G C8G 1_555 1_555
N5G Ni1 1_555 1_555
N6G C16G 1_555 1_555
N6A Ni2 1_555 1_555
N6G_2 Ni2 1_555 1_555
N7G N8G 1_555 1_555
N8G C18G 1_555 1_555
N9G Ni1 1_555 1_555
N10D Ni2 1_555 1_555
C1G N1G 1_555 1_555
C2G C1G 1_555 1_555
C3G N3G 1_555 1_555
C4G C3G 1_555 1_555
C5G N1G 1_555 1_555
C6G C7G 1_555 1_555
C7G C8G 1_555 1_555
C8G C9G 1_555 1_555
C9G C10G 1_555 1_555
C10G N2G 1_555 1_555
C11G N5G 1_555 1_555
C12G C11G 1_555 1_555
C13G N7G 1_555 1_555
C14G C13G 1_555 1_555
C15G N5G 1_555 1_555
C16G C17G 1_555 1_555
C17G C18G 1_555 1_555
C18G C19G 1_555 1_555
C19G C20G 1_555 1_555
C20G N6G 1_555 1_555
C21G N9G 1_555 1_555
C22D N10D 1_555 1_555
H1G C1G 1_555 1_555
H2G C2G 1_555 1_555
H3G C4G 1_555 1_555
H4G C5G 1_555 1_555
H5G C6G 1_555 1_555
H6G C7G 1_555 1_555
H7G C9G 1_555 1_555
H8G C10G 1_555 1_555
H9G C11G 1_555 1_555
H10G C12G 1_555 1_555
H11G C14G 1_555 1_555
H12G C15G 1_555 1_555
H13G C16G 1_555 1_555
H14G C17G 1_555 1_555
H15G C19G 1_555 1_555
H16G C20G 1_555 1_555
C4 C5 1_555 1_555
C12 C13 1_555 1_555
C14 C15 1_555 1_555
C2G C3G 1_555 1_555
C4G C5G 1_555 1_555
C12G C13G 1_555 1_555
C14G C15G 1_555 1_555

#END
