
#######################################################################
#
#                 Cambridge Crystallographic Data Centre
#                                CCDC 
#
#######################################################################
#
# If this CIF has been generated from an entry in the Cambridge 
# Structural Database, then it will include bibliographic, chemical, 
# crystal, experimental, refinement or atomic coordinate data resulting 
# from the CCDC's data processing and validation procedures.
#
#######################################################################

data_XETNUG
_symmetry_cell_setting           orthorhombic
_symmetry_space_group_name_H-M   'C c c a'
_symmetry_Int_Tables_number      68
_space_group_name_Hall           '-C 2b 2bc'
loop_
_symmetry_equiv_pos_site_id
_symmetry_equiv_pos_as_xyz
1 x,y,z
2 1/2+x,1/2+y,z
3 1/2+x,-y,1/2-z
4 -x,y,1/2-z
5 1/2-x,-y,z
6 x,1/2-y,1/2-z
7 1/2-x,1/2+y,1/2-z
8 -x,1/2-y,z
9 -x,-y,-z
10 1/2-x,1/2-y,-z
11 1/2-x,y,1/2+z
12 x,-y,1/2+z
13 1/2+x,y,-z
14 -x,1/2+y,1/2+z
15 1/2+x,1/2-y,1/2+z
16 x,1/2+y,-z
_cell_length_a                   17.952(2)
_cell_length_b                   30.817(4)
_cell_length_c                   19.435(4)
_cell_angle_alpha                90
_cell_angle_beta                 90
_cell_angle_gamma                90
_cell_volume                     10752
loop_
_atom_site_label
_atom_site_type_symbol
_atom_site_fract_x
_atom_site_fract_y
_atom_site_fract_z
O1 O 0.2619(7) 0.2488(5) 0.1892(6)
C23 C 0.3383(6) 0.2369(3) 0.2205(4)
O1E O 0.2619(7) 0.2512(5) 0.3108(6)
C23E C 0.3383(6) 0.2631(3) 0.2795(4)
Ni1 Ni 0.0000 0.2500 1.02513(4)
Ni2 Ni 0.2500 0.0000 0.52437(4)
S1 S 0.21377(9) 0.32222(6) 0.94631(9)
S2 S 0.47828(9) 0.07522(6) 0.49510(11)
N1 N 0.0446(2) 0.20812(12) 0.94984(18)
N2 N 0.1989(2) 0.03700(12) 0.60286(19)
N3 N 0.1386(2) 0.12203(13) 0.8067(2)
N4 N 0.0990(2) 0.11157(13) 0.7579(2)
N5 N -0.0428(2) 0.29074(13) 1.1020(2)
N6 N -0.1948(2) 0.46421(14) 1.4468(2)
N7 N -0.1272(3) 0.3642(2) 1.2742(3)
N8 N -0.1050(3) 0.3975(2) 1.2692(3)
N9 N 0.0983(2) 0.28471(12) 1.0228(2)
N10 N 0.3371(2) 0.04267(12) 0.5221(2)
C1 C 0.1151(2) 0.19415(16) 0.9547(2)
C2 C 0.1461(2) 0.16521(17) 0.9080(2)
C3 C 0.1032(2) 0.15040(17) 0.8552(2)
C4 C 0.0296(2) 0.16451(16) 0.8492(2)
C5 C 0.0030(2) 0.19295(13) 0.8977(2)
C6 C 0.2403(2) 0.05758(16) 0.6495(2)
C7 C 0.2121(2) 0.08165(18) 0.7029(2)
C8 C 0.1355(2) 0.08517(17) 0.7083(2)
C9 C 0.0914(2) 0.06467(17) 0.6598(2)
C10 C 0.1250(2) 0.04090(16) 0.6088(2)
C11 C -0.0255(2) 0.33309(19) 1.1043(2)
C12 C -0.0519(3) 0.3604(2) 1.1558(3)
C13 C -0.0964(3) 0.3431(2) 1.2063(3)
C14 C -0.1171(3) 0.3012(2) 1.2027(2)
C15 C -0.0888(3) 0.2757(2) 1.1502(2)
C16 C -0.1947(2) 0.42139(18) 1.4481(2)
C17 C -0.1653(2) 0.3962(2) 1.3947(3)
C18 C -0.1363(3) 0.4178(2) 1.3386(2)
C19 C -0.1324(3) 0.4617(2) 1.3382(3)
C20 C -0.1633(3) 0.4838(2) 1.3928(2)
C21 C 0.1471(3) 0.30009(17) 0.9918(2)
C22 C 0.3955(2) 0.05659(17) 0.5110(2)
H1 H 0.1451 0.2046 0.9914
H2 H 0.1961 0.1556 0.9131
H3 H -0.0011 0.1545 0.8128
H4 H -0.0471 0.2025 0.8942
H5 H 0.2929 0.0549 0.6453
H6 H 0.2441 0.0957 0.7348
H7 H 0.0387 0.0671 0.6621
H8 H 0.0943 0.0264 0.5763
H9 H 0.0064 0.3445 1.0697
H10 H -0.0397 0.3904 1.1561
H11 H -0.1501 0.2895 1.2361
H12 H -0.1031 0.2461 1.1477
H13 H -0.2166 0.4074 1.4867
H14 H -0.1649 0.3654 1.3971
H15 H -0.1092 0.4765 1.3011
H16 H -0.1625 0.5146 1.3920
Ni2A Ni -0.2500 0.5000 1.52437(4)
Ni2A_2 Ni -0.2500 0.5000 0.52437(4)
Ni2_2 Ni 0.2500 0.0000 1.52437(4)
S1G S -0.21377(9) 0.17778(6) 0.94631(9)
S2D S 0.02172(9) -0.07522(6) 0.49510(11)
N1G N -0.0446(2) 0.29188(12) 0.94984(18)
N2G N -0.1989(2) 0.46300(12) 0.60286(19)
N2D N 0.3011(2) -0.03700(12) 0.60286(19)
N3G N -0.1386(2) 0.37797(13) 0.8067(2)
N4G N -0.0990(2) 0.38843(13) 0.7579(2)
N5G N 0.0428(2) 0.20926(13) 1.1020(2)
N6G N 0.1948(2) 0.03579(14) 1.4468(2)
N6A N 0.3052(2) -0.03579(14) 0.4468(2)
N6G_2 N 0.1948(2) 0.03579(14) 0.4468(2)
N7G N 0.1272(3) 0.1358(2) 1.2742(3)
N8G N 0.1050(3) 0.1025(2) 1.2692(3)
N9G N -0.0983(2) 0.21529(12) 1.0228(2)
N10D N 0.1629(2) -0.04267(12) 0.5221(2)
C1G C -0.1151(2) 0.30585(16) 0.9547(2)
C2G C -0.1461(2) 0.33479(17) 0.9080(2)
C3G C -0.1032(2) 0.34960(17) 0.8552(2)
C4G C -0.0296(2) 0.33549(16) 0.8492(2)
C5G C -0.0030(2) 0.30705(13) 0.8977(2)
C6G C -0.2403(2) 0.44242(16) 0.6495(2)
C7G C -0.2121(2) 0.41835(18) 0.7029(2)
C8G C -0.1355(2) 0.41483(17) 0.7083(2)
C9G C -0.0914(2) 0.43533(17) 0.6598(2)
C10G C -0.1250(2) 0.45910(16) 0.6088(2)
C11G C 0.0255(2) 0.16691(19) 1.1043(2)
C12G C 0.0519(3) 0.1396(2) 1.1558(3)
C13G C 0.0964(3) 0.1569(2) 1.2063(3)
C14G C 0.1171(3) 0.1988(2) 1.2027(2)
C15G C 0.0888(3) 0.2243(2) 1.1502(2)
C16G C 0.1947(2) 0.07861(18) 1.4481(2)
C17G C 0.1653(2) 0.1038(2) 1.3947(3)
C18G C 0.1363(3) 0.0822(2) 1.3386(2)
C19G C 0.1324(3) 0.0383(2) 1.3382(3)
C20G C 0.1633(3) 0.0162(2) 1.3928(2)
C21G C -0.1471(3) 0.19991(17) 0.9918(2)
C22D C 0.1045(2) -0.05659(17) 0.5110(2)
H1G H -0.1451 0.2954 0.9914
H2G H -0.1961 0.3444 0.9131
H3G H 0.0011 0.3455 0.8128
H4G H 0.0471 0.2975 0.8942
H5G H -0.2929 0.4451 0.6453
H6G H -0.2441 0.4043 0.7348
H7G H -0.0387 0.4329 0.6621
H8G H -0.0943 0.4736 0.5763
H9G H -0.0064 0.1555 1.0697
H10G H 0.0397 0.1096 1.1561
H11G H 0.1501 0.2105 1.2361
H12G H 0.1031 0.2539 1.1477
H13G H 0.2166 0.0926 1.4867
H14G H 0.1649 0.1346 1.3971
H15G H 0.1092 0.0235 1.3011
H16G H 0.1625 -0.0146 1.3920
loop_
_geom_bond_atom_site_label_1
_geom_bond_atom_site_label_2
_geom_bond_site_symmetry_1
_geom_bond_site_symmetry_2
Ni1 N1 1_555 1_555
Ni2 N2 1_555 1_555
S1 C21 1_555 1_555
S2 C22 1_555 1_555
O1 C23 1_555 1_555
N1 C1 1_555 1_555
N2 C6 1_555 1_555
N3 N4 1_555 1_555
N4 C8 1_555 1_555
N5 Ni1 1_555 1_555
N6 C16 1_555 1_555
N7 N8 1_555 1_555
N8 C18 1_555 1_555
N9 Ni1 1_555 1_555
N10 Ni2 1_555 1_555
C1 C2 1_555 1_555
C2 C3 1_555 1_555
C3 N3 1_555 1_555
C4 C3 1_555 1_555
C5 N1 1_555 1_555
C6 C7 1_555 1_555
C7 C8 1_555 1_555
C8 C9 1_555 1_555
C9 C10 1_555 1_555
C10 N2 1_555 1_555
C11 N5 1_555 1_555
C12 C11 1_555 1_555
C13 N7 1_555 1_555
C14 C13 1_555 1_555
C15 N5 1_555 1_555
C16 C17 1_555 1_555
C17 C18 1_555 1_555
C18 C19 1_555 1_555
C19 C20 1_555 1_555
C20 N6 1_555 1_555
C21 N9 1_555 1_555
C22 N10 1_555 1_555
C23 C23E 1_555 1_555
H1 C1 1_555 1_555
H2 C2 1_555 1_555
H3 C4 1_555 1_555
H4 C5 1_555 1_555
H5 C6 1_555 1_555
H6 C7 1_555 1_555
H7 C9 1_555 1_555
H8 C10 1_555 1_555
H9 C11 1_555 1_555
H10 C12 1_555 1_555
H11 C14 1_555 1_555
H12 C15 1_555 1_555
H13 C16 1_555 1_555
H14 C17 1_555 1_555
H15 C19 1_555 1_555
H16 C20 1_555 1_555
Ni2A N6 1_555 1_555
Ni2A_2 N2G 1_555 1_555
Ni2_2 N6G 1_555 1_555
S1G C21G 1_555 1_555
S2D C22D 1_555 1_555
O1E C23E 1_555 1_555
N1G Ni1 1_555 1_555
N2G C6G 1_555 1_555
N2D Ni2 1_555 1_555
N3G N4G 1_555 1_555
N4G C8G 1_555 1_555
N5G Ni1 1_555 1_555
N6G C16G 1_555 1_555
N6A Ni2 1_555 1_555
N6G_2 Ni2 1_555 1_555
N7G N8G 1_555 1_555
N8G C18G 1_555 1_555
N9G Ni1 1_555 1_555
N10D Ni2 1_555 1_555
C1G N1G 1_555 1_555
C2G C1G 1_555 1_555
C3G N3G 1_555 1_555
C4G C3G 1_555 1_555
C5G N1G 1_555 1_555
C6G C7G 1_555 1_555
C7G C8G 1_555 1_555
C8G C9G 1_555 1_555
C9G C10G 1_555 1_555
C10G N2G 1_555 1_555
C11G N5G 1_555 1_555
C12G C11G 1_555 1_555
C13G N7G 1_555 1_555
C14G C13G 1_555 1_555
C15G N5G 1_555 1_555
C16G C17G 1_555 1_555
C17G C18G 1_555 1_555
C18G C19G 1_555 1_555
C19G C20G 1_555 1_555
C20G N6G 1_555 1_555
C21G N9G 1_555 1_555
C22D N10D 1_555 1_555
H1G C1G 1_555 1_555
H2G C2G 1_555 1_555
H3G C4G 1_555 1_555
H4G C5G 1_555 1_555
H5G C6G 1_555 1_555
H6G C7G 1_555 1_555
H7G C9G 1_555 1_555
H8G C10G 1_555 1_555
H9G C11G 1_555 1_555
H10G C12G 1_555 1_555
H11G C14G 1_555 1_555
H12G C15G 1_555 1_555
H13G C16G 1_555 1_555
H14G C17G 1_555 1_555
H15G C19G 1_555 1_555
H16G C20G 1_555 1_555
C4 C5 1_555 1_555
C12 C13 1_555 1_555
C14 C15 1_555 1_555
C2G C3G 1_555 1_555
C4G C5G 1_555 1_555
C12G C13G 1_555 1_555
C14G C15G 1_555 1_555

#END
