
#######################################################################
#
#                 Cambridge Crystallographic Data Centre
#                                CCDC 
#
#######################################################################
#
# If this CIF has been generated from an entry in the Cambridge 
# Structural Database, then it will include bibliographic, chemical, 
# crystal, experimental, refinement or atomic coordinate data resulting 
# from the CCDC's data processing and validation procedures.
#
#######################################################################

data_XEVMUG01
_symmetry_cell_setting           monoclinic
_symmetry_space_group_name_H-M   'P 21/c'
_symmetry_Int_Tables_number      14
_space_group_name_Hall           '-P 2ybc'
loop_
_symmetry_equiv_pos_site_id
_symmetry_equiv_pos_as_xyz
1 x,y,z
2 -x,1/2+y,1/2-z
3 -x,-y,-z
4 x,1/2-y,1/2+z
_cell_length_a                   10.0456(3)
_cell_length_b                   10.5616(3)
_cell_length_c                   7.1981(2)
_cell_angle_alpha                90
_cell_angle_beta                 101.3810(10)
_cell_angle_gamma                90
_cell_volume                     748.684
loop_
_atom_site_label
_atom_site_type_symbol
_atom_site_fract_x
_atom_site_fract_y
_atom_site_fract_z
Ba1 Ba 0.26240(2) 0.14409(2) 0.16124(3)
O1 O -0.5693(3) 0.2945(3) -0.5893(4)
O2 O -0.4790(3) 0.4641(3) -0.7059(4)
O3 O 0.0721(3) 0.1990(3) -0.1780(5)
O4 O 0.2761(3) 0.4067(3) 0.0487(5)
N1 N -0.1336(4) 0.3640(3) -0.3413(6)
O5 O -0.0708(3) 0.0350(3) -0.2517(5)
N2 N -0.2436(3) 0.4243(3) -0.4344(5)
C1 C -0.0421(5) 0.1506(4) -0.2475(7)
C2 C -0.2854(4) 0.2145(4) -0.4244(6)
C3 C -0.3374(4) 0.3329(4) -0.4846(6)
C4 C -0.1524(4) 0.2376(4) -0.3343(5)
C5 C -0.4718(4) 0.3675(4) -0.6022(6)
H1 H -0.061(7) 0.412(6) -0.315(9)
H2 H 0.348(6) 0.431(5) 0.129(8)
H3 H -0.331(6) 0.143(5) -0.440(8)
H4 H 0.216(8) 0.467(8) 0.071(12)
Ba1B Ba -0.26240(2) -0.14409(2) -0.16124(3)
Ba1_2 Ba -0.73760(2) 0.14409(2) -0.83876(3)
Ba1A Ba -0.26240(2) -0.35591(2) 0.33876(3)
Ba1A_2 Ba -0.26240(2) 0.64409(2) -0.66124(3)
Ba1A_3 Ba 0.73760(2) -0.35591(2) 0.33876(3)
Ba1B_2 Ba 0.73760(2) -0.14409(2) 0.83876(3)
Ba1C Ba -0.73760(2) 0.35591(2) -0.33876(3)
Ba1C_2 Ba 0.26240(2) -0.64409(2) 0.66124(3)
Ba1C_3 Ba 0.26240(2) 0.35591(2) -0.33876(3)
O1B O 0.5693(3) -0.2945(3) 0.5893(4)
O1_2 O 0.4307(3) 0.2945(3) 0.4107(4)
O1A O -0.4307(3) -0.2055(3) 0.0893(4)
O1B_2 O -0.4307(3) -0.2945(3) -0.4107(4)
O1C O 0.4307(3) 0.2055(3) -0.0893(4)
O2B O 0.4790(3) -0.4641(3) 0.7059(4)
O2A O 0.4790(3) -0.0359(3) 0.2059(4)
O2C O -0.4790(3) 0.0359(3) -0.2059(4)
O3B O -0.0721(3) -0.1990(3) 0.1780(5)
O3A O -0.0721(3) -0.3010(3) -0.3220(5)
O3C O 0.0721(3) 0.3010(3) 0.3220(5)
O4B O -0.2761(3) -0.4067(3) -0.0487(5)
O4A O -0.2761(3) -0.0933(3) -0.5487(5)
O4C O 0.2761(3) 0.0933(3) 0.5487(5)
N1B N 0.1336(4) -0.3640(3) 0.3413(6)
O5B O 0.0708(3) -0.0350(3) 0.2517(5)
N2B N 0.2436(3) -0.4243(3) 0.4344(5)
N2A N 0.2436(3) -0.0757(3) -0.0656(5)
N2C N -0.2436(3) 0.0757(3) 0.0656(5)
C1B C 0.0421(5) -0.1506(4) 0.2475(7)
C2B C 0.2854(4) -0.2145(4) 0.4244(6)
C3B C 0.3374(4) -0.3329(4) 0.4846(6)
C4B C 0.1524(4) -0.2376(4) 0.3343(5)
C5B C 0.4718(4) -0.3675(4) 0.6022(6)
H1B H 0.061(7) -0.412(6) 0.315(9)
H2B H -0.348(6) -0.431(5) -0.129(8)
H3B H 0.331(6) -0.143(5) 0.440(8)
H4B H -0.216(8) -0.467(8) -0.071(12)
loop_
_geom_bond_atom_site_label_1
_geom_bond_atom_site_label_2
_geom_bond_site_symmetry_1
_geom_bond_site_symmetry_2
Ba1 O3 1_555 1_555
O1 C5 1_555 1_555
O2 C5 1_555 1_555
O3 C1 1_555 1_555
O4 Ba1 1_555 1_555
N1 N2 1_555 1_555
O5 C1 1_555 1_555
N2 C3 1_555 1_555
C1 C4 1_555 1_555
C2 C3 1_555 1_555
C3 C5 1_555 1_555
C4 N1 1_555 1_555
H1 N1 1_555 1_555
H2 O4 1_555 1_555
H3 C2 1_555 1_555
H4 O4 1_555 1_555
Ba1B O5 1_555 1_555
Ba1_2 O1 1_555 1_555
Ba1A O1A 1_555 1_555
Ba1A_2 O2 1_555 1_555
Ba1A_3 O1B 1_555 1_555
Ba1B_2 O1B 1_555 1_555
Ba1C O1 1_555 1_555
Ba1C_2 O2B 1_555 1_555
Ba1C_3 O3 1_555 1_555
O1B C5B 1_555 1_555
O1_2 Ba1 1_555 1_555
O1A Ba1B 1_555 1_555
O1B_2 Ba1B 1_555 1_555
O1C Ba1 1_555 1_555
O2B C5B 1_555 1_555
O2A Ba1 1_555 1_555
O2C Ba1B 1_555 1_555
O3B Ba1B 1_555 1_555
O3A Ba1B 1_555 1_555
O3C Ba1 1_555 1_555
O4B Ba1B 1_555 1_555
O4A Ba1B 1_555 1_555
O4C Ba1 1_555 1_555
N1B N2B 1_555 1_555
O5B Ba1 1_555 1_555
N2B Ba1C_2 1_555 1_555
N2A Ba1 1_555 1_555
N2C Ba1B 1_555 1_555
C1B O3B 1_555 1_555
C2B C3B 1_555 1_555
C3B N2B 1_555 1_555
C4B N1B 1_555 1_555
C5B C3B 1_555 1_555
H1B N1B 1_555 1_555
H2B O4B 1_555 1_555
H3B C2B 1_555 1_555
H4B O4B 1_555 1_555
O4 Ba1C_3 1_555 1_555
N2 Ba1A_2 1_555 1_555
C2 C4 1_555 1_555
Ba1A O3B 1_555 1_555
Ba1A O4B 1_555 1_555
Ba1C_3 O1C 1_555 1_555
O5B C1B 1_555 1_555
C1B C4B 1_555 1_555
C2B C4B 1_555 1_555

#END
