
#######################################################################
#
#                 Cambridge Crystallographic Data Centre
#                                CCDC 
#
#######################################################################
#
# If this CIF has been generated from an entry in the Cambridge 
# Structural Database, then it will include bibliographic, chemical, 
# crystal, experimental, refinement or atomic coordinate data resulting 
# from the CCDC's data processing and validation procedures.
#
#######################################################################

data_XEXLUJ
_symmetry_cell_setting           monoclinic
_symmetry_space_group_name_H-M   'P 21/c'
_symmetry_Int_Tables_number      14
_space_group_name_Hall           '-P 2ybc'
loop_
_symmetry_equiv_pos_site_id
_symmetry_equiv_pos_as_xyz
1 x,y,z
2 -x,1/2+y,1/2-z
3 -x,-y,-z
4 x,1/2-y,1/2+z
_cell_length_a                   5.6137(2)
_cell_length_b                   26.3769(9)
_cell_length_c                   17.1499(6)
_cell_angle_alpha                90
_cell_angle_beta                 96.820(2)
_cell_angle_gamma                90
_cell_volume                     2521.45
loop_
_atom_site_label
_atom_site_type_symbol
_atom_site_fract_x
_atom_site_fract_y
_atom_site_fract_z
Zn1 Zn 0.89051(8) 0.471703(15) 0.42758(3)
O1 O 0.6979(5) 0.53621(10) 0.41097(17)
O2 O 0.8184(5) 0.57146(10) 0.52835(17)
O3 O 0.2514(5) 0.55491(10) 0.47455(17)
O4 O 0.1313(5) 0.51022(10) 0.36653(17)
O5 O 0.6888(6) 0.80383(11) 0.3335(2)
O6 O -0.0031(6) 0.75101(12) 0.1955(2)
N1 N 0.2310(6) 0.91654(12) 0.1491(2)
N2 N 0.3432(6) 0.77688(13) 0.2641(2)
C1 C 0.4213(8) 0.88828(16) 0.1381(3)
H1 H 0.5283 0.8999 0.1031
C2 C 0.4673(8) 0.84239(16) 0.1765(3)
H2 H 0.6037 0.8228 0.1678
C3 C 0.3114(7) 0.82568(15) 0.2274(3)
C4 C 0.1190(8) 0.85585(16) 0.2412(3)
H3 H 0.0133 0.8459 0.2777
C5 C 0.0853(8) 0.90068(15) 0.2005(3)
H4 H -0.0475 0.9214 0.2092
C6 C 0.5478(7) 0.76969(15) 0.3189(3)
C7 C 0.5738(7) 0.71925(15) 0.3558(2)
C8 C 0.4042(7) 0.68081(14) 0.3356(2)
C9 C 0.2046(7) 0.69018(14) 0.2789(2)
C10 C 0.1675(8) 0.74061(16) 0.2427(3)
C11 C 0.7656(8) 0.71098(15) 0.4115(3)
H5 H 0.8770 0.7375 0.4257
C12 C 0.7977(7) 0.66321(15) 0.4475(3)
H6 H 0.9313 0.6577 0.4860
C13 C 0.6376(7) 0.62416(14) 0.4278(2)
C14 C 0.4316(7) 0.63217(14) 0.3729(2)
C15 C 0.2484(7) 0.59539(14) 0.3527(2)
C16 C 0.0634(8) 0.60519(15) 0.2945(3)
H7 H -0.0509 0.5794 0.2795
C17 C 0.0404(8) 0.65217(15) 0.2572(3)
H8 H -0.0879 0.6581 0.2169
C18 C 0.7182(7) 0.57293(14) 0.4592(2)
C19 C 0.2156(7) 0.54906(15) 0.4016(2)
Zn1_2 Zn -0.10949(8) 0.471703(15) 0.42758(3)
Zn1A Zn 0.10949(8) 0.971703(15) 0.07242(3)
Zn1B Zn 0.10949(8) 0.528297(15) 0.57242(3)
Zn1B_2 Zn 1.10949(8) 0.528297(15) 0.57242(3)
O2B O 1.1816(5) 0.42854(10) 0.47165(17)
O3B O 0.7486(5) 0.44509(10) 0.52545(17)
O4_2 O 1.1313(5) 0.51022(10) 0.36653(17)
N1A N 0.7690(6) 0.41654(12) 0.3509(2)
O7 O -0.2496(10) 1.2124(2) 0.5507(3)
H9 H -0.2239 1.1811 0.5486
C20 C -0.3031(16) 1.2322(4) 0.4724(4)
H10 H -0.1685 1.2249 0.4418
H11 H -0.3235 1.2694 0.4746
C21 C -0.5331(19) 1.2079(4) 0.4325(7)
H12 H -0.6491 1.1994 0.4696
H13 H -0.6117 1.2283 0.3882
O8 O -0.407(3) 1.1641(6) 0.4072(7)
H14 H -0.3697 1.1448 0.4457
O9 O -0.137(5) 1.1095(9) 0.5772(15)
O10? O -0.343(2) 1.0412(7) 0.4041(8)
H15? H -0.3102 1.0694 0.4255
C22? C -0.493(2) 1.0489(5) 0.3307(8)
H16? H -0.4128 1.0723 0.2971
H17? H -0.6472 1.0644 0.3408
C23? C -0.542(2) 0.9981(5) 0.2882(10)
H18? H -0.6067 0.9727 0.3226
H19? H -0.6548 1.0021 0.2397
O11? O -0.304(2) 0.9837(5) 0.2702(8)
H20? H -0.2530 1.0058 0.2412
O12? O 0.352(3) 1.0575(6) 0.5301(9)
H21? H 0.4939 1.0680 0.5368
C24? C 0.203(4) 1.0892(10) 0.5736(15)
H22? H 0.2673 1.1242 0.5756
H23? H 0.2115 1.0766 0.6282
C25? C -0.061(5) 1.0902(15) 0.537(2)
H24? H -0.1174 1.0571 0.5146
H25? H -0.1713 1.1031 0.5731
O13? O -0.013(4) 1.1268(9) 0.4776(16)
H26? H -0.1429 1.1362 0.4526
O14? O -0.199(4) 1.1026(9) 0.5583(12)
H27? H -0.3111 1.0821 0.5448
C26? C 0.024(5) 1.0750(16) 0.5769(16)
H28? H -0.0087 1.0398 0.5927
H29? H 0.1258 1.0918 0.6204
C27? C 0.148(5) 1.0753(10) 0.5015(13)
H30? H 0.3220 1.0787 0.5190
H31? H 0.1249 1.0410 0.4787
O15? O 0.097(3) 1.1104(7) 0.4368(10)
H32? H 0.1639 1.1003 0.3983
O16? O -0.526(4) 1.2145(9) 0.3602(14)
O17? O -0.575(4) 1.1551(8) 0.4196(13)
O18? O 0.073(6) 1.0932(12) 0.5623(18)
O19? O -0.615(5) 1.0805(11) 0.3539(16)
O20? O -0.464(6) 1.0285(13) 0.3159(19)
O21? O -0.649(6) 1.0060(12) 0.3314(18)
O22? O -0.779(9) 0.9815(17) 0.350(3)
O23? O -0.607(8) 0.9797(16) 0.401(3)
O24? O -0.831(4) 1.0374(8) 0.3747(13)
loop_
_geom_bond_atom_site_label_1
_geom_bond_atom_site_label_2
_geom_bond_site_symmetry_1
_geom_bond_site_symmetry_2
Zn1 O1 1_555 1_555
O1 C18 1_555 1_555
O2 C18 1_555 1_555
O3 C19 1_555 1_555
O4 C19 1_555 1_555
O5 C6 1_555 1_555
O6 C10 1_555 1_555
N1 C1 1_555 1_555
N2 C3 1_555 1_555
C1 H1 1_555 1_555
C2 C1 1_555 1_555
H2 C2 1_555 1_555
C3 C2 1_555 1_555
C4 C3 1_555 1_555
H3 C4 1_555 1_555
C5 N1 1_555 1_555
H4 C5 1_555 1_555
C6 N2 1_555 1_555
C7 C6 1_555 1_555
C8 C7 1_555 1_555
C9 C8 1_555 1_555
C10 N2 1_555 1_555
C11 C7 1_555 1_555
H5 C11 1_555 1_555
C12 C11 1_555 1_555
H6 C12 1_555 1_555
C13 C12 1_555 1_555
C14 C8 1_555 1_555
C15 C14 1_555 1_555
C16 C15 1_555 1_555
H7 C16 1_555 1_555
C17 C9 1_555 1_555
H8 C17 1_555 1_555
C18 C13 1_555 1_555
C19 C15 1_555 1_555
O7 H9 1_555 1_555
C20 O7 1_555 1_555
H10 C20 1_555 1_555
H11 C20 1_555 1_555
C21 C20 1_555 1_555
H12 C21 1_555 1_555
H13 C21 1_555 1_555
O8 C21 1_555 1_555
H14 O8 1_555 1_555
Zn1_2 O4 1_555 1_555
Zn1A N1 1_555 1_555
Zn1B O3 1_555 1_555
Zn1B_2 O2 1_555 1_555
O2B Zn1 1_555 1_555
O3B Zn1 1_555 1_555
O4_2 Zn1 1_555 1_555
N1A Zn1 1_555 1_555
C4 C5 1_555 1_555
C9 C10 1_555 1_555
C13 C14 1_555 1_555
C16 C17 1_555 1_555

#END
