
#######################################################################
#
#                 Cambridge Crystallographic Data Centre
#                                CCDC 
#
#######################################################################
#
# If this CIF has been generated from an entry in the Cambridge 
# Structural Database, then it will include bibliographic, chemical, 
# crystal, experimental, refinement or atomic coordinate data resulting 
# from the CCDC's data processing and validation procedures.
#
#######################################################################

data_XIBZUF
_symmetry_cell_setting           orthorhombic
_symmetry_space_group_name_H-M   'P 21 21 21'
_symmetry_Int_Tables_number      19
_space_group_name_Hall           'P 2ac 2ab'
loop_
_symmetry_equiv_pos_site_id
_symmetry_equiv_pos_as_xyz
1 x,y,z
2 1/2-x,-y,1/2+z
3 1/2+x,1/2-y,-z
4 -x,1/2+y,1/2-z
_cell_length_a                   14.4590(15)
_cell_length_b                   20.2430(10)
_cell_length_c                   21.109(2)
_cell_angle_alpha                90
_cell_angle_beta                 90
_cell_angle_gamma                90
_cell_volume                     6178.47
loop_
_atom_site_label
_atom_site_type_symbol
_atom_site_fract_x
_atom_site_fract_y
_atom_site_fract_z
Y1 Y -0.05131(5) -0.18107(4) 0.09695(4)
Y2 Y 0.19789(5) -0.34888(4) 0.06614(4)
N1 N 0.3264(6) 0.0396(4) 0.0475(4)
H1 H 0.3058 0.0535 0.0833
N2 N 0.4267(6) 0.2000(4) 0.2247(3)
H2 H 0.4435 0.1619 0.2108
N3 N 0.3745(7) 0.3218(4) -0.0913(4)
H3 H 0.3503 0.2850 -0.1031
O1 O 0.0952(4) -0.1462(4) 0.0811(3)
O2 O 0.1795(4) -0.2394(3) 0.0703(3)
O3 O 0.4653(4) -0.2137(3) -0.0649(4)
O4 O 0.5504(5) -0.1268(3) -0.0416(3)
O5 O 0.3792(8) 0.0684(4) -0.0457(4)
O6 O 0.6547(4) 0.1679(3) 0.4023(3)
O7 O 0.5695(4) 0.1734(3) 0.4906(3)
O8 O 0.2848(4) 0.3190(4) 0.4659(3)
O9 O 0.1985(4) 0.2913(3) 0.3820(3)
O10 O 0.3792(7) 0.3044(4) 0.1999(4)
O11 O 0.3221(5) 0.4324(3) -0.3545(3)
O12 O 0.3527(5) 0.3289(3) -0.3295(3)
O13 O 0.4295(5) 0.6040(3) -0.1818(3)
O14 O 0.3944(5) 0.5716(3) -0.0837(3)
O15 O 0.4658(8) 0.3722(5) -0.0179(4)
O16 O 0.0066(6) -0.2361(3) 0.1872(3)
O17 O 0.2576(5) -0.4429(3) 0.0143(3)
C1 C 0.1692(6) -0.1767(4) 0.0674(4)
C2 C 0.2493(3) -0.1358(2) 0.0446(3)
C3 C 0.3226(4) -0.16552(18) 0.0129(3)
H4 H 0.3221 -0.2108 0.0056
C4 C 0.3967(3) -0.1275(3) -0.0079(3)
C5 C 0.3974(3) -0.0598(2) 0.0030(3)
H5 H 0.4470 -0.0343 -0.0110
C6 C 0.3241(4) -0.03008(19) 0.0347(3)
C7 C 0.2501(3) -0.0681(2) 0.0555(3)
H6 H 0.2010 -0.0482 0.0767
C8 C 0.4755(6) -0.1573(4) -0.0407(4)
C9 C 0.3591(7) 0.0840(4) 0.0061(4)
C10 C 0.3709(7) 0.1518(4) 0.0316(4)
C11 C 0.3776(7) 0.2033(4) -0.0132(4)
H7 H 0.3662 0.1946 -0.0558
C12 C 0.4002(9) 0.2649(5) 0.0051(5)
C13 C 0.4048(8) 0.2792(5) 0.0723(4)
H8 H 0.4146 0.3223 0.0860
C14 C 0.3947(8) 0.2297(4) 0.1156(4)
C15 C 0.3809(7) 0.1644(4) 0.0949(4)
H9 H 0.3786 0.1300 0.1241
C16 C 0.4020(8) 0.2465(5) 0.1835(4)
C17 C 0.4259(7) 0.2115(5) 0.2918(4)
C18 C 0.5005(7) 0.1905(5) 0.3269(4)
H10 H 0.5502 0.1694 0.3075
C19 C 0.5000(6) 0.2019(5) 0.3935(4)
C20 C 0.5819(6) 0.1774(5) 0.4311(5)
C21 C 0.4267(6) 0.2325(4) 0.4197(4)
H11 H 0.4266 0.2399 0.4632
C22 C 0.3531(6) 0.2529(4) 0.3850(4)
C23 C 0.2723(6) 0.2915(4) 0.4124(4)
C24 C 0.3538(7) 0.2421(5) 0.3187(4)
H12 H 0.3043 0.2561 0.2939
C25 C 0.4082(10) 0.3239(5) -0.0345(5)
C26 C 0.3733(6) 0.3760(2) -0.1374(2)
C27 C 0.3620(5) 0.35978(19) -0.2009(2)
H13 H 0.3545 0.3159 -0.2129
C28 C 0.3619(5) 0.4092(2) -0.24664(19)
C29 C 0.3731(5) 0.4748(2) -0.2288(2)
H14 H 0.3731 0.5079 -0.2594
C30 C 0.3845(5) 0.4910(2) -0.1653(2)
C31 C 0.3845(5) 0.4416(3) -0.11959(18)
H15 H 0.3921 0.4524 -0.0771
C32 C 0.3424(7) 0.3903(4) -0.3128(4)
C33 C 0.4034(7) 0.5588(5) -0.1422(4)
Y1A Y 0.55131(5) 0.18107(4) 0.59695(4)
Y1B Y 0.44869(5) -0.31893(4) -0.09695(4)
Y1B_2 Y 0.44869(5) 0.68107(4) -0.09695(4)
Y1C Y 0.05131(5) 0.31893(4) 0.40305(4)
Y2A Y 0.30211(5) 0.34888(4) -0.43386(4)
Y2A_2 Y 0.30211(5) 0.34888(4) 0.56614(4)
Y2B Y 0.69789(5) -0.15112(4) -0.06614(4)
Y2C Y 0.80211(5) 0.15112(4) 0.43386(4)
O3B O -0.0347(4) -0.2863(3) 0.0649(4)
O4B O 0.0504(5) -0.3732(3) 0.0416(3)
O6C O 0.3453(4) -0.3321(3) 0.0977(3)
O7A O -0.0695(4) -0.1734(3) -0.0094(3)
O8A O 0.2152(4) -0.3190(4) -0.0341(3)
O9C O -0.1985(4) -0.2087(3) 0.1180(3)
O11A O 0.1779(5) -0.4324(3) 0.1455(3)
O12A O 0.1473(5) -0.3289(3) 0.1705(3)
O13B O -0.0705(5) -0.1040(3) 0.1818(3)
O14B O -0.1056(5) -0.0716(3) 0.0837(3)
loop_
_geom_bond_atom_site_label_1
_geom_bond_atom_site_label_2
_geom_bond_site_symmetry_1
_geom_bond_site_symmetry_2
Y1 O1 1_555 1_555
Y2 O2 1_555 1_555
N1 H1 1_555 1_555
N2 H2 1_555 1_555
N3 H3 1_555 1_555
O1 C1 1_555 1_555
O2 C1 1_555 1_555
O3 C8 1_555 1_555
O4 C8 1_555 1_555
O5 C9 1_555 1_555
O6 C20 1_555 1_555
O7 C20 1_555 1_555
O8 C23 1_555 1_555
O9 C23 1_555 1_555
O10 C16 1_555 1_555
O11 C32 1_555 1_555
O12 C32 1_555 1_555
O13 C33 1_555 1_555
O14 C33 1_555 1_555
O15 C25 1_555 1_555
O16 Y1 1_555 1_555
O17 Y2 1_555 1_555
C1 C2 1_555 1_555
C2 C3 1_555 1_555
C3 H4 1_555 1_555
C4 C3 1_555 1_555
C5 C4 1_555 1_555
H5 C5 1_555 1_555
C6 N1 1_555 1_555
C7 C2 1_555 1_555
H6 C7 1_555 1_555
C8 C4 1_555 1_555
C9 N1 1_555 1_555
C10 C9 1_555 1_555
C11 C10 1_555 1_555
H7 C11 1_555 1_555
C12 C11 1_555 1_555
C13 C12 1_555 1_555
H8 C13 1_555 1_555
C14 C13 1_555 1_555
C15 C10 1_555 1_555
H9 C15 1_555 1_555
C16 N2 1_555 1_555
C17 N2 1_555 1_555
C18 C17 1_555 1_555
H10 C18 1_555 1_555
C19 C18 1_555 1_555
C20 C19 1_555 1_555
C21 C19 1_555 1_555
H11 C21 1_555 1_555
C22 C21 1_555 1_555
C23 C22 1_555 1_555
C24 C17 1_555 1_555
H12 C24 1_555 1_555
C25 N3 1_555 1_555
C26 N3 1_555 1_555
C27 C26 1_555 1_555
H13 C27 1_555 1_555
C28 C27 1_555 1_555
C29 C28 1_555 1_555
H14 C29 1_555 1_555
C30 C29 1_555 1_555
C31 C26 1_555 1_555
H15 C31 1_555 1_555
C32 C28 1_555 1_555
C33 C30 1_555 1_555
Y1A O7 1_555 1_555
Y1B O3 1_555 1_555
Y1B_2 O13 1_555 1_555
Y1C O9 1_555 1_555
Y2A O11 1_555 1_555
Y2A_2 O8 1_555 1_555
Y2B O4 1_555 1_555
Y2C O6 1_555 1_555
O3B Y1 1_555 1_555
O4B Y2 1_555 1_555
O6C Y2 1_555 1_555
O7A Y1 1_555 1_555
O8A Y2 1_555 1_555
O9C Y1 1_555 1_555
O11A Y2 1_555 1_555
O12A Y2 1_555 1_555
O13B Y1 1_555 1_555
O14B Y1 1_555 1_555
O12 Y2A 1_555 1_555
O14 Y1B_2 1_555 1_555
C5 C6 1_555 1_555
C6 C7 1_555 1_555
C12 C25 1_555 1_555
C14 C15 1_555 1_555
C14 C16 1_555 1_555
C22 C24 1_555 1_555
C30 C31 1_555 1_555

#END
