
#######################################################################
#
#                 Cambridge Crystallographic Data Centre
#                                CCDC 
#
#######################################################################
#
# If this CIF has been generated from an entry in the Cambridge 
# Structural Database, then it will include bibliographic, chemical, 
# crystal, experimental, refinement or atomic coordinate data resulting 
# from the CCDC's data processing and validation procedures.
#
#######################################################################

data_XIHRIQ
_symmetry_cell_setting           triclinic
_symmetry_space_group_name_H-M   'P -1'
_symmetry_Int_Tables_number      2
_space_group_name_Hall           '-P 1'
loop_
_symmetry_equiv_pos_site_id
_symmetry_equiv_pos_as_xyz
1 x,y,z
2 -x,-y,-z
_cell_length_a                   10.725(2)
_cell_length_b                   13.3310(14)
_cell_length_c                   15.2614(17)
_cell_angle_alpha                65.641(8)
_cell_angle_beta                 86.004(11)
_cell_angle_gamma                74.007(14)
_cell_volume                     1908.41
loop_
_atom_site_label
_atom_site_type_symbol
_atom_site_fract_x
_atom_site_fract_y
_atom_site_fract_z
Co1 Co 0.87138(9) 0.98660(8) 0.41143(6)
O1 O 0.6846(6) 1.0539(5) 0.3232(4)
O2 O 0.8535(6) 0.9404(5) 0.2959(4)
O3 O 1.0486(5) 0.8726(4) 0.4509(4)
O4 O 1.1951(5) 0.9206(4) 0.5118(4)
N1 N 0.9464(6) 1.1264(5) 0.3129(4)
N2 N 1.2006(8) 1.3904(6) 0.0896(5)
N3 N 1.5219(8) 1.6245(6) -0.2378(5)
N4 N 1.7912(6) 1.8563(5) -0.4808(4)
C1 C 0.8722(8) 1.2344(6) 0.2810(5)
H1 H 0.7883 1.2479 0.3022
C2 C 0.9138(9) 1.3266(7) 0.2184(6)
H2 H 0.8585 1.4002 0.1980
C3 C 1.0379(8) 1.3093(7) 0.1862(5)
C4 C 1.1139(9) 1.1987(8) 0.2189(6)
H3 H 1.1979 1.1839 0.1982
C5 C 1.0681(9) 1.1079(7) 0.2824(6)
H4 H 1.1221 1.0336 0.3040
C6 C 1.0843(10) 1.4084(8) 0.1181(6)
H5 H 1.0296 1.4823 0.0967
C7 C 1.2450(9) 1.4833(8) 0.0264(6)
C8 C 1.2100(11) 1.5896(9) 0.0305(7)
H6 H 1.1506 1.6036 0.0742
C9 C 1.2672(12) 1.6783(9) -0.0342(8)
H7 H 1.2455 1.7493 -0.0313
C10 C 1.3522(10) 1.6580(8) -0.0989(7)
H8 H 1.3865 1.7162 -0.1413
C11 C 1.3889(9) 1.5521(8) -0.1030(6)
C12 C 1.4782(10) 1.5280(8) -0.1707(6)
C13 C 1.5096(11) 1.4245(8) -0.1758(8)
H9 H 1.5635 1.4123 -0.2230
C14 C 1.4607(13) 1.3367(10) -0.1101(9)
H10 H 1.4872 1.2645 -0.1110
C15 C 1.3761(11) 1.3549(9) -0.0458(8)
H11 H 1.3419 1.2960 -0.0046
C16 C 1.3377(9) 1.4625(8) -0.0395(6)
C17 C 1.6381(10) 1.6032(8) -0.2617(6)
H12 H 1.6927 1.5297 -0.2311
C18 C 1.6898(8) 1.6927(7) -0.3376(5)
C19 C 1.6203(7) 1.8070(7) -0.3759(5)
H13 H 1.5395 1.8310 -0.3537
C20 C 1.6744(7) 1.8851(7) -0.4483(5)
H14 H 1.6263 1.9614 -0.4755
C21 C 1.8568(8) 1.7451(6) -0.4427(6)
H15 H 1.9380 1.7231 -0.4653
C22 C 1.8101(9) 1.6625(7) -0.3720(6)
H16 H 1.8593 1.5865 -0.3475
C23 C 0.6656(9) 1.0031(7) 0.1947(6)
C24 C 0.5378(11) 1.0453(9) 0.1779(7)
H17 H 0.4904 1.0765 0.2184
C25 C 0.4707(11) 1.0452(9) 0.1024(8)
H18 H 0.3812 1.0767 0.0940
C26 C 0.5344(9) 0.9996(8) 0.0409(6)
C27 C 0.6670(11) 0.9514(15) 0.0573(9)
H19 H 0.7135 0.9181 0.0178
C28 C 0.7328(12) 0.9529(17) 0.1350(9)
H20 H 0.8219 0.9197 0.1459
C29 C 1.4504(7) 0.5514(6) 0.4976(6)
C30 C 1.4719(8) 0.6229(9) 0.5360(8)
H21 H 1.5522 0.6040 0.5667
C31 C 1.3806(8) 0.7201(8) 0.5311(8)
H22 H 1.3996 0.7650 0.5588
C32 C 1.2618(7) 0.7515(6) 0.4856(5)
C33 C 1.2358(9) 0.6855(8) 0.4456(7)
H23 H 1.1553 0.7060 0.4145
C34 C 1.3296(9) 0.5864(8) 0.4507(8)
H24 H 1.3106 0.5427 0.4219
C35 C 0.7354(9) 1.0003(7) 0.2766(5)
C36 C 1.1607(6) 0.8570(5) 0.4822(4)
Co1A Co 0.12862(9) 1.01340(8) -0.41143(6)
Co1A_2 Co 1.12862(9) 1.01340(8) 0.58857(6)
Co1_2 Co 1.87138(9) 1.98660(8) -0.58857(6)
Co1A_3 Co 2.12862(9) 0.01340(8) 0.58857(6)
Co1_3 Co 1.87138(9) -0.01340(8) 0.41143(6)
Co1_4 Co -0.12862(9) -0.01340(8) 1.41143(6)
O1A O 0.3154(6) 0.9461(5) -0.3232(4)
O2A O 0.1465(6) 1.0596(5) -0.2959(4)
O3A O 1.9514(5) 0.1274(4) 0.5491(4)
O3A_2 O -0.0486(5) 1.1274(4) -0.4509(4)
O4A O 1.8049(5) 0.0794(4) 0.4882(4)
O4A_2 O 0.8049(5) 1.0794(4) 0.4882(4)
O4_2 O 0.1951(5) 0.9206(4) -0.4882(4)
N1_2 N -0.0536(6) 0.1264(5) 1.3129(4)
N1A N 0.0536(6) 0.8736(5) -0.3129(4)
N2_2 N 0.2006(8) 0.3904(6) 1.0896(5)
N3_2 N 0.5219(8) 0.6245(6) 0.7622(5)
N4_2 N 0.7912(6) 0.8563(5) 0.5192(4)
N4A N 0.2088(6) 1.1437(5) -0.5192(4)
C1_2 C -0.1278(8) 0.2344(6) 1.2810(5)
H1_2 H -0.2117 0.2479 1.3022
C2_2 C -0.0862(9) 0.3266(7) 1.2184(6)
H2_2 H -0.1415 0.4002 1.1980
C3_2 C 0.0379(8) 0.3093(7) 1.1862(5)
C4_2 C 0.1139(9) 0.1987(8) 1.2189(6)
H3_2 H 0.1979 0.1839 1.1982
C5_2 C 0.0681(9) 0.1079(7) 1.2824(6)
H4_2 H 0.1221 0.0336 1.3040
C6_2 C 0.0843(10) 0.4084(8) 1.1181(6)
H5_2 H 0.0296 0.4823 1.0967
C7_2 C 0.2450(9) 0.4833(8) 1.0264(6)
C8_2 C 0.2100(11) 0.5896(9) 1.0305(7)
H6_2 H 0.1506 0.6036 1.0742
C9_2 C 0.2672(12) 0.6783(9) 0.9658(8)
H7_2 H 0.2455 0.7493 0.9687
C10_2 C 0.3522(10) 0.6580(8) 0.9011(7)
H8_2 H 0.3865 0.7162 0.8587
C11_2 C 0.3889(9) 0.5521(8) 0.8970(6)
C12_2 C 0.4782(10) 0.5280(8) 0.8293(6)
C13_2 C 0.5096(11) 0.4245(8) 0.8242(8)
H9_2 H 0.5635 0.4123 0.7770
C14_2 C 0.4607(13) 0.3367(10) 0.8899(9)
H10_2 H 0.4872 0.2645 0.8890
C15_2 C 0.3761(11) 0.3549(9) 0.9542(8)
H11_2 H 0.3419 0.2960 0.9954
C16_2 C 0.3377(9) 0.4625(8) 0.9605(6)
C17_2 C 0.6381(10) 0.6032(8) 0.7383(6)
H12_2 H 0.6927 0.5297 0.7689
C18_2 C 0.6898(8) 0.6927(7) 0.6624(5)
C19_2 C 0.6203(7) 0.8070(7) 0.6241(5)
H13_2 H 0.5395 0.8310 0.6463
C20_2 C 0.6744(7) 0.8851(7) 0.5517(5)
H14_2 H 0.6263 0.9614 0.5245
C21_2 C 0.8568(8) 0.7451(6) 0.5573(6)
H15_2 H 0.9380 0.7231 0.5347
C22_2 C 0.8101(9) 0.6625(7) 0.6280(6)
H16_2 H 0.8593 0.5865 0.6525
C23A C 0.3344(9) 0.9969(7) -0.1947(6)
C24A C 0.4622(11) 0.9547(9) -0.1779(7)
H17A H 0.5096 0.9235 -0.2184
C25A C 0.5293(11) 0.9548(9) -0.1024(8)
H18A H 0.6188 0.9233 -0.0940
C26A C 0.4656(9) 1.0004(8) -0.0409(6)
C27A C 0.3330(11) 1.0486(15) -0.0573(9)
H19A H 0.2865 1.0819 -0.0178
C28A C 0.2672(12) 1.0471(17) -0.1350(9)
H20A H 0.1781 1.0803 -0.1459
C29A C 1.5496(7) 0.4486(6) 0.5024(6)
C30A C 1.5281(8) 0.3771(9) 0.4640(8)
H21A H 1.4478 0.3960 0.4333
C31A C 1.6194(8) 0.2799(8) 0.4689(8)
H22A H 1.6004 0.2350 0.4412
C32A C 1.7382(7) 0.2485(6) 0.5144(5)
C33A C 1.7642(9) 0.3145(8) 0.5544(7)
H23A H 1.8447 0.2940 0.5855
C34A C 1.6704(9) 0.4136(8) 0.5493(8)
H24A H 1.6894 0.4573 0.5781
C35A C 0.2646(9) 0.9997(7) -0.2766(5)
C36A C 1.8393(6) 0.1430(5) 0.5178(4)
O5 O 0.707(3) 0.6949(19) 0.3364(16)
H25 H 0.6502 0.7014 0.2997
C37 C 0.8334(17) 0.6410(14) 0.3105(12)
H26 H 0.8399 0.5631 0.3200
H27 H 0.8509 0.6844 0.2443
C38 C 0.916(3) 0.644(3) 0.375(2)
H28 H 1.0043 0.6084 0.3671
H29 H 0.8934 0.6038 0.4401
H30 H 0.9077 0.7222 0.3640
loop_
_geom_bond_atom_site_label_1
_geom_bond_atom_site_label_2
_geom_bond_site_symmetry_1
_geom_bond_site_symmetry_2
Co1 O1 1_555 1_555
O1 C35 1_555 1_555
O2 Co1 1_555 1_555
O3 Co1 1_555 1_555
O4 C36 1_555 1_555
N1 Co1 1_555 1_555
N2 C6 1_555 1_555
N3 C12 1_555 1_555
N4 C20 1_555 1_555
C1 N1 1_555 1_555
H1 C1 1_555 1_555
C2 C1 1_555 1_555
H2 C2 1_555 1_555
C3 C2 1_555 1_555
C4 C3 1_555 1_555
H3 C4 1_555 1_555
C5 N1 1_555 1_555
H4 C5 1_555 1_555
C6 C3 1_555 1_555
H5 C6 1_555 1_555
C7 N2 1_555 1_555
C8 C7 1_555 1_555
H6 C8 1_555 1_555
C9 C8 1_555 1_555
H7 C9 1_555 1_555
C10 C9 1_555 1_555
H8 C10 1_555 1_555
C11 C10 1_555 1_555
C12 C11 1_555 1_555
C13 C12 1_555 1_555
H9 C13 1_555 1_555
C14 C13 1_555 1_555
H10 C14 1_555 1_555
C15 C14 1_555 1_555
H11 C15 1_555 1_555
C16 C7 1_555 1_555
C17 N3 1_555 1_555
H12 C17 1_555 1_555
C18 C17 1_555 1_555
C19 C18 1_555 1_555
H13 C19 1_555 1_555
C20 C19 1_555 1_555
H14 C20 1_555 1_555
C21 N4 1_555 1_555
H15 C21 1_555 1_555
C22 C18 1_555 1_555
H16 C22 1_555 1_555
C23 C24 1_555 1_555
C24 H17 1_555 1_555
C25 C24 1_555 1_555
H18 C25 1_555 1_555
C26 C25 1_555 1_555
C27 C26 1_555 1_555
H19 C27 1_555 1_555
C28 C23 1_555 1_555
H20 C28 1_555 1_555
C29 C30 1_555 1_555
C30 H21 1_555 1_555
C31 C30 1_555 1_555
H22 C31 1_555 1_555
C32 C31 1_555 1_555
C33 C32 1_555 1_555
H23 C33 1_555 1_555
C34 C29 1_555 1_555
H24 C34 1_555 1_555
C35 O2 1_555 1_555
C36 O3 1_555 1_555
O5 H25 1_555 1_555
C37 O5 1_555 1_555
H26 C37 1_555 1_555
H27 C37 1_555 1_555
C38 C37 1_555 1_555
H28 C38 1_555 1_555
H29 C38 1_555 1_555
H30 C38 1_555 1_555
Co1A O1A 1_555 1_555
Co1A_2 O4 1_555 1_555
Co1_2 N4 1_555 1_555
Co1A_3 O3A 1_555 1_555
Co1_3 O4A 1_555 1_555
Co1_4 N1_2 1_555 1_555
O1A C35A 1_555 1_555
O2A Co1A 1_555 1_555
O3A C36A 1_555 1_555
O3A_2 Co1A 1_555 1_555
O4A C36A 1_555 1_555
O4A_2 Co1 1_555 1_555
O4_2 Co1A 1_555 1_555
N1_2 C1_2 1_555 1_555
N1A Co1A 1_555 1_555
N2_2 C6_2 1_555 1_555
N3_2 C12_2 1_555 1_555
N4_2 Co1 1_555 1_555
N4A Co1A 1_555 1_555
C1_2 H1_2 1_555 1_555
C2_2 C1_2 1_555 1_555
H2_2 C2_2 1_555 1_555
C3_2 C2_2 1_555 1_555
C4_2 C3_2 1_555 1_555
H3_2 C4_2 1_555 1_555
C5_2 N1_2 1_555 1_555
H4_2 C5_2 1_555 1_555
C6_2 C3_2 1_555 1_555
H5_2 C6_2 1_555 1_555
C7_2 N2_2 1_555 1_555
C8_2 C7_2 1_555 1_555
H6_2 C8_2 1_555 1_555
C9_2 C8_2 1_555 1_555
H7_2 C9_2 1_555 1_555
C10_2 C9_2 1_555 1_555
H8_2 C10_2 1_555 1_555
C11_2 C10_2 1_555 1_555
C12_2 C11_2 1_555 1_555
C13_2 C12_2 1_555 1_555
H9_2 C13_2 1_555 1_555
C14_2 C13_2 1_555 1_555
H10_2 C14_2 1_555 1_555
C15_2 C14_2 1_555 1_555
H11_2 C15_2 1_555 1_555
C16_2 C7_2 1_555 1_555
C17_2 N3_2 1_555 1_555
H12_2 C17_2 1_555 1_555
C18_2 C17_2 1_555 1_555
C19_2 C18_2 1_555 1_555
H13_2 C19_2 1_555 1_555
C20_2 N4_2 1_555 1_555
H14_2 C20_2 1_555 1_555
C21_2 N4_2 1_555 1_555
H15_2 C21_2 1_555 1_555
C22_2 C18_2 1_555 1_555
H16_2 C22_2 1_555 1_555
C23A C24A 1_555 1_555
C24A H17A 1_555 1_555
C25A C24A 1_555 1_555
H18A C25A 1_555 1_555
C26A C26 1_555 1_555
C27A C26A 1_555 1_555
H19A C27A 1_555 1_555
C28A C23A 1_555 1_555
H20A C28A 1_555 1_555
C29A C29 1_555 1_555
C30A C29A 1_555 1_555
H21A C30A 1_555 1_555
C31A C30A 1_555 1_555
H22A C31A 1_555 1_555
C32A C31A 1_555 1_555
C33A C32A 1_555 1_555
H23A C33A 1_555 1_555
C34A C29A 1_555 1_555
H24A C34A 1_555 1_555
C35A O2A 1_555 1_555
C36A C32A 1_555 1_555
C4 C5 1_555 1_555
C11 C16 1_555 1_555
C15 C16 1_555 1_555
C21 C22 1_555 1_555
C23 C35 1_555 1_555
C27 C28 1_555 1_555
C32 C36 1_555 1_555
C33 C34 1_555 1_555
C4_2 C5_2 1_555 1_555
C11_2 C16_2 1_555 1_555
C15_2 C16_2 1_555 1_555
C19_2 C20_2 1_555 1_555
C21_2 C22_2 1_555 1_555
C23A C35A 1_555 1_555
C25A C26A 1_555 1_555
C27A C28A 1_555 1_555
C33A C34A 1_555 1_555

#END
