
#######################################################################
#
#                 Cambridge Crystallographic Data Centre
#                                CCDC 
#
#######################################################################
#
# If this CIF has been generated from an entry in the Cambridge 
# Structural Database, then it will include bibliographic, chemical, 
# crystal, experimental, refinement or atomic coordinate data resulting 
# from the CCDC's data processing and validation procedures.
#
#######################################################################

data_XIHSEN01
_symmetry_cell_setting           monoclinic
_symmetry_space_group_name_H-M   'C 2/c'
_symmetry_Int_Tables_number      15
_space_group_name_Hall           '-C 2yn'
loop_
_symmetry_equiv_pos_site_id
_symmetry_equiv_pos_as_xyz
1 x,y,z
2 1/2+x,1/2+y,z
3 -x,y,1/2-z
4 1/2-x,1/2+y,1/2-z
5 -x,-y,-z
6 1/2-x,1/2-y,-z
7 x,-y,1/2+z
8 1/2+x,1/2-y,1/2+z
_cell_length_a                   13.331(3)
_cell_length_b                   18.051(4)
_cell_length_c                   21.149(4)
_cell_angle_alpha                90
_cell_angle_beta                 99.68(3)
_cell_angle_gamma                90
_cell_volume                     5016.79
loop_
_atom_site_label
_atom_site_type_symbol
_atom_site_fract_x
_atom_site_fract_y
_atom_site_fract_z
Co1 Co 0.0000 0.24716(3) 0.2500
Co2 Co 0.23743(5) 0.25731(3) 0.19293(2)
C1 C 0.2141(3) 0.2255(2) 0.48227(17)
C2 C 0.1982(3) 0.2289(2) 0.41451(17)
H1 H 0.1498 0.1982 0.3909
C3 C 0.2413(3) 0.2752(2) 0.31180(17)
C4 C 0.1599(4) 0.1762(3) 0.51630(18)
H2 H 0.1131 0.1437 0.4936
C5 C 0.2525(3) 0.2762(2) 0.38325(17)
C6 C 0.1747(4) 0.1755(2) 0.58165(18)
H3 H 0.1373 0.1435 0.6031
C7 C -0.0371(4) 0.0246(2) 0.5080(2)
C8 C -0.0717(4) 0.1509(2) 0.35997(19)
C9 C -0.0745(4) 0.0814(3) 0.4617(2)
H4 H -0.1242 0.1141 0.4705
C10 C -0.0387(4) 0.0877(2) 0.4061(2)
C11 C -0.0706(4) 0.0189(3) 0.5665(2)
H5 H -0.1175 0.0527 0.5772
C12 C 0.0526(3) 0.4967(2) 0.01013(18)
C13 C -0.0816(4) 0.4186(2) 0.0733(2)
H6 H -0.1261 0.3926 0.0946
C14 C 0.0238(3) 0.4113(2) 0.09366(18)
C15 C 0.0899(3) 0.4497(2) 0.06311(18)
H7 H 0.1596 0.4453 0.0770
C16 C 0.0644(4) 0.3588(2) 0.14840(17)
C17 C 0.1196(4) 0.5368(2) -0.0227(2)
H8 H 0.1896 0.5326 -0.0097
O1 O 0.1651(2) 0.24270(14) 0.27889(12)
O2 O -0.0211(3) 0.16047(17) 0.31634(14)
O3 O 0.3088(2) 0.30301(16) 0.28510(13)
O4 O 0.1591(3) 0.34975(17) 0.15898(14)
O5 O 0.3549(4) 0.2854(3) 0.1441(2)
C18 C 0.4344(6) 0.2473(4) 0.1454(4)
H9 H 0.4837 0.2492 0.1821
N1 N 0.4511(4) 0.2057(3) 0.0985(3)
O6 O 0.0016(3) 0.32985(16) 0.17753(13)
O7 O 0.3238(4) 0.1550(2) 0.2250(2)
C19 C 0.5384(6) 0.1566(5) 0.1040(4)
H10 H 0.5801 0.1630 0.1453
H11 H 0.5774 0.1683 0.0710
H12 H 0.5155 0.1062 0.0992
C20 C 0.0346(4) 0.0366(3) 0.3916(2)
H13 H 0.0587 0.0407 0.3530
N2 N 0.2753(7) 0.0348(5) 0.2366(4)
C21 C 0.2674(8) 0.1049(6) 0.2375(5)
H14 H 0.2076 0.1216 0.2500
C22 C 0.3808(10) 0.2052(7) 0.0388(6)
H15 H 0.3572 0.1556 0.0292
H16 H 0.4144 0.2231 0.0051
H17 H 0.3239 0.2366 0.0424
C23 C 0.1973(12) -0.0187(9) 0.2525(8)
H18 H 0.2308 -0.0612 0.2737
H19 H 0.1541 -0.0340 0.2138
H20 H 0.1570 0.0049 0.2803
C24 C 0.349(2) 0.0046(14) 0.2164(12)
H21 H 0.3506 0.0206 0.1733
H22 H 0.3415 -0.0483 0.2171
H23 H 0.4116 0.0185 0.2434
O8 O -0.1483(3) 0.1887(2) 0.36966(15)
Co1G Co 0.5000 0.25284(3) 0.7500
Co1F Co 0.0000 -0.24716(3) 0.7500
Co1F_2 Co 0.0000 0.75284(3) -0.2500
Co2E Co 0.26257(5) 0.24269(3) 0.80707(2)
Co2B Co -0.23743(5) 0.25731(3) 0.30707(2)
Co2F Co 0.23743(5) -0.25731(3) 0.69293(2)
Co2D Co -0.23743(5) 0.74269(3) -0.19293(2)
C1E C 0.2859(3) 0.2745(2) 0.51773(17)
C2E C 0.3018(3) 0.2711(2) 0.58549(17)
H1E H 0.3502 0.3018 0.6091
C3E C 0.2587(3) 0.2248(2) 0.68820(17)
C4E C 0.3401(4) 0.3238(3) 0.48370(18)
H2E H 0.3869 0.3563 0.5064
C5E C 0.2475(3) 0.2238(2) 0.61675(17)
C6E C 0.3253(4) 0.3245(2) 0.41835(18)
H3E H 0.3627 0.3565 0.3969
C7D C 0.0371(4) -0.0246(2) 0.4920(2)
C8D C 0.0717(4) -0.1509(2) 0.64003(19)
C9D C 0.0745(4) -0.0814(3) 0.5383(2)
H4D H 0.1242 -0.1141 0.5295
C10D C 0.0387(4) -0.0877(2) 0.5939(2)
C11D C 0.0706(4) -0.0189(3) 0.4335(2)
H5D H 0.1175 -0.0527 0.4228
C12D C -0.0526(3) 0.5033(2) -0.01013(18)
C13D C 0.0816(4) 0.5814(2) -0.0733(2)
H6D H 0.1261 0.6074 -0.0946
C14D C -0.0238(3) 0.5887(2) -0.09366(18)
C15D C -0.0899(3) 0.5503(2) -0.06311(18)
H7D H -0.1596 0.5547 -0.0770
C16D C -0.0644(4) 0.6412(2) -0.14840(17)
C17D C -0.1196(4) 0.4632(2) 0.0227(2)
H8D H -0.1896 0.4674 0.0097
O1E O 0.3349(2) 0.25730(14) 0.72111(12)
O1B O -0.1651(2) 0.24270(14) 0.22111(12)
O2D O 0.0211(3) -0.16047(17) 0.68366(14)
O2B O 0.0211(3) 0.16047(17) 0.18366(14)
O3E O 0.1912(2) 0.19699(16) 0.71490(13)
O4D O -0.1591(3) 0.65025(17) -0.15898(14)
O4E O 0.3409(3) 0.15025(17) 0.84102(14)
O5E O 0.1451(4) 0.2146(3) 0.8559(2)
C18E C 0.0656(6) 0.2527(4) 0.8546(4)
H9E H 0.0163 0.2508 0.8179
N1E N 0.0489(4) 0.2943(3) 0.9015(3)
O6D O -0.0016(3) 0.67015(16) -0.17753(13)
O6B O -0.0016(3) 0.32985(16) 0.32247(13)
O7E O 0.1762(4) 0.3450(2) 0.7750(2)
C19E C -0.0384(6) 0.3434(5) 0.8960(4)
H10E H -0.0801 0.3370 0.8547
H11E H -0.0774 0.3317 0.9290
H12E H -0.0155 0.3938 0.9008
C20D C -0.0346(4) -0.0366(3) 0.6084(2)
H13D H -0.0587 -0.0407 0.6470
N2E N 0.2247(7) 0.4652(5) 0.7634(4)
C21E C 0.2326(8) 0.3951(6) 0.7625(5)
H14E H 0.2924 0.3784 0.7500
C22E C 0.1192(10) 0.2948(7) 0.9612(6)
H15E H 0.1428 0.3444 0.9708
H16E H 0.0856 0.2769 0.9949
H17E H 0.1761 0.2634 0.9576
C23E C 0.3027(12) 0.5187(9) 0.7475(8)
H18E H 0.2692 0.5612 0.7263
H19E H 0.3459 0.5340 0.7862
H20E H 0.3430 0.4951 0.7197
C24E C 0.151(2) 0.4954(14) 0.7836(12)
H21E H 0.1494 0.4794 0.8267
H22E H 0.1585 0.5483 0.7829
H23E H 0.0884 0.4815 0.7566
O8D O 0.1483(3) -0.1887(2) 0.63034(15)
O8B O 0.1483(3) 0.1887(2) 0.13034(15)
O8G O 0.3517(3) 0.3113(2) 0.86966(15)
loop_
_geom_bond_atom_site_label_1
_geom_bond_atom_site_label_2
_geom_bond_site_symmetry_1
_geom_bond_site_symmetry_2
Co1 O1 1_555 1_555
Co2 O1 1_555 1_555
C1 C2 1_555 1_555
C2 H1 1_555 1_555
C3 C5 1_555 1_555
C4 C1 1_555 1_555
H2 C4 1_555 1_555
C5 C2 1_555 1_555
C6 C4 1_555 1_555
H3 C6 1_555 1_555
C7 C9 1_555 1_555
C8 C10 1_555 1_555
C9 H4 1_555 1_555
C10 C9 1_555 1_555
C11 C7 1_555 1_555
H5 C11 1_555 1_555
C12 C15 1_555 1_555
C13 H6 1_555 1_555
C14 C13 1_555 1_555
C15 C14 1_555 1_555
H7 C15 1_555 1_555
C16 C14 1_555 1_555
C17 C12 1_555 1_555
H8 C17 1_555 1_555
O1 C3 1_555 1_555
O2 Co1 1_555 1_555
O3 Co2 1_555 1_555
O4 Co2 1_555 1_555
O5 Co2 1_555 1_555
C18 O5 1_555 1_555
H9 C18 1_555 1_555
N1 C18 1_555 1_555
O6 Co1 1_555 1_555
O7 Co2 1_555 1_555
C19 N1 1_555 1_555
H10 C19 1_555 1_555
H11 C19 1_555 1_555
H12 C19 1_555 1_555
C20 C10 1_555 1_555
H13 C20 1_555 1_555
N2 C21 1_555 1_555
C21 O7 1_555 1_555
H14 C21 1_555 1_555
C22 N1 1_555 1_555
H15 C22 1_555 1_555
H16 C22 1_555 1_555
H17 C22 1_555 1_555
C23 N2 1_555 1_555
H18 C23 1_555 1_555
H19 C23 1_555 1_555
H20 C23 1_555 1_555
C24 N2 1_555 1_555
H21 C24 1_555 1_555
H22 C24 1_555 1_555
H23 C24 1_555 1_555
O8 C8 1_555 1_555
Co1G O1E 1_555 1_555
Co1F O2D 1_555 1_555
Co1F_2 O6D 1_555 1_555
Co2E O1E 1_555 1_555
Co2B O8 1_555 1_555
Co2F O8D 1_555 1_555
Co2D O4D 1_555 1_555
C1E C1 1_555 1_555
C2E C1E 1_555 1_555
H1E C2E 1_555 1_555
C3E C5E 1_555 1_555
C4E C1E 1_555 1_555
H2E C4E 1_555 1_555
C5E C6 1_555 1_555
C6E C5 1_555 1_555
H3E C6E 1_555 1_555
C7D C7 1_555 1_555
C8D C10D 1_555 1_555
C9D C7D 1_555 1_555
H4D C9D 1_555 1_555
C10D C9D 1_555 1_555
C11D C20 1_555 1_555
H5D C11D 1_555 1_555
C12D C12 1_555 1_555
C13D C17 1_555 1_555
H6D C13D 1_555 1_555
C14D C13D 1_555 1_555
C15D C12D 1_555 1_555
H7D C15D 1_555 1_555
C16D C14D 1_555 1_555
C17D C13 1_555 1_555
H8D C17D 1_555 1_555
O1E C3E 1_555 1_555
O1B Co1 1_555 1_555
O2D C8D 1_555 1_555
O2B Co1 1_555 1_555
O3E Co2E 1_555 1_555
O4D C16D 1_555 1_555
O4E Co2E 1_555 1_555
O5E Co2E 1_555 1_555
C18E O5E 1_555 1_555
H9E C18E 1_555 1_555
N1E C18E 1_555 1_555
O6D C16D 1_555 1_555
O6B Co1 1_555 1_555
O7E Co2E 1_555 1_555
C19E N1E 1_555 1_555
H10E C19E 1_555 1_555
H11E C19E 1_555 1_555
H12E C19E 1_555 1_555
C20D C11 1_555 1_555
H13D C20D 1_555 1_555
N2E C21E 1_555 1_555
C21E O7E 1_555 1_555
H14E C21E 1_555 1_555
C22E N1E 1_555 1_555
H15E C22E 1_555 1_555
H16E C22E 1_555 1_555
H17E C22E 1_555 1_555
C23E N2E 1_555 1_555
H18E C23E 1_555 1_555
H19E C23E 1_555 1_555
H20E C23E 1_555 1_555
C24E N2E 1_555 1_555
H21E C24E 1_555 1_555
H22E C24E 1_555 1_555
H23E C24E 1_555 1_555
O8D C8D 1_555 1_555
O8B Co2 1_555 1_555
O8G Co2E 1_555 1_555
C3 O3 1_555 1_555
C8 O2 1_555 1_555
C16 O4 1_555 1_555
C16 O6 1_555 1_555
Co2B O1B 1_555 1_555
C2E C5E 1_555 1_555
C3E O3E 1_555 1_555
C4E C6E 1_555 1_555
C7D C11D 1_555 1_555
C10D C20D 1_555 1_555
C12D C17D 1_555 1_555
C14D C15D 1_555 1_555

#END
