
#######################################################################
#
#                 Cambridge Crystallographic Data Centre
#                                CCDC 
#
#######################################################################
#
# If this CIF has been generated from an entry in the Cambridge 
# Structural Database, then it will include bibliographic, chemical, 
# crystal, experimental, refinement or atomic coordinate data resulting 
# from the CCDC's data processing and validation procedures.
#
#######################################################################

data_XIMPOA01
_symmetry_cell_setting           orthorhombic
_symmetry_space_group_name_H-M   'P 21 21 21'
_symmetry_Int_Tables_number      19
_space_group_name_Hall           'P 2ac 2ab'
loop_
_symmetry_equiv_pos_site_id
_symmetry_equiv_pos_as_xyz
1 x,y,z
2 1/2-x,-y,1/2+z
3 -x,1/2+y,1/2-z
4 1/2+x,1/2-y,-z
_cell_length_a                   14.774(6)
_cell_length_b                   15.653(7)
_cell_length_c                   16.871(7)
_cell_angle_alpha                90
_cell_angle_beta                 90
_cell_angle_gamma                90
_cell_volume                     3901.54
loop_
_atom_site_label
_atom_site_type_symbol
_atom_site_fract_x
_atom_site_fract_y
_atom_site_fract_z
Zn1 Zn 0.84626(6) 0.97532(6) -0.20973(5)
Zn2 Zn 0.58806(6) 1.47161(6) -0.26249(5)
C1 C 0.5046(6) 1.5800(6) -0.1529(5)
C2 C 0.4569(7) 1.6055(6) -0.0788(6)
H1 H 0.4390 1.6620 -0.0722
C3 C 0.4398(7) 1.5504(6) -0.0234(5)
H2 H 0.4595 1.4946 -0.0310
C4 C 0.3900(7) 1.5703(7) 0.0528(6)
C5 C 0.6624(6) 1.3166(5) -0.3013(5)
C6 C 0.7055(6) 1.2324(5) -0.2840(5)
H3 H 0.6963 1.2095 -0.2338
C7 C 0.7555(7) 1.1878(5) -0.3337(5)
H4 H 0.7634 1.2083 -0.3850
C8 C 0.8000(7) 1.1055(5) -0.3114(5)
C9 C 0.4830(7) 1.4384(6) -0.4168(5)
H5 H 0.5159 1.3902 -0.4311
C10 C 0.4149(7) 1.4740(7) -0.4585(5)
H6 H 0.3926 1.4546 -0.5068
C11 C 0.4342(6) 1.5484(6) -0.3515(5)
H7 H 0.4269 1.5899 -0.3126
C12 C 0.3123(6) 1.6031(7) -0.4409(6)
H8 H 0.2830 1.6249 -0.3936
H9 H 0.2673 1.5714 -0.4708
C13 C 0.3438(6) 1.6777(6) -0.4903(5)
C14 C 0.3643(6) 1.6665(6) -0.5700(6)
H10 H 0.3636 1.6119 -0.5918
C15 C 0.3858(6) 1.7364(6) -0.6174(6)
H11 H 0.3963 1.7287 -0.6713
C16 C 0.3917(6) 1.8190(6) -0.5841(6)
C17 C 0.3757(6) 1.8272(6) -0.5058(6)
H12 H 0.3802 1.8812 -0.4832
C18 C 0.3527(6) 1.7587(6) -0.4572(5)
H13 H 0.3434 1.7670 -0.4033
C19 C 0.4141(7) 1.8940(6) -0.6364(6)
H14 H 0.4279 1.9432 -0.6036
H15 H 0.4675 1.8808 -0.6676
C20 C 0.3231(8) 1.8800(8) -0.7625(7)
H16 H 0.3606 1.8424 -0.7897
C21 C 0.2684(6) 1.9668(6) -0.6728(5)
H17 H 0.2638 1.9987 -0.6265
C22 C 0.2395(7) 1.9121(6) -0.7877(6)
H18 H 0.2104 1.8990 -0.8351
C23 C 0.7101(9) 0.8319(7) -0.1941(7)
H19 H 0.7325 0.8140 -0.1453
C24 C 0.6382(8) 0.7955(7) -0.2329(7)
H20 H 0.6024 0.7503 -0.2157
C25 C 0.6925(6) 0.8997(6) -0.3014(5)
H21 H 0.6995 0.9393 -0.3420
C26 C 0.5631(6) 0.8214(6) -0.3624(5)
H22 H 0.5431 0.8751 -0.3851
H23 H 0.5112 0.7955 -0.3367
C27 C 0.5936(6) 0.7628(6) -0.4300(5)
C28 C 0.6076(7) 0.6772(6) -0.4134(6)
H24 H 0.6031 0.6576 -0.3615
C29 C 0.6287(6) 0.6196(6) -0.4751(6)
H25 H 0.6377 0.5620 -0.4642
C30 C 0.6358(6) 0.6497(6) -0.5518(6)
C31 C 0.6260(7) 0.7333(7) -0.5672(6)
H26 H 0.6326 0.7533 -0.6188
C32 C 0.6058(6) 0.7908(6) -0.5060(5)
H27 H 0.6006 0.8487 -0.5172
C33 C 0.6573(7) 0.5849(8) -0.6163(7)
H28 H 0.7163 0.5976 -0.6385
H29 H 0.6601 0.5283 -0.5930
C34 C 0.5117(6) 0.5434(6) -0.6855(6)
H30 H 0.4911 0.5038 -0.6486
C35 C 0.5186(8) 0.6247(8) -0.7878(6)
H31 H 0.5029 0.6514 -0.8351
C36 C 0.5958(8) 0.6384(9) -0.7465(7)
H32 H 0.6427 0.6754 -0.7595
O1 O 0.5354(5) 1.5044(4) -0.1585(4)
O2 O 0.5108(5) 1.6362(4) -0.2057(4)
O3 O 0.3767(4) 1.5073(4) 0.0975(3)
O4 O 0.3676(7) 1.6466(6) 0.0690(5)
O5 O 0.6243(4) 1.3519(4) -0.2429(4)
O6 O 0.6695(6) 1.3516(4) -0.3683(4)
O7 O 0.8239(6) 1.0543(5) -0.3635(5)
O8 O 0.8059(5) 1.0901(4) -0.2374(4)
N1 N 0.4951(5) 1.4872(4) -0.3482(4)
N2 N 0.3842(5) 1.5442(5) -0.4171(4)
N3 N 0.3383(5) 1.9150(5) -0.6900(5)
N4 N 0.2078(5) 1.9670(5) -0.7291(4)
N5 N 0.7440(5) 0.8985(4) -0.2376(4)
N6 N 0.6307(5) 0.8399(4) -0.3021(4)
N7 N 0.5903(5) 0.5849(6) -0.6797(5)
N8 N 0.4674(5) 0.5653(5) -0.7489(5)
Zn1C Zn 0.34626(6) 0.52468(6) -0.79027(5)
Zn1C_2 Zn 0.34626(6) 1.52468(6) 0.20973(5)
Zn2C Zn 0.08806(6) 2.02839(6) -0.73751(5)
O3C O 0.8767(4) 0.9927(4) -0.0975(3)
N4C N 0.7078(5) 1.5330(5) -0.2709(4)
N8C N 0.9674(5) 0.9347(5) -0.2511(5)
O9 O 0.3224(14) 1.8151(9) 0.0273(7)
O10 O 0.684(2) 1.564(2) -0.0078(13)
O11 O 0.500(3) 1.817(3) 0.092(3)
loop_
_geom_bond_atom_site_label_1
_geom_bond_atom_site_label_2
_geom_bond_site_symmetry_1
_geom_bond_site_symmetry_2
Zn1 O8 1_555 1_555
Zn2 O1 1_555 1_555
C1 C2 1_555 1_555
C2 H1 1_555 1_555
C3 C2 1_555 1_555
H2 C3 1_555 1_555
C4 C3 1_555 1_555
C5 C6 1_555 1_555
C6 H3 1_555 1_555
C7 C6 1_555 1_555
H4 C7 1_555 1_555
C8 C7 1_555 1_555
C9 H5 1_555 1_555
C10 C9 1_555 1_555
H6 C10 1_555 1_555
C11 H7 1_555 1_555
C12 H8 1_555 1_555
H9 C12 1_555 1_555
C13 C12 1_555 1_555
C14 C13 1_555 1_555
H10 C14 1_555 1_555
C15 C14 1_555 1_555
H11 C15 1_555 1_555
C16 C15 1_555 1_555
C17 C16 1_555 1_555
H12 C17 1_555 1_555
C18 C13 1_555 1_555
H13 C18 1_555 1_555
C19 C16 1_555 1_555
H14 C19 1_555 1_555
H15 C19 1_555 1_555
C20 H16 1_555 1_555
C21 H17 1_555 1_555
C22 C20 1_555 1_555
H18 C22 1_555 1_555
C23 H19 1_555 1_555
C24 C23 1_555 1_555
H20 C24 1_555 1_555
C25 H21 1_555 1_555
C26 H22 1_555 1_555
H23 C26 1_555 1_555
C27 C26 1_555 1_555
C28 C27 1_555 1_555
H24 C28 1_555 1_555
C29 C28 1_555 1_555
H25 C29 1_555 1_555
C30 C29 1_555 1_555
C31 C30 1_555 1_555
H26 C31 1_555 1_555
C32 C27 1_555 1_555
H27 C32 1_555 1_555
C33 C30 1_555 1_555
H28 C33 1_555 1_555
H29 C33 1_555 1_555
C34 H30 1_555 1_555
C35 H31 1_555 1_555
C36 C35 1_555 1_555
H32 C36 1_555 1_555
O1 C1 1_555 1_555
O2 C1 1_555 1_555
O3 C4 1_555 1_555
O4 C4 1_555 1_555
O5 Zn2 1_555 1_555
O6 C5 1_555 1_555
O7 C8 1_555 1_555
O8 C8 1_555 1_555
N1 Zn2 1_555 1_555
N2 C10 1_555 1_555
N3 C19 1_555 1_555
N4 C21 1_555 1_555
N5 Zn1 1_555 1_555
N6 C24 1_555 1_555
N7 C33 1_555 1_555
N8 C34 1_555 1_555
Zn1C N8 1_555 1_555
Zn1C_2 O3 1_555 1_555
Zn2C N4 1_555 1_555
O3C Zn1 1_555 1_555
N4C Zn2 1_555 1_555
N8C Zn1 1_555 1_555
C5 O5 1_555 1_555
C9 N1 1_555 1_555
C11 N1 1_555 1_555
C11 N2 1_555 1_555
C12 N2 1_555 1_555
C17 C18 1_555 1_555
C20 N3 1_555 1_555
C21 N3 1_555 1_555
C22 N4 1_555 1_555
C23 N5 1_555 1_555
C25 N5 1_555 1_555
C25 N6 1_555 1_555
C26 N6 1_555 1_555
C31 C32 1_555 1_555
C34 N7 1_555 1_555
C35 N8 1_555 1_555
C36 N7 1_555 1_555

#END
