
#######################################################################
#
#                 Cambridge Crystallographic Data Centre
#                                CCDC 
#
#######################################################################
#
# If this CIF has been generated from an entry in the Cambridge 
# Structural Database, then it will include bibliographic, chemical, 
# crystal, experimental, refinement or atomic coordinate data resulting 
# from the CCDC's data processing and validation procedures.
#
#######################################################################

data_XIMPOA
_symmetry_cell_setting           orthorhombic
_symmetry_space_group_name_H-M   'P 21 21 21'
_symmetry_Int_Tables_number      19
_space_group_name_Hall           'P 2ac 2ab'
loop_
_symmetry_equiv_pos_site_id
_symmetry_equiv_pos_as_xyz
1 x,y,z
2 1/2-x,-y,1/2+z
3 1/2+x,1/2-y,-z
4 -x,1/2+y,1/2-z
_cell_length_a                   14.552(4)
_cell_length_b                   15.639(4)
_cell_length_c                   16.764(4)
_cell_angle_alpha                90
_cell_angle_beta                 90
_cell_angle_gamma                90
_cell_volume                     3815.13
loop_
_atom_site_label
_atom_site_type_symbol
_atom_site_fract_x
_atom_site_fract_y
_atom_site_fract_z
Zn1 Zn 1.34392(3) 1.52367(3) 1.78964(3)
Zn2 Zn 1.08677(3) 1.02597(3) 1.73762(2)
C1 C 1.2994(3) 1.3914(3) 1.6900(3)
C2 C 1.2556(3) 1.3091(3) 1.6668(3)
H1 H 1.2652 1.2877 1.6157
C3 C 1.2032(3) 1.2655(3) 1.7171(3)
H2 H 1.1919 1.2899 1.7668
C4 C 1.1611(3) 1.1809(3) 1.7005(2)
C5 C 1.3858(3) 1.5729(3) 1.9476(3)
C6 C 1.4339(3) 1.5527(3) 2.0250(3)
H3 H 1.4510 1.4963 2.0341
C7 C 1.4532(3) 1.6089(3) 2.0802(3)
H4 H 1.4362 1.6656 2.0724
C8 C 1.5014(3) 1.5848(3) 2.1547(3)
C9 C 1.2051(4) 1.6665(3) 1.8050(3)
H5 H 1.2268 1.6839 1.8546
C10 C 1.1343(4) 1.7026(3) 1.7651(3)
H6 H 1.0981 1.7480 1.7822
C11 C 1.1904(3) 1.5980(3) 1.6956(2)
H7 H 1.1987 1.5585 1.6547
C12 C 1.0594(3) 1.6768(3) 1.6319(3)
H8 H 1.0046 1.7006 1.6562
H9 H 1.0423 1.6233 1.6067
C13 C 1.0934(3) 1.7380(3) 1.5682(2)
C14 C 1.1047(3) 1.7109(3) 1.4904(3)
H10 H 1.0974 1.6534 1.4778
C15 C 1.1269(3) 1.7692(3) 1.4308(3)
H11 H 1.1349 1.7502 1.3787
C16 C 1.1372(3) 1.8545(3) 1.4480(3)
C17 C 1.1287(3) 1.8822(3) 1.5260(3)
H12 H 1.1373 1.9397 1.5382
C18 C 1.1072(3) 1.8237(3) 1.5869(3)
H13 H 1.1022 1.8423 1.6394
C19 C 1.1596(3) 1.9197(3) 1.3840(3)
H14 H 1.1606 1.9763 1.4078
H15 H 1.2204 1.9081 1.3630
C20 C 1.0211(3) 1.8787(3) 1.2106(3)
H16 H 1.0062 1.8519 1.1628
C21 C 1.0988(3) 1.8664(3) 1.2527(3)
H17 H 1.1467 1.8296 1.2397
C22 C 1.0127(3) 1.9598(3) 1.3148(2)
H18 H 0.9917 1.9986 1.3526
C23 C 0.9810(3) 1.0604(3) 1.5832(3)
H19 H 1.0148 1.1089 1.5701
C24 C 0.9128(3) 1.0272(3) 1.5395(3)
H20 H 0.8911 1.0475 1.4909
C25 C 0.9317(3) 0.9504(3) 1.6468(3)
H21 H 0.9241 0.9079 1.6851
C26 C 0.8091(3) 0.8973(3) 1.5551(3)
H22 H 0.7639 0.9285 1.5241
H23 H 0.7784 0.8750 1.6021
C27 C 0.8436(3) 0.8237(3) 1.5063(3)
C28 C 0.8653(3) 0.8358(3) 1.4260(3)
H24 H 0.8625 0.8904 1.4041
C29 C 0.8908(3) 0.7672(3) 1.3784(3)
H25 H 0.9052 0.7758 1.3250
C30 C 0.8949(3) 0.6849(3) 1.4113(3)
C31 C 0.8754(3) 0.6735(3) 1.4906(3)
H26 H 0.8784 0.6190 1.5126
C32 C 0.8509(3) 0.7428(3) 1.5387(3)
H27 H 0.8396 0.7344 1.5928
C33 C 0.9190(3) 0.6096(3) 1.3582(3)
H28 H 0.9720 0.6238 1.3258
H29 H 0.9347 0.5607 1.3910
C34 C 0.7380(3) 0.5934(3) 1.2120(3)
H30 H 0.7071 0.6078 1.1654
C35 C 0.8210(3) 0.6245(3) 1.2349(3)
H31 H 0.8572 0.6635 1.2072
C36 C 0.7710(3) 0.5355(3) 1.3244(2)
H32 H 0.7682 0.5026 1.3705
O1 O 1.3036(2) 1.40833(18) 1.76337(18)
O2 O 1.3250(3) 1.4416(2) 1.6377(2)
O3 O 1.1222(2) 1.14541(17) 1.76050(18)
O4 O 1.1679(2) 1.14582(19) 1.63377(18)
O5 O 1.3729(2) 1.5076(2) 1.90278(18)
O6 O 1.3653(3) 1.6472(2) 1.9294(2)
O7 O 1.5347(2) 1.50810(19) 2.15828(17)
O8 O 1.5063(2) 1.63791(19) 2.20870(19)
N1 N 1.2400(2) 1.5999(2) 1.7605(2)
N2 N 1.1267(2) 1.6590(2) 1.6948(2)
N3 N 0.9669(2) 1.9377(2) 1.2503(2)
N4 N 1.0937(2) 1.9190(2) 1.3188(2)
N5 N 0.9934(2) 1.0115(2) 1.6509(2)
N6 N 0.8812(2) 0.9571(2) 1.5807(2)
N7 N 0.7069(2) 0.5368(2) 1.26937(19)
N8 N 0.8411(2) 0.5876(2) 1.3061(2)
Zn1B Zn 0.84392(3) 1.97633(3) 1.21036(3)
Zn2B Zn 0.58677(3) 0.47403(3) 1.26238(2)
Zn2B_2 Zn 1.58677(3) 1.47403(3) 2.26238(2)
O7B O 1.0347(2) 0.99190(19) 1.84172(17)
N3B N 1.4669(2) 1.5623(2) 1.7497(2)
N7B N 1.2069(2) 0.9632(2) 1.73063(19)
O9 O 1.1714(5) 0.9630(5) 1.9877(4)
O10 O 1.3206(7) 1.8109(4) 1.9749(3)
O11 O 1.4916(17) 1.3174(13) 1.5922(10)
O12 O 1.1132(16) 1.7724(18) 1.9890(18)
loop_
_geom_bond_atom_site_label_1
_geom_bond_atom_site_label_2
_geom_bond_site_symmetry_1
_geom_bond_site_symmetry_2
Zn1 O1 1_555 1_555
Zn2 O3 1_555 1_555
C1 C2 1_555 1_555
C2 H1 1_555 1_555
C3 C2 1_555 1_555
H2 C3 1_555 1_555
C4 C3 1_555 1_555
C5 C6 1_555 1_555
C6 H3 1_555 1_555
C7 C6 1_555 1_555
H4 C7 1_555 1_555
C8 C7 1_555 1_555
C9 H5 1_555 1_555
C10 C9 1_555 1_555
H6 C10 1_555 1_555
C11 H7 1_555 1_555
C12 H8 1_555 1_555
H9 C12 1_555 1_555
C13 C12 1_555 1_555
C14 C13 1_555 1_555
H10 C14 1_555 1_555
C15 C14 1_555 1_555
H11 C15 1_555 1_555
C16 C15 1_555 1_555
C17 C16 1_555 1_555
H12 C17 1_555 1_555
C18 C13 1_555 1_555
H13 C18 1_555 1_555
C19 C16 1_555 1_555
H14 C19 1_555 1_555
H15 C19 1_555 1_555
C20 H16 1_555 1_555
C21 C20 1_555 1_555
H17 C21 1_555 1_555
C22 H18 1_555 1_555
C23 H19 1_555 1_555
C24 C23 1_555 1_555
H20 C24 1_555 1_555
C25 H21 1_555 1_555
C26 H22 1_555 1_555
H23 C26 1_555 1_555
C27 C26 1_555 1_555
C28 C27 1_555 1_555
H24 C28 1_555 1_555
C29 C28 1_555 1_555
H25 C29 1_555 1_555
C30 C29 1_555 1_555
C31 C30 1_555 1_555
H26 C31 1_555 1_555
C32 C27 1_555 1_555
H27 C32 1_555 1_555
C33 C30 1_555 1_555
H28 C33 1_555 1_555
H29 C33 1_555 1_555
C34 H30 1_555 1_555
C35 C34 1_555 1_555
H31 C35 1_555 1_555
C36 H32 1_555 1_555
O1 C1 1_555 1_555
O2 C1 1_555 1_555
O3 C4 1_555 1_555
O4 C4 1_555 1_555
O5 Zn1 1_555 1_555
O6 C5 1_555 1_555
O7 C8 1_555 1_555
O8 C8 1_555 1_555
N1 Zn1 1_555 1_555
N2 C10 1_555 1_555
N3 C20 1_555 1_555
N4 C19 1_555 1_555
N5 Zn2 1_555 1_555
N6 C24 1_555 1_555
N7 C34 1_555 1_555
N8 C33 1_555 1_555
Zn1B N3 1_555 1_555
Zn2B N7 1_555 1_555
Zn2B_2 O7 1_555 1_555
O7B Zn2 1_555 1_555
N3B Zn1 1_555 1_555
N7B Zn2 1_555 1_555
C5 O5 1_555 1_555
C9 N1 1_555 1_555
C11 N1 1_555 1_555
C11 N2 1_555 1_555
C12 N2 1_555 1_555
C17 C18 1_555 1_555
C21 N4 1_555 1_555
C22 N3 1_555 1_555
C22 N4 1_555 1_555
C23 N5 1_555 1_555
C25 N5 1_555 1_555
C25 N6 1_555 1_555
C26 N6 1_555 1_555
C31 C32 1_555 1_555
C35 N8 1_555 1_555
C36 N7 1_555 1_555
C36 N8 1_555 1_555

#END
