
#######################################################################
#
#                 Cambridge Crystallographic Data Centre
#                                CCDC 
#
#######################################################################
#
# If this CIF has been generated from an entry in the Cambridge 
# Structural Database, then it will include bibliographic, chemical, 
# crystal, experimental, refinement or atomic coordinate data resulting 
# from the CCDC's data processing and validation procedures.
#
#######################################################################

data_XIVTED
_symmetry_cell_setting           cubic
_symmetry_space_group_name_H-M   'F m -3'
_symmetry_Int_Tables_number      202
_space_group_name_Hall           '-F 2 2 3'
loop_
_symmetry_equiv_pos_site_id
_symmetry_equiv_pos_as_xyz
1 x,y,z
2 -x,-y,z
3 -x,y,-z
4 x,-y,-z
5 z,x,y
6 z,-x,-y
7 -z,-x,y
8 -z,x,-y
9 y,z,x
10 -y,z,-x
11 y,-z,-x
12 -y,-z,x
13 x,1/2+y,1/2+z
14 -x,1/2-y,1/2+z
15 -x,1/2+y,1/2-z
16 x,1/2-y,1/2-z
17 z,1/2+x,1/2+y
18 z,1/2-x,1/2-y
19 -z,1/2-x,1/2+y
20 -z,1/2+x,1/2-y
21 y,1/2+z,1/2+x
22 -y,1/2+z,1/2-x
23 y,1/2-z,1/2-x
24 -y,1/2-z,1/2+x
25 1/2+x,y,1/2+z
26 1/2-x,-y,1/2+z
27 1/2-x,y,1/2-z
28 1/2+x,-y,1/2-z
29 1/2+z,x,1/2+y
30 1/2+z,-x,1/2-y
31 1/2-z,-x,1/2+y
32 1/2-z,x,1/2-y
33 1/2+y,z,1/2+x
34 1/2-y,z,1/2-x
35 1/2+y,-z,1/2-x
36 1/2-y,-z,1/2+x
37 1/2+x,1/2+y,z
38 1/2-x,1/2-y,z
39 1/2-x,1/2+y,-z
40 1/2+x,1/2-y,-z
41 1/2+z,1/2+x,y
42 1/2+z,1/2-x,-y
43 1/2-z,1/2-x,y
44 1/2-z,1/2+x,-y
45 1/2+y,1/2+z,x
46 1/2-y,1/2+z,-x
47 1/2+y,1/2-z,-x
48 1/2-y,1/2-z,x
49 -x,-y,-z
50 x,y,-z
51 x,-y,z
52 -x,y,z
53 -z,-x,-y
54 -z,x,y
55 z,x,-y
56 z,-x,y
57 -y,-z,-x
58 y,-z,x
59 -y,z,x
60 y,z,-x
61 -x,1/2-y,1/2-z
62 x,1/2+y,1/2-z
63 x,1/2-y,1/2+z
64 -x,1/2+y,1/2+z
65 -z,1/2-x,1/2-y
66 -z,1/2+x,1/2+y
67 z,1/2+x,1/2-y
68 z,1/2-x,1/2+y
69 -y,1/2-z,1/2-x
70 y,1/2-z,1/2+x
71 -y,1/2+z,1/2+x
72 y,1/2+z,1/2-x
73 1/2-x,-y,1/2-z
74 1/2+x,y,1/2-z
75 1/2+x,-y,1/2+z
76 1/2-x,y,1/2+z
77 1/2-z,-x,1/2-y
78 1/2-z,x,1/2+y
79 1/2+z,x,1/2-y
80 1/2+z,-x,1/2+y
81 1/2-y,-z,1/2-x
82 1/2+y,-z,1/2+x
83 1/2-y,z,1/2+x
84 1/2+y,z,1/2-x
85 1/2-x,1/2-y,-z
86 1/2+x,1/2+y,-z
87 1/2+x,1/2-y,z
88 1/2-x,1/2+y,z
89 1/2-z,1/2-x,-y
90 1/2-z,1/2+x,y
91 1/2+z,1/2+x,-y
92 1/2+z,1/2-x,y
93 1/2-y,1/2-z,-x
94 1/2+y,1/2-z,x
95 1/2-y,1/2+z,x
96 1/2+y,1/2+z,-x
_cell_length_a                   26.5460(19)
_cell_length_b                   26.5460(19)
_cell_length_c                   26.5460(19)
_cell_angle_alpha                90
_cell_angle_beta                 90
_cell_angle_gamma                90
_cell_volume                     18706.7
loop_
_atom_site_label
_atom_site_type_symbol
_atom_site_fract_x
_atom_site_fract_y
_atom_site_fract_z
O1 O 0.1372(2) 0.9299(2) 0.5000
O2 O 0.0708(2) 0.8633(2) 0.5000
C1 C 0.1191(4) 0.8830(5) 0.5000
C2 C 0.1577(5) 0.8412(5) 0.5000
N1 N 0.2456(5) 0.8197(5) 0.5000
C3 C 0.2093(5) 0.8571(5) 0.5000
H1 H 0.2180 0.8910 0.5000
C4 C 0.1439(5) 0.7916(5) 0.5000
H2 H 0.1100 0.7827 0.5000
C5 C 0.1805(4) 0.7548(5) 0.5000
H3 H 0.1715 0.7210 0.5000
C6 C 0.2295(4) 0.7684(5) 0.5000
Zr1 Zr 0.09341(3) 1.0000 0.5000
O3 O 0.04630(18) 1.04630(18) 0.45370(18)
O1KA O 0.3628(2) 0.5701(2) 0.5000
O2KA O 0.4292(2) 0.6367(2) 0.5000
C1KA C 0.3809(4) 0.6170(5) 0.5000
C2KA C 0.3423(5) 0.6588(5) 0.5000
N1KA N 0.2544(5) 0.6803(5) 0.5000
C3KA C 0.2907(5) 0.6429(5) 0.5000
H1KA H 0.2820 0.6090 0.5000
C4KA C 0.3561(5) 0.7084(5) 0.5000
H2KA H 0.3900 0.7173 0.5000
C5KA C 0.3195(4) 0.7452(5) 0.5000
H3KA H 0.3285 0.7790 0.5000
C6KA C 0.2705(4) 0.7316(5) 0.5000
O3C O 0.04630(18) 0.95370(18) 0.54630(18)
O1P O 0.5000 0.6372(2) 0.4299(2)
O2P O 0.5000 0.5708(2) 0.3633(2)
C1P C 0.5000 0.6191(4) 0.3830(5)
C2P C 0.5000 0.6577(5) 0.3412(5)
N1P N 0.5000 0.7456(5) 0.3197(5)
C3P C 0.5000 0.7093(5) 0.3571(5)
H1P H 0.5000 0.7180 0.3910
C4P C 0.5000 0.6439(5) 0.2916(5)
H2P H 0.5000 0.6100 0.2827
C5P C 0.5000 0.6805(4) 0.2548(5)
H3P H 0.5000 0.6715 0.2210
C6P C 0.5000 0.7295(4) 0.2684(5)
Zr1P Zr 0.5000 0.59341(3) 0.5000
O1E O 0.5000 0.8628(2) 0.0701(2)
O2E O 0.5000 0.9292(2) 0.1367(2)
C1E C 0.5000 0.8809(4) 0.1170(5)
C2E C 0.5000 0.8423(5) 0.1588(5)
N1E N 0.5000 0.7544(5) 0.1803(5)
C3E C 0.5000 0.7907(5) 0.1429(5)
H1E H 0.5000 0.7820 0.1090
C4E C 0.5000 0.8561(5) 0.2084(5)
H2E H 0.5000 0.8900 0.2173
C5E C 0.5000 0.8195(4) 0.2452(5)
H3E H 0.5000 0.8285 0.2790
C6E C 0.5000 0.7705(4) 0.2316(5)
O1S O 0.5000 0.6372(2) 0.5701(2)
O2S O 0.5000 0.5708(2) 0.6367(2)
C1S C 0.5000 0.6191(4) 0.6170(5)
C2S C 0.5000 0.6577(5) 0.6588(5)
N1S N 0.5000 0.7456(5) 0.6803(5)
C3S C 0.5000 0.7093(5) 0.6429(5)
H1S H 0.5000 0.7180 0.6090
C4S C 0.5000 0.6439(5) 0.7084(5)
H2S H 0.5000 0.6100 0.7173
C5S C 0.5000 0.6805(4) 0.7452(5)
H3S H 0.5000 0.6715 0.7790
C6S C 0.5000 0.7295(4) 0.7316(5)
O1F O 0.5000 0.8628(2) 0.9299(2)
O2F O 0.5000 0.9292(2) 0.8633(2)
C1F C 0.5000 0.8809(4) 0.8830(5)
C2F C 0.5000 0.8423(5) 0.8412(5)
N1F N 0.5000 0.7544(5) 0.8197(5)
C3F C 0.5000 0.7907(5) 0.8571(5)
H1F H 0.5000 0.7820 0.8910
C4F C 0.5000 0.8561(5) 0.7916(5)
H2F H 0.5000 0.8900 0.7827
C5F C 0.5000 0.8195(4) 0.7548(5)
H3F H 0.5000 0.8285 0.7210
C6F C 0.5000 0.7705(4) 0.7684(5)
Zr1RA Zr 0.5000 1.0000 0.09341(3)
O3WA O 0.04630(18) 1.04630(18) 0.54630(18)
O3XA O 0.04630(18) 0.95370(18) 0.45370(18)
O1C O 0.1372(2) 1.0701(2) 0.5000
O1RA O 0.4299(2) 1.0000 0.1372(2)
O1UA O 0.5701(2) 1.0000 0.1372(2)
O2G O 0.5000 1.0708(2) 0.1367(2)
O2U O 0.1367(2) 1.0000 0.4292(2)
O2W O 0.1367(2) 1.0000 0.5708(2)
O2MA O 0.5708(2) 0.6367(2) 0.5000
Zr1E Zr 0.5000 0.90659(3) 0.0000
Zr1E_2 Zr 0.5000 0.90659(3) 1.0000
Zr1T Zr 0.0000 1.0000 0.59341(3)
Zr1U Zr 0.0000 1.0000 0.40659(3)
Zr1BA Zr 0.0000 1.09341(3) 0.5000
Zr1CA Zr 0.0000 0.90659(3) 0.5000
Zr1FA Zr 0.5000 0.5000 0.59341(3)
Zr1GA Zr 0.5000 0.5000 0.40659(3)
Zr1KA Zr 0.40659(3) 0.5000 0.5000
Zr1SA Zr 0.5000 1.0000 0.90659(3)
O3D O 0.45370(18) 1.04630(18) 0.04630(18)
O3F O 0.54630(18) 0.95370(18) 0.04630(18)
O3P O 0.45370(18) 0.54630(18) 0.54630(18)
O3S O 0.54630(18) 0.54630(18) 0.45370(18)
O3AB O 0.54630(18) 1.04630(18) 0.04630(18)
O3CB O 0.45370(18) 0.95370(18) 0.04630(18)
O3MB O 0.54630(18) 0.54630(18) 0.54630(18)
O3NB O 0.45370(18) 0.54630(18) 0.45370(18)
loop_
_geom_bond_atom_site_label_1
_geom_bond_atom_site_label_2
_geom_bond_site_symmetry_1
_geom_bond_site_symmetry_2
O1 C1 1_555 1_555
O2 C1 1_555 1_555
C1 C2 1_555 1_555
C2 C3 1_555 1_555
N1 C3 1_555 1_555
C3 H1 1_555 1_555
C4 C2 1_555 1_555
H2 C4 1_555 1_555
C5 C4 1_555 1_555
H3 C5 1_555 1_555
C6 N1 1_555 1_555
Zr1 O1 1_555 1_555
O3 Zr1 1_555 1_555
O1KA C1KA 1_555 1_555
O2KA C1KA 1_555 1_555
C1KA C2KA 1_555 1_555
C2KA C3KA 1_555 1_555
N1KA C3KA 1_555 1_555
C3KA H1KA 1_555 1_555
C4KA C2KA 1_555 1_555
H2KA C4KA 1_555 1_555
C5KA C4KA 1_555 1_555
H3KA C5KA 1_555 1_555
C6KA C6 1_555 1_555
O3C Zr1 1_555 1_555
O1P C1P 1_555 1_555
O2P C1P 1_555 1_555
C1P C2P 1_555 1_555
C2P C3P 1_555 1_555
N1P C3P 1_555 1_555
C3P H1P 1_555 1_555
C4P C2P 1_555 1_555
H2P C4P 1_555 1_555
C5P C4P 1_555 1_555
H3P C5P 1_555 1_555
C6P N1P 1_555 1_555
Zr1P O2KA 1_555 1_555
O1E C1E 1_555 1_555
O2E C1E 1_555 1_555
C1E C2E 1_555 1_555
C2E C3E 1_555 1_555
N1E C3E 1_555 1_555
C3E H1E 1_555 1_555
C4E C2E 1_555 1_555
H2E C4E 1_555 1_555
C5E C4E 1_555 1_555
H3E C5E 1_555 1_555
C6E C6P 1_555 1_555
O1S Zr1P 1_555 1_555
O2S C1S 1_555 1_555
C1S O1S 1_555 1_555
C2S C1S 1_555 1_555
N1S C3S 1_555 1_555
C3S C2S 1_555 1_555
H1S C3S 1_555 1_555
C4S C2S 1_555 1_555
H2S C4S 1_555 1_555
C5S C4S 1_555 1_555
H3S C5S 1_555 1_555
C6S N1S 1_555 1_555
O1F C1F 1_555 1_555
O2F C1F 1_555 1_555
C1F C2F 1_555 1_555
C2F C3F 1_555 1_555
N1F C3F 1_555 1_555
C3F H1F 1_555 1_555
C4F C2F 1_555 1_555
H2F C4F 1_555 1_555
C5F C4F 1_555 1_555
H3F C5F 1_555 1_555
C6F C6S 1_555 1_555
Zr1RA O2E 1_555 1_555
O3WA Zr1 1_555 1_555
O3XA Zr1 1_555 1_555
O1C Zr1 1_555 1_555
O1RA Zr1RA 1_555 1_555
O1UA Zr1RA 1_555 1_555
O2G Zr1RA 1_555 1_555
O2U Zr1 1_555 1_555
O2W Zr1 1_555 1_555
O2MA Zr1P 1_555 1_555
Zr1E O1E 1_555 1_555
Zr1E_2 O1F 1_555 1_555
Zr1T O3C 1_555 1_555
Zr1U O3 1_555 1_555
Zr1BA O3 1_555 1_555
Zr1CA O2 1_555 1_555
Zr1FA O2S 1_555 1_555
Zr1GA O2P 1_555 1_555
Zr1KA O1KA 1_555 1_555
Zr1SA O2F 1_555 1_555
O3D Zr1RA 1_555 1_555
O3F Zr1RA 1_555 1_555
O3P Zr1P 1_555 1_555
O3S Zr1P 1_555 1_555
O3AB Zr1RA 1_555 1_555
O3CB Zr1RA 1_555 1_555
O3MB Zr1P 1_555 1_555
O3NB Zr1P 1_555 1_555
C5 C6 1_555 1_555
N1KA C6KA 1_555 1_555
C5KA C6KA 1_555 1_555
O3C Zr1CA 1_555 1_555
O1P Zr1P 1_555 1_555
C5P C6P 1_555 1_555
N1E C6E 1_555 1_555
C5E C6E 1_555 1_555
C5S C6S 1_555 1_555
N1F C6F 1_555 1_555
C5F C6F 1_555 1_555
O3WA Zr1T 1_555 1_555
O3WA Zr1BA 1_555 1_555
O3XA Zr1U 1_555 1_555
O3XA Zr1CA 1_555 1_555
Zr1E O3F 1_555 1_555
Zr1E O3CB 1_555 1_555
Zr1FA O3P 1_555 1_555
Zr1FA O3MB 1_555 1_555
Zr1GA O3S 1_555 1_555
Zr1GA O3NB 1_555 1_555
Zr1KA O3P 1_555 1_555
Zr1KA O3NB 1_555 1_555

#END
