
#######################################################################
#
#                 Cambridge Crystallographic Data Centre
#                                CCDC 
#
#######################################################################
#
# If this CIF has been generated from an entry in the Cambridge 
# Structural Database, then it will include bibliographic, chemical, 
# crystal, experimental, refinement or atomic coordinate data resulting 
# from the CCDC's data processing and validation procedures.
#
#######################################################################

data_XOFYUO
_symmetry_cell_setting           monoclinic
_symmetry_space_group_name_H-M   'C 2/c'
_symmetry_Int_Tables_number      15
_space_group_name_Hall           '-C 2yn'
loop_
_symmetry_equiv_pos_site_id
_symmetry_equiv_pos_as_xyz
1 x,y,z
2 -x,y,1/2-z
3 1/2+x,1/2+y,z
4 1/2-x,1/2+y,1/2-z
5 -x,-y,-z
6 x,-y,1/2+z
7 1/2-x,1/2-y,-z
8 1/2+x,1/2-y,1/2+z
_cell_length_a                   26.8080(14)
_cell_length_b                   8.1923(5)
_cell_length_c                   23.3025(16)
_cell_angle_alpha                90
_cell_angle_beta                 98.956(7)
_cell_angle_gamma                90
_cell_volume                     5055.28
loop_
_atom_site_label
_atom_site_type_symbol
_atom_site_fract_x
_atom_site_fract_y
_atom_site_fract_z
Zn1 Zn 0.45956(3) 0.87837(11) -0.00160(5)
O1 O 0.5763(2) 0.9504(7) -0.0412(3)
O2 O 0.5144(2) 0.7677(7) -0.0405(3)
O3 O 0.6495(3) 0.3880(9) -0.1937(3)
O4 O 0.5616(2) 0.0057(7) -0.4233(3)
O5 O 0.4988(2) 0.1902(7) -0.4240(2)
N1 N 0.4053(2) 0.7038(8) -0.0177(3)
N2 N 0.2654(3) 0.3177(8) 0.0001(4)
C1 C 0.5554(4) 0.8117(10) -0.0527(4)
C2 C 0.5830(3) 0.7021(10) -0.0877(4)
C3 C 0.6253(3) 0.7461(11) -0.1117(4)
H1 H 0.6398 0.8510 -0.1036
C4 C 0.6469(4) 0.6395(12) -0.1472(5)
H2 H 0.6764 0.6705 -0.1625
C5 C 0.6260(4) 0.4937(13) -0.1597(4)
C6 C 0.5856(4) 0.4369(12) -0.1344(5)
H3 H 0.5738 0.3281 -0.1405
C7 C 0.5638(3) 0.5405(11) -0.1009(4)
H4 H 0.5347 0.5056 -0.0856
C8 C 0.6200(3) 0.3262(13) -0.2438(4)
C9 C 0.6380(3) 0.1840(14) -0.2665(4)
H5 H 0.6675 0.1319 -0.2471
C10 C 0.6126(4) 0.1210(13) -0.3166(5)
H6 H 0.6253 0.0254 -0.3324
C11 C 0.5678(3) 0.1941(11) -0.3461(4)
C12 C 0.5521(3) 0.3336(11) -0.3218(4)
H7 H 0.5227 0.3868 -0.3412
C13 C 0.5761(4) 0.4005(11) -0.2714(4)
H8 H 0.5631 0.4955 -0.2555
C14 C 0.5395(4) 0.1235(11) -0.4017(5)
C15 C 0.3630(3) 0.7105(10) 0.0086(4)
H9 H 0.3579 0.8047 0.0308
C16 C 0.3281(3) 0.5899(11) 0.0046(4)
H10 H 0.2993 0.6003 0.0235
C17 C 0.3351(3) 0.4477(10) -0.0281(4)
C18 C 0.3784(3) 0.4466(12) -0.0549(4)
H11 H 0.3850 0.3551 -0.0776
C19 C 0.4108(3) 0.5733(11) -0.0490(4)
H12 H 0.4393 0.5682 -0.0687
C20 C 0.3017(3) 0.3064(11) -0.0307(4)
C21 C 0.3082(4) 0.1613(11) -0.0664(6)
H13 H 0.3077 0.1944 -0.1069
H14 H 0.2807 0.0839 -0.0641
H15 H 0.3406 0.1091 -0.0518
N1F N 0.0947(2) -0.2038(8) 0.0177(3)
N2F N 0.2346(3) 0.1823(8) -0.0001(4)
C15F C 0.1370(3) -0.2105(10) -0.0086(4)
H9F H 0.1421 -0.3047 -0.0308
C16F C 0.1719(3) -0.0899(11) -0.0046(4)
H10F H 0.2007 -0.1003 -0.0235
C17F C 0.1649(3) 0.0523(10) 0.0281(4)
C18F C 0.1216(3) 0.0534(12) 0.0549(4)
H11F H 0.1150 0.1449 0.0776
C19F C 0.0892(3) -0.0733(11) 0.0490(4)
H12F H 0.0607 -0.0682 0.0687
C20F C 0.1983(3) 0.1936(11) 0.0307(4)
C21F C 0.1918(4) 0.3387(11) 0.0664(6)
H13F H 0.1923 0.3056 0.1069
H14F H 0.2193 0.4161 0.0641
H15F H 0.1594 0.3909 0.0518
Zn1D Zn 0.54044(3) 1.12163(11) 0.00160(5)
O1D O 0.4237(2) 1.0496(7) 0.0412(3)
O2D O 0.4856(2) 1.2323(7) 0.0405(3)
O3D O 0.3505(3) 1.6120(9) 0.1937(3)
O4D O 0.4384(2) 1.9943(7) 0.4233(3)
O5D O 0.5012(2) 1.8098(7) 0.4240(2)
C1D C 0.4446(4) 1.1883(10) 0.0527(4)
C2D C 0.4170(3) 1.2979(10) 0.0877(4)
C3D C 0.3747(3) 1.2539(11) 0.1117(4)
H1D H 0.3602 1.1490 0.1036
C4D C 0.3531(4) 1.3605(12) 0.1472(5)
H2D H 0.3236 1.3295 0.1625
C5D C 0.3740(4) 1.5063(13) 0.1597(4)
C6D C 0.4144(4) 1.5631(12) 0.1344(5)
H3D H 0.4262 1.6719 0.1405
C7D C 0.4362(3) 1.4595(11) 0.1009(4)
H4D H 0.4653 1.4944 0.0856
C8D C 0.3800(3) 1.6738(13) 0.2438(4)
C9D C 0.3620(3) 1.8160(14) 0.2665(4)
H5D H 0.3325 1.8681 0.2471
C10D C 0.3874(4) 1.8790(13) 0.3166(5)
H6D H 0.3747 1.9746 0.3324
C11D C 0.4322(3) 1.8059(11) 0.3461(4)
C12D C 0.4479(3) 1.6664(11) 0.3218(4)
H7D H 0.4773 1.6132 0.3412
C13D C 0.4239(4) 1.5995(11) 0.2714(4)
H8D H 0.4369 1.5045 0.2555
C14D C 0.4605(4) 1.8765(11) 0.4017(5)
Zn1A Zn 0.54044(3) -0.12163(11) -0.49840(5)
Zn1A_2 Zn 0.54044(3) 1.87837(11) 0.50160(5)
Zn1E Zn 0.45956(3) 0.12163(11) -0.50160(5)
Zn1E_2 Zn 0.45956(3) 2.12163(11) 0.49840(5)
Zn1F Zn 0.04044(3) -0.37837(11) 0.00160(5)
O4A O 0.4384(2) 1.0057(7) -0.0767(3)
O4E O 0.5616(2) 0.9943(7) 0.0767(3)
O5A O 0.5012(2) 1.1902(7) -0.0760(2)
O5E O 0.4988(2) 0.8098(7) 0.0760(2)
N1D N 0.5947(2) 1.2962(8) 0.0177(3)
loop_
_geom_bond_atom_site_label_1
_geom_bond_atom_site_label_2
_geom_bond_site_symmetry_1
_geom_bond_site_symmetry_2
Zn1 O2 1_555 1_555
O1 C1 1_555 1_555
O2 C1 1_555 1_555
O3 C5 1_555 1_555
O4 C14 1_555 1_555
O5 C14 1_555 1_555
N1 Zn1 1_555 1_555
N2 C20 1_555 1_555
C1 C2 1_555 1_555
C2 C3 1_555 1_555
C3 H1 1_555 1_555
C4 C3 1_555 1_555
H2 C4 1_555 1_555
C5 C4 1_555 1_555
C6 C5 1_555 1_555
H3 C6 1_555 1_555
C7 C2 1_555 1_555
H4 C7 1_555 1_555
C8 O3 1_555 1_555
C9 C8 1_555 1_555
H5 C9 1_555 1_555
C10 C9 1_555 1_555
H6 C10 1_555 1_555
C11 C10 1_555 1_555
C12 C11 1_555 1_555
H7 C12 1_555 1_555
C13 C8 1_555 1_555
H8 C13 1_555 1_555
C14 C11 1_555 1_555
C15 N1 1_555 1_555
H9 C15 1_555 1_555
C16 C15 1_555 1_555
H10 C16 1_555 1_555
C17 C16 1_555 1_555
C18 C17 1_555 1_555
H11 C18 1_555 1_555
C19 N1 1_555 1_555
H12 C19 1_555 1_555
C20 C17 1_555 1_555
C21 C20 1_555 1_555
H13 C21 1_555 1_555
H14 C21 1_555 1_555
H15 C21 1_555 1_555
N1F C15F 1_555 1_555
N2F N2 1_555 1_555
C15F H9F 1_555 1_555
C16F C15F 1_555 1_555
H10F C16F 1_555 1_555
C17F C16F 1_555 1_555
C18F C17F 1_555 1_555
H11F C18F 1_555 1_555
C19F N1F 1_555 1_555
H12F C19F 1_555 1_555
C20F N2F 1_555 1_555
C21F C20F 1_555 1_555
H13F C21F 1_555 1_555
H14F C21F 1_555 1_555
H15F C21F 1_555 1_555
Zn1D O1 1_555 1_555
O1D Zn1 1_555 1_555
O2D Zn1D 1_555 1_555
O3D C5D 1_555 1_555
O4D C14D 1_555 1_555
O5D C14D 1_555 1_555
C1D O1D 1_555 1_555
C2D C1D 1_555 1_555
C3D C2D 1_555 1_555
H1D C3D 1_555 1_555
C4D C3D 1_555 1_555
H2D C4D 1_555 1_555
C5D C4D 1_555 1_555
C6D C5D 1_555 1_555
H3D C6D 1_555 1_555
C7D C2D 1_555 1_555
H4D C7D 1_555 1_555
C8D O3D 1_555 1_555
C9D C8D 1_555 1_555
H5D C9D 1_555 1_555
C10D C9D 1_555 1_555
H6D C10D 1_555 1_555
C11D C10D 1_555 1_555
C12D C11D 1_555 1_555
H7D C12D 1_555 1_555
C13D C8D 1_555 1_555
H8D C13D 1_555 1_555
C14D C11D 1_555 1_555
Zn1A O4 1_555 1_555
Zn1A_2 O5D 1_555 1_555
Zn1E O5 1_555 1_555
Zn1E_2 O4D 1_555 1_555
Zn1F N1F 1_555 1_555
O4A Zn1 1_555 1_555
O4E Zn1D 1_555 1_555
O5A Zn1D 1_555 1_555
O5E Zn1 1_555 1_555
N1D Zn1D 1_555 1_555
C6 C7 1_555 1_555
C12 C13 1_555 1_555
C18 C19 1_555 1_555
C17F C20F 1_555 1_555
C18F C19F 1_555 1_555
O2D C1D 1_555 1_555
C6D C7D 1_555 1_555
C12D C13D 1_555 1_555

#END
