
#######################################################################
#
#                 Cambridge Crystallographic Data Centre
#                                CCDC 
#
#######################################################################
#
# If this CIF has been generated from an entry in the Cambridge 
# Structural Database, then it will include bibliographic, chemical, 
# crystal, experimental, refinement or atomic coordinate data resulting 
# from the CCDC's data processing and validation procedures.
#
#######################################################################

data_XOFYOI
_symmetry_cell_setting           monoclinic
_symmetry_space_group_name_H-M   'P 21/c'
_symmetry_Int_Tables_number      14
_space_group_name_Hall           '-P 2ybc'
loop_
_symmetry_equiv_pos_site_id
_symmetry_equiv_pos_as_xyz
1 x,y,z
2 -x,1/2+y,1/2-z
3 -x,-y,-z
4 x,1/2-y,1/2+z
_cell_length_a                   12.546(4)
_cell_length_b                   26.633(7)
_cell_length_c                   15.734(6)
_cell_angle_alpha                90
_cell_angle_beta                 97.869(4)
_cell_angle_gamma                90
_cell_volume                     5207.82
loop_
_atom_site_label
_atom_site_type_symbol
_atom_site_fract_x
_atom_site_fract_y
_atom_site_fract_z
Zn1 Zn 0.69156(4) 0.251977(17) 0.18256(3)
Zn2 Zn 0.85217(4) 0.243937(19) 0.37769(3)
O1 O 0.7409(2) 0.32059(11) 0.1699(2)
O2 O 0.5805(3) 0.32718(13) 0.2101(2)
O3 O 0.6691(3) 0.55270(14) 0.1053(4)
O4 O 0.3689(2) 0.71831(13) 0.2256(2)
O5 O 0.2669(2) 0.69755(11) 0.1053(2)
O6 O 1.2032(2) -0.18825(11) 0.1187(2)
O7 O 1.0419(3) -0.18011(12) 0.1569(2)
O8 O 1.1737(4) 0.04809(14) 0.1116(4)
O9 O 0.9143(2) 0.21004(14) 0.2866(2)
O10 O 0.8090(2) 0.20528(12) 0.1614(2)
N1 N 0.5872(3) 0.23496(15) 0.0742(3)
N2 N 0.2945(4) 0.2387(2) -0.1750(3)
N3 N 0.2456(4) 0.2384(2) -0.2627(3)
N4 N -0.0448(3) 0.23094(14) -0.5128(2)
C1 C 0.6590(4) 0.34674(17) 0.1853(3)
C2 C 0.6621(3) 0.40153(16) 0.1686(3)
C3 C 0.7480(4) 0.42370(18) 0.1355(4)
H1 H 0.8073 0.4043 0.1272
C4 C 0.7464(4) 0.47377(19) 0.1149(4)
H2 H 0.8030 0.4881 0.0909
C5 C 0.6619(4) 0.50198(18) 0.1298(4)
C6 C 0.5779(4) 0.48290(19) 0.1635(4)
H3 H 0.5210 0.5034 0.1739
C7 C 0.5778(4) 0.43178(19) 0.1825(3)
H4 H 0.5195 0.4180 0.2050
C8 C 0.5860(5) 0.5859(2) 0.1195(5)
C9 C 0.5925(5) 0.6116(3) 0.1978(5)
H5 H 0.6479 0.6050 0.2420
C10 C 0.5161(4) 0.6461(2) 0.2072(4)
H6 H 0.5205 0.6640 0.2583
C11 C 0.4313(3) 0.65552(15) 0.1431(3)
C12 C 0.4258(4) 0.6291(2) 0.0682(4)
H7 H 0.3683 0.6346 0.0253
C13 C 0.5037(5) 0.5945(2) 0.0548(4)
H8 H 0.5002 0.5775 0.0029
C14 C 0.3495(3) 0.69330(15) 0.1591(3)
C15 C 0.4852(4) 0.25221(19) 0.0635(3)
H9 H 0.4584 0.2669 0.1098
C16 C 0.4211(4) 0.24876(19) -0.0121(4)
H10 H 0.3516 0.2617 -0.0175
C17 C 0.4574(3) 0.22615(19) -0.0823(3)
C18 C 0.5595(3) 0.20700(18) -0.0709(3)
H11 H 0.5869 0.1911 -0.1159
C19 C 0.6215(3) 0.21164(17) 0.0085(3)
H12 H 0.6903 0.1978 0.0161
C20 C 0.3925(4) 0.2239(2) -0.1670(3)
H13 H 0.4219 0.2119 -0.2142
C21 C 0.1482(4) 0.2243(2) -0.2699(3)
H14 H 0.1175 0.2138 -0.2224
C22 C 0.0855(4) 0.2251(2) -0.3558(3)
C23 C 0.1223(4) 0.24850(19) -0.4265(4)
H15 H 0.1911 0.2621 -0.4223
C24 C 0.0534(4) 0.25044(18) -0.5012(4)
H16 H 0.0769 0.2667 -0.5476
C25 C -0.0770(3) 0.20768(17) -0.4466(3)
H17 H -0.1450 0.1931 -0.4542
C26 C -0.0169(3) 0.20385(19) -0.3684(3)
H18 H -0.0436 0.1873 -0.3238
C27 C 1.1253(4) -0.16041(17) 0.1378(3)
C28 C 1.1387(3) -0.10646(16) 0.1357(3)
C29 C 1.0591(4) -0.07471(18) 0.1574(4)
H19 H 0.9979 -0.0882 0.1759
C30 C 1.0697(4) -0.02311(19) 0.1518(4)
H20 H 1.0170 -0.0021 0.1683
C31 C 1.1565(4) -0.00336(18) 0.1223(4)
C32 C 1.2377(4) -0.03362(19) 0.1007(4)
H21 H 1.2982 -0.0195 0.0819
C33 C 1.2285(4) -0.08416(18) 0.1072(4)
H22 H 1.2832 -0.1046 0.0923
C34 C 1.0989(5) 0.0820(2) 0.1367(5)
C35 C 1.1105(5) 0.0975(2) 0.2186(5)
H23 H 1.1635 0.0835 0.2588
C36 C 1.0435(4) 0.1341(2) 0.2427(4)
H24 H 1.0533 0.1454 0.2991
C37 C 0.9635(3) 0.15411(16) 0.1861(3)
C38 C 0.9505(4) 0.1359(2) 0.1030(4)
H25 H 0.8947 0.1477 0.0631
C39 C 1.0205(5) 0.1000(2) 0.0790(5)
H26 H 1.0128 0.0885 0.0227
C40 C 0.8893(3) 0.19252(14) 0.2131(3)
Zn1A Zn 0.30844(4) 0.751977(17) 0.31744(3)
Zn2_2 Zn -0.14783(4) 0.243937(19) -0.62231(3)
Zn2A Zn 0.14783(4) 0.743937(19) 0.12231(3)
Zn2A_2 Zn 1.14783(4) -0.256063(19) 0.12231(3)
O4A O 0.6311(2) 0.21831(13) 0.2744(2)
O5A O 0.7331(2) 0.19755(11) 0.3947(2)
O6A O 0.7968(2) 0.31175(11) 0.3813(2)
O7A O 0.9581(3) 0.31989(12) 0.3431(2)
N4_2 N 0.9552(3) 0.23094(14) 0.4872(2)
loop_
_geom_bond_atom_site_label_1
_geom_bond_atom_site_label_2
_geom_bond_site_symmetry_1
_geom_bond_site_symmetry_2
Zn1 O1 1_555 1_555
Zn2 O9 1_555 1_555
O1 C1 1_555 1_555
O2 Zn1 1_555 1_555
O3 C5 1_555 1_555
O4 C14 1_555 1_555
O5 C14 1_555 1_555
O6 C27 1_555 1_555
O7 C27 1_555 1_555
O8 C31 1_555 1_555
O9 C40 1_555 1_555
O10 Zn1 1_555 1_555
N1 Zn1 1_555 1_555
N2 N3 1_555 1_555
N3 C21 1_555 1_555
N4 C24 1_555 1_555
C1 O2 1_555 1_555
C2 C1 1_555 1_555
C3 C2 1_555 1_555
H1 C3 1_555 1_555
C4 C3 1_555 1_555
H2 C4 1_555 1_555
C5 C4 1_555 1_555
C6 C5 1_555 1_555
H3 C6 1_555 1_555
C7 C2 1_555 1_555
H4 C7 1_555 1_555
C8 O3 1_555 1_555
C9 C8 1_555 1_555
H5 C9 1_555 1_555
C10 C9 1_555 1_555
H6 C10 1_555 1_555
C11 C10 1_555 1_555
C12 C11 1_555 1_555
H7 C12 1_555 1_555
C13 C8 1_555 1_555
H8 C13 1_555 1_555
C14 C11 1_555 1_555
C15 N1 1_555 1_555
H9 C15 1_555 1_555
C16 C15 1_555 1_555
H10 C16 1_555 1_555
C17 C16 1_555 1_555
C18 C17 1_555 1_555
H11 C18 1_555 1_555
C19 N1 1_555 1_555
H12 C19 1_555 1_555
C20 N2 1_555 1_555
H13 C20 1_555 1_555
C21 H14 1_555 1_555
C22 C21 1_555 1_555
C23 C22 1_555 1_555
H15 C23 1_555 1_555
C24 C23 1_555 1_555
H16 C24 1_555 1_555
C25 N4 1_555 1_555
H17 C25 1_555 1_555
C26 C22 1_555 1_555
H18 C26 1_555 1_555
C27 C28 1_555 1_555
C28 C29 1_555 1_555
C29 H19 1_555 1_555
C30 C29 1_555 1_555
H20 C30 1_555 1_555
C31 C30 1_555 1_555
C32 C31 1_555 1_555
H21 C32 1_555 1_555
C33 C28 1_555 1_555
H22 C33 1_555 1_555
C34 O8 1_555 1_555
C35 C34 1_555 1_555
H23 C35 1_555 1_555
C36 C35 1_555 1_555
H24 C36 1_555 1_555
C37 C36 1_555 1_555
C38 C37 1_555 1_555
H25 C38 1_555 1_555
C39 C34 1_555 1_555
H26 C39 1_555 1_555
C40 O10 1_555 1_555
Zn1A O4 1_555 1_555
Zn2_2 N4 1_555 1_555
Zn2A O5 1_555 1_555
Zn2A_2 O6 1_555 1_555
O4A Zn1 1_555 1_555
O5A Zn2 1_555 1_555
O6A Zn2 1_555 1_555
O7A Zn2 1_555 1_555
N4_2 Zn2 1_555 1_555
O7 Zn2A_2 1_555 1_555
C6 C7 1_555 1_555
C12 C13 1_555 1_555
C17 C20 1_555 1_555
C18 C19 1_555 1_555
C25 C26 1_555 1_555
C32 C33 1_555 1_555
C37 C40 1_555 1_555
C38 C39 1_555 1_555

#END
