
#######################################################################
#
#                 Cambridge Crystallographic Data Centre
#                                CCDC 
#
#######################################################################
#
# If this CIF has been generated from an entry in the Cambridge 
# Structural Database, then it will include bibliographic, chemical, 
# crystal, experimental, refinement or atomic coordinate data resulting 
# from the CCDC's data processing and validation procedures.
#
#######################################################################

data_XOGXAU
_symmetry_cell_setting           triclinic
_symmetry_space_group_name_H-M   'P -1'
_symmetry_Int_Tables_number      2
_space_group_name_Hall           '-P 1'
loop_
_symmetry_equiv_pos_site_id
_symmetry_equiv_pos_as_xyz
1 x,y,z
2 -x,-y,-z
_cell_length_a                   13.968(3)
_cell_length_b                   14.611(3)
_cell_length_c                   20.566(4)
_cell_angle_alpha                75.25(3)
_cell_angle_beta                 85.51(3)
_cell_angle_gamma                69.00(3)
_cell_volume                     3788.94
loop_
_atom_site_label
_atom_site_type_symbol
_atom_site_fract_x
_atom_site_fract_y
_atom_site_fract_z
Cd1 Cd 0.47019(4) 0.26607(4) 0.95945(3)
Cd2 Cd 1.00972(4) 0.23957(4) 0.55974(3)
Cd3 Cd 1.0000 0.5000 0.5000
Cd4 Cd 0.5000 0.0000 1.0000
O1 O 0.3707(4) 0.1540(4) 0.9551(3)
O2 O 0.3093(4) 0.2881(4) 0.9938(3)
O3 O 0.4370(5) 0.3608(4) 0.8459(3)
O4 O 0.5671(5) 0.2192(5) 0.8713(3)
O5 O 0.5685(6) 0.0173(6) 0.8958(4)
O6 O 0.9758(5) 0.4852(4) 0.6118(3)
O7 O 0.9010(4) 0.4082(4) 0.5022(3)
O8 O 0.8609(5) 0.4556(5) 0.3931(3)
O9 O 0.1915(4) 0.1782(4) 0.5771(3)
O10 O 0.1160(4) 0.3334(4) 0.5209(3)
O11 O -0.0311(5) 0.2934(4) 0.6581(3)
O12 O -0.0308(5) 0.1447(5) 0.6597(3)
O13 O -0.4276(4) 0.1043(4) 1.0189(3)
O14 O -0.3859(5) 0.0534(5) 1.1264(3)
N1 N 0.5335(5) 0.3361(4) 1.0212(3)
N2 N 0.5627(5) 0.3839(5) 1.1099(3)
N3 N 0.9540(5) 0.1299(5) 1.3934(3)
N4 N 0.9628(5) 0.1748(4) 1.4873(3)
C1 C 0.5141(7) 0.2971(7) 0.8293(4)
C2 C 0.5413(6) 0.3107(6) 0.7569(4)
C3 C 0.4760(6) 0.3769(6) 0.7060(4)
H1 H 0.4113 0.4179 0.7161
C4 C 0.5049(6) 0.3837(5) 0.6391(4)
H2 H 0.4583 0.4271 0.6051
C5 C 0.6001(6) 0.3278(6) 0.6229(4)
C6 C 0.6684(6) 0.2614(6) 0.6746(4)
H3 H 0.7343 0.2232 0.6643
C7 C 0.6393(7) 0.2524(7) 0.7395(4)
H4 H 0.6850 0.2065 0.7732
C8 C 0.6352(5) 0.3383(5) 0.5511(4)
C9 C 0.7232(6) 0.3631(5) 0.5335(4)
H5 H 0.7609 0.3671 0.5673
C10 C 0.7558(5) 0.3816(5) 0.4693(3)
C11 C 0.8452(6) 0.4168(6) 0.4525(4)
C12 C 0.7045(6) 0.3697(6) 0.4194(4)
H6 H 0.7278 0.3786 0.3755
C13 C 0.6189(6) 0.3444(6) 0.4354(4)
H7 H 0.5838 0.3380 0.4012
C14 C 0.5821(5) 0.3278(5) 0.5005(4)
C15 C 0.4827(5) 0.3086(6) 0.5132(4)
C16 C 0.3969(6) 0.3754(6) 0.4763(4)
H8 H 0.4020 0.4306 0.4436
C17 C 0.3038(6) 0.3622(6) 0.4870(4)
H9 H 0.2461 0.4090 0.4625
C18 C 0.2962(6) 0.2784(6) 0.5346(4)
C19 C 0.3824(6) 0.2092(6) 0.5705(4)
H10 H 0.3780 0.1524 0.6018
C20 C 0.4756(6) 0.2240(6) 0.5599(4)
H11 H 0.5336 0.1771 0.5842
C21 C 0.1967(6) 0.2609(6) 0.5462(4)
C22 C 0.2979(6) 0.2155(6) 0.9788(4)
C23 C 0.1959(5) 0.2024(6) 0.9897(4)
C24 C 0.1762(6) 0.1318(6) 0.9644(4)
H12 H 0.2271 0.0921 0.9410
C25 C 0.0830(5) 0.1195(5) 0.9732(4)
H13 H 0.0718 0.0713 0.9558
C26 C 0.0049(5) 0.1771(5) 1.0074(4)
C27 C 0.0250(6) 0.2489(7) 1.0317(5)
H14 H -0.0263 0.2900 1.0540
C28 C 0.1203(6) 0.2608(6) 1.0234(4)
H15 H 0.1323 0.3085 1.0409
C29 C -0.0941(5) 0.1601(5) 1.0206(4)
C30 C -0.1288(6) 0.1454(6) 1.0862(4)
H16 H -0.0924 0.1513 1.1199
C31 C -0.2160(6) 0.1222(6) 1.1020(4)
H17 H -0.2368 0.1100 1.1464
C32 C -0.2735(5) 0.1169(5) 1.0517(4)
C33 C -0.3708(6) 0.0908(6) 1.0686(4)
C34 C -0.2418(5) 0.1331(5) 0.9863(3)
H18 H -0.2809 0.1303 0.9527
C35 C -0.1514(5) 0.1538(5) 0.9694(3)
C36 C -0.1210(5) 0.1691(5) 0.8975(3)
C37 C -0.1151(6) 0.0982(6) 0.8619(4)
H19 H -0.1297 0.0407 0.8835
C38 C -0.0878(6) 0.1115(6) 0.7949(4)
H20 H -0.0835 0.0625 0.7723
C39 C -0.0672(5) 0.1954(5) 0.7617(4)
C40 C -0.0737(6) 0.2664(5) 0.7973(4)
H21 H -0.0598 0.3242 0.7753
C41 C -0.1000(6) 0.2543(6) 0.8641(4)
H22 H -0.1035 0.3032 0.8865
C42 C -0.0400(6) 0.2112(6) 0.6892(4)
C43 C 0.4374(6) 0.2928(6) 1.1264(4)
H23 H 0.3784 0.3070 1.0994
H24 H 0.4163 0.3219 1.1644
H25 H 0.4706 0.2210 1.1418
C44 C 0.5110(6) 0.3377(5) 1.0850(4)
C45 C 0.6066(5) 0.3822(5) 1.0021(4)
C46 C 0.6543(6) 0.3985(6) 0.9423(4)
H26 H 0.6435 0.3761 0.9060
C47 C 0.7196(6) 0.4504(6) 0.9395(5)
H27 H 0.7523 0.4660 0.8992
C48 C 0.7388(6) 0.4808(7) 0.9947(5)
H28 H 0.7867 0.5124 0.9908
C49 C 0.6904(7) 0.4658(6) 1.0530(5)
H29 H 0.7013 0.4895 1.0887
C50 C 0.6237(6) 0.4136(6) 1.0583(4)
C51 C 0.5506(7) 0.4063(6) 1.1754(4)
H30 H 0.4797 0.4200 1.1889
H31 H 0.5665 0.4666 1.1724
C52 C 0.6203(8) 0.3189(7) 1.2288(4)
H32 H 0.5977 0.3306 1.2727
H33 H 0.6111 0.2571 1.2264
C53 C 0.7316(7) 0.3029(8) 1.2236(4)
H34 H 0.7415 0.3639 1.2271
H35 H 0.7545 0.2920 1.1795
C54 C 0.7973(8) 0.2154(7) 1.2761(5)
H36 H 0.7715 0.2247 1.3200
H37 H 0.7896 0.1542 1.2710
C55 C 0.9061(9) 0.2007(8) 1.2745(5)
H38 H 0.9133 0.2620 1.2799
H39 H 0.9311 0.1926 1.2302
C56 C 0.9763(8) 0.1116(7) 1.3267(4)
H40 H 0.9657 0.0500 1.3254
H41 H 1.0474 0.1032 1.3162
C57 C 1.0700(7) 0.2248(7) 1.3923(4)
H42 H 1.1095 0.2301 1.4265
H43 H 1.0336 0.2911 1.3654
H44 H 1.1150 0.1848 1.3643
C58 C 0.9965(6) 0.1768(5) 1.4241(4)
C59 C 0.8939(6) 0.0933(6) 1.4383(4)
C60 C 0.8289(8) 0.0390(7) 1.4342(5)
H45 H 0.8257 0.0189 1.3953
C61 C 0.7708(8) 0.0168(7) 1.4891(6)
H46 H 0.7264 -0.0168 1.4866
C62 C 0.7777(7) 0.0442(7) 1.5488(5)
H47 H 0.7385 0.0278 1.5855
C63 C 0.8419(6) 0.0950(6) 1.5535(4)
H48 H 0.8474 0.1120 1.5933
C64 C 0.8980(6) 0.1203(6) 1.4981(4)
Cd1A Cd -0.47019(4) -0.26607(4) 1.04055(3)
Cd2A Cd -1.00972(4) -0.23957(4) 1.44026(3)
O1A O -0.3707(4) -0.1540(4) 1.0449(3)
O2A O -0.3093(4) -0.2881(4) 1.0062(3)
O3A O -0.4370(5) -0.3608(4) 1.1541(3)
O4A O -0.5671(5) -0.2192(5) 1.1287(3)
O7A O -0.9010(4) -0.4082(4) 1.4978(3)
O8A O -0.8609(5) -0.4556(5) 1.6069(3)
O9A O -0.1915(4) -0.1782(4) 1.4229(3)
O10A O -0.1160(4) -0.3334(4) 1.4791(3)
O11A O 0.0311(5) -0.2934(4) 1.3419(3)
O12A O 0.0308(5) -0.1447(5) 1.3403(3)
O13A O 0.4276(4) -0.1043(4) 0.9811(3)
O14A O 0.3859(5) -0.0534(5) 0.8736(3)
N1A N -0.5335(5) -0.3361(4) 0.9788(3)
N2A N -0.5627(5) -0.3839(5) 0.8901(3)
N3A N -0.9540(5) -0.1299(5) 0.6066(3)
N4A N -0.9628(5) -0.1748(4) 0.5127(3)
C1A C -0.5141(7) -0.2971(7) 1.1707(4)
C2A C -0.5413(6) -0.3107(6) 1.2431(4)
C3A C -0.4760(6) -0.3769(6) 1.2940(4)
H1A H -0.4113 -0.4179 1.2839
C4A C -0.5049(6) -0.3837(5) 1.3609(4)
H2A H -0.4583 -0.4271 1.3949
C5A C -0.6001(6) -0.3278(6) 1.3771(4)
C6A C -0.6684(6) -0.2614(6) 1.3254(4)
H3A H -0.7343 -0.2232 1.3357
C7A C -0.6393(7) -0.2524(7) 1.2605(4)
H4A H -0.6850 -0.2065 1.2268
C8A C -0.6352(5) -0.3383(5) 1.4489(4)
C9A C -0.7232(6) -0.3631(5) 1.4665(4)
H5A H -0.7609 -0.3671 1.4327
C10A C -0.7558(5) -0.3816(5) 1.5307(3)
C11A C -0.8452(6) -0.4168(6) 1.5475(4)
C12A C -0.7045(6) -0.3697(6) 1.5806(4)
H6A H -0.7278 -0.3786 1.6245
C13A C -0.6189(6) -0.3444(6) 1.5646(4)
H7A H -0.5838 -0.3380 1.5988
C14A C -0.5821(5) -0.3278(5) 1.4995(4)
C15A C -0.4827(5) -0.3086(6) 1.4868(4)
C16A C -0.3969(6) -0.3754(6) 1.5237(4)
H8A H -0.4020 -0.4306 1.5564
C17A C -0.3038(6) -0.3622(6) 1.5130(4)
H9A H -0.2461 -0.4090 1.5375
C18A C -0.2962(6) -0.2784(6) 1.4654(4)
C19A C -0.3824(6) -0.2092(6) 1.4295(4)
H10A H -0.3780 -0.1524 1.3982
C20A C -0.4756(6) -0.2240(6) 1.4401(4)
H11A H -0.5336 -0.1771 1.4158
C21A C -0.1967(6) -0.2609(6) 1.4538(4)
C22A C -0.2979(6) -0.2155(6) 1.0212(4)
C23A C -0.1959(5) -0.2024(6) 1.0103(4)
C24A C -0.1762(6) -0.1318(6) 1.0356(4)
H12A H -0.2271 -0.0921 1.0590
C25A C -0.0830(5) -0.1195(5) 1.0268(4)
H13A H -0.0718 -0.0713 1.0442
C26A C -0.0049(5) -0.1771(5) 0.9926(4)
C27A C -0.0250(6) -0.2489(7) 0.9683(5)
H14A H 0.0263 -0.2900 0.9460
C28A C -0.1203(6) -0.2608(6) 0.9766(4)
H15A H -0.1323 -0.3085 0.9591
C29A C 0.0941(5) -0.1601(5) 0.9794(4)
C30A C 0.1288(6) -0.1454(6) 0.9138(4)
H16A H 0.0924 -0.1513 0.8801
C31A C 0.2160(6) -0.1222(6) 0.8980(4)
H17A H 0.2368 -0.1100 0.8536
C32A C 0.2735(5) -0.1169(5) 0.9483(4)
C33A C 0.3708(6) -0.0908(6) 0.9314(4)
C34A C 0.2418(5) -0.1331(5) 1.0137(3)
H18A H 0.2809 -0.1303 1.0473
C35A C 0.1514(5) -0.1538(5) 1.0306(3)
C36A C 0.1210(5) -0.1691(5) 1.1025(3)
C37A C 0.1151(6) -0.0982(6) 1.1381(4)
H19A H 0.1297 -0.0407 1.1165
C38A C 0.0878(6) -0.1115(6) 1.2051(4)
H20A H 0.0835 -0.0625 1.2277
C39A C 0.0672(5) -0.1954(5) 1.2383(4)
C40A C 0.0737(6) -0.2664(5) 1.2027(4)
H21A H 0.0598 -0.3242 1.2247
C41A C 0.1000(6) -0.2543(6) 1.1359(4)
H22A H 0.1035 -0.3032 1.1135
C42A C 0.0400(6) -0.2112(6) 1.3108(4)
C43A C -0.4374(6) -0.2928(6) 0.8736(4)
H23A H -0.3784 -0.3070 0.9006
H24A H -0.4163 -0.3219 0.8356
H25A H -0.4706 -0.2210 0.8582
C44A C -0.5110(6) -0.3377(5) 0.9150(4)
C45A C -0.6066(5) -0.3822(5) 0.9979(4)
C46A C -0.6543(6) -0.3985(6) 1.0577(4)
H26A H -0.6435 -0.3761 1.0940
C47A C -0.7196(6) -0.4504(6) 1.0605(5)
H27A H -0.7523 -0.4660 1.1008
C48A C -0.7388(6) -0.4808(7) 1.0053(5)
H28A H -0.7867 -0.5124 1.0092
C49A C -0.6904(7) -0.4658(6) 0.9470(5)
H29A H -0.7013 -0.4895 0.9113
C50A C -0.6237(6) -0.4136(6) 0.9417(4)
C51A C -0.5506(7) -0.4063(6) 0.8246(4)
H30A H -0.4797 -0.4200 0.8111
H31A H -0.5665 -0.4666 0.8276
C52A C -0.6203(8) -0.3189(7) 0.7712(4)
H32A H -0.5977 -0.3306 0.7273
H33A H -0.6111 -0.2571 0.7736
C53A C -0.7316(7) -0.3029(8) 0.7764(4)
H34A H -0.7415 -0.3639 0.7729
H35A H -0.7545 -0.2920 0.8205
C54A C -0.7973(8) -0.2154(7) 0.7239(5)
H36A H -0.7715 -0.2247 0.6800
H37A H -0.7896 -0.1542 0.7290
C55A C -0.9061(9) -0.2007(8) 0.7255(5)
H38A H -0.9133 -0.2620 0.7201
H39A H -0.9311 -0.1926 0.7698
C56A C -0.9763(8) -0.1116(7) 0.6733(4)
H40A H -0.9657 -0.0500 0.6746
H41A H -1.0474 -0.1032 0.6838
C57A C -1.0700(7) -0.2248(7) 0.6077(4)
H42A H -1.1095 -0.2301 0.5735
H43A H -1.0336 -0.2911 0.6346
H44A H -1.1150 -0.1848 0.6357
C58A C -0.9965(6) -0.1768(5) 0.5759(4)
C59A C -0.8939(6) -0.0933(6) 0.5617(4)
C60A C -0.8289(8) -0.0390(7) 0.5658(5)
H45A H -0.8257 -0.0189 0.6047
C61A C -0.7708(8) -0.0168(7) 0.5109(6)
H46A H -0.7264 0.0168 0.5134
C62A C -0.7777(7) -0.0442(7) 0.4512(5)
H47A H -0.7385 -0.0278 0.4145
C63A C -0.8419(6) -0.0950(6) 0.4465(4)
H48A H -0.8474 -0.1120 0.4067
C64A C -0.8980(6) -0.1203(6) 0.5019(4)
O5A O 0.4315(6) -0.0173(6) 1.1042(4)
O6A O 1.0242(5) 0.5148(4) 0.3882(3)
Cd1_2 Cd -0.52981(4) 0.26607(4) 0.95945(3)
Cd1A_2 Cd 0.52981(4) -0.26607(4) 1.04055(3)
Cd2_2 Cd 0.00972(4) 0.23957(4) 0.55974(3)
Cd2_3 Cd 1.00972(4) 0.23957(4) 1.55974(3)
Cd2A_2 Cd -1.00972(4) -0.23957(4) 0.44026(3)
Cd2A_3 Cd -0.00972(4) -0.23957(4) 1.44026(3)
Cd3_2 Cd -1.0000 -0.5000 1.5000
Cd3_3 Cd 0.0000 -0.5000 1.5000
Cd3_4 Cd 0.0000 0.5000 0.5000
Cd4_2 Cd -0.5000 0.0000 1.0000
O1A_2 O 0.6293(4) -0.1540(4) 1.0449(3)
O7A_2 O 1.0990(4) 0.5918(4) 0.4978(3)
O9_2 O 1.1915(4) 0.1782(4) 0.5771(3)
O9A_2 O -1.1915(4) -0.1782(4) 1.4229(3)
O10_2 O 1.1160(4) 0.3334(4) 0.5209(3)
O10A_2 O -1.1160(4) -0.3334(4) 1.4791(3)
O10A_3 O 0.8840(4) 0.6666(4) 0.4791(3)
O11_2 O 0.9689(5) 0.2934(4) 0.6581(3)
O11A_2 O -0.9689(5) -0.2934(4) 1.3419(3)
O12_2 O 0.9692(5) 0.1447(5) 0.6597(3)
O12A_2 O -0.9692(5) -0.1447(5) 1.3403(3)
O13_2 O 0.5724(4) 0.1043(4) 1.0189(3)
O13A_2 O -0.5724(4) -0.1043(4) 0.9811(3)
N4_2 N 0.9628(5) 0.1748(4) 0.4873(3)
N4A_2 N -0.9628(5) -0.1748(4) 1.5127(3)
O15 O 0.7287(14) 0.5448(16) 0.7111(7)
O16 O 0.753(2) 0.901(3) 0.7863(15)
loop_
_geom_bond_atom_site_label_1
_geom_bond_atom_site_label_2
_geom_bond_site_symmetry_1
_geom_bond_site_symmetry_2
Cd1 O1 1_555 1_555
Cd2 O7 1_555 1_555
Cd3 O6 1_555 1_555
Cd4 O1 1_555 1_555
O1 C22 1_555 1_555
O2 Cd1 1_555 1_555
O3 Cd1 1_555 1_555
O4 Cd1 1_555 1_555
O5 Cd4 1_555 1_555
O7 Cd3 1_555 1_555
O8 C11 1_555 1_555
O9 C21 1_555 1_555
O10 C21 1_555 1_555
O11 C42 1_555 1_555
O12 C42 1_555 1_555
O13 C33 1_555 1_555
O14 C33 1_555 1_555
N1 Cd1 1_555 1_555
N2 C44 1_555 1_555
N3 C56 1_555 1_555
N4 C58 1_555 1_555
C1 O3 1_555 1_555
C2 C1 1_555 1_555
C3 C2 1_555 1_555
H1 C3 1_555 1_555
C4 C3 1_555 1_555
H2 C4 1_555 1_555
C5 C4 1_555 1_555
C6 C5 1_555 1_555
H3 C6 1_555 1_555
C7 C2 1_555 1_555
H4 C7 1_555 1_555
C8 C5 1_555 1_555
C9 C8 1_555 1_555
H5 C9 1_555 1_555
C10 C9 1_555 1_555
C11 O7 1_555 1_555
C12 C10 1_555 1_555
H6 C12 1_555 1_555
C13 C12 1_555 1_555
H7 C13 1_555 1_555
C14 C8 1_555 1_555
C15 C14 1_555 1_555
C16 C15 1_555 1_555
H8 C16 1_555 1_555
C17 C16 1_555 1_555
H9 C17 1_555 1_555
C18 C17 1_555 1_555
C19 C18 1_555 1_555
H10 C19 1_555 1_555
C20 C15 1_555 1_555
H11 C20 1_555 1_555
C21 C18 1_555 1_555
C22 O2 1_555 1_555
C23 C22 1_555 1_555
C24 C23 1_555 1_555
H12 C24 1_555 1_555
C25 C24 1_555 1_555
H13 C25 1_555 1_555
C26 C25 1_555 1_555
C27 C26 1_555 1_555
H14 C27 1_555 1_555
C28 C23 1_555 1_555
H15 C28 1_555 1_555
C29 C26 1_555 1_555
C30 C29 1_555 1_555
H16 C30 1_555 1_555
C31 C30 1_555 1_555
H17 C31 1_555 1_555
C32 C31 1_555 1_555
C33 C32 1_555 1_555
C34 C32 1_555 1_555
H18 C34 1_555 1_555
C35 C29 1_555 1_555
C36 C35 1_555 1_555
C37 C36 1_555 1_555
H19 C37 1_555 1_555
C38 C37 1_555 1_555
H20 C38 1_555 1_555
C39 C38 1_555 1_555
C40 C39 1_555 1_555
H21 C40 1_555 1_555
C41 C36 1_555 1_555
H22 C41 1_555 1_555
C42 C39 1_555 1_555
C43 H23 1_555 1_555
H24 C43 1_555 1_555
H25 C43 1_555 1_555
C44 N1 1_555 1_555
C45 N1 1_555 1_555
C46 C45 1_555 1_555
H26 C46 1_555 1_555
C47 C46 1_555 1_555
H27 C47 1_555 1_555
C48 C47 1_555 1_555
H28 C48 1_555 1_555
C49 C48 1_555 1_555
H29 C49 1_555 1_555
C50 N2 1_555 1_555
C51 N2 1_555 1_555
H30 C51 1_555 1_555
H31 C51 1_555 1_555
C52 C51 1_555 1_555
H32 C52 1_555 1_555
H33 C52 1_555 1_555
C53 C52 1_555 1_555
H34 C53 1_555 1_555
H35 C53 1_555 1_555
C54 C53 1_555 1_555
H36 C54 1_555 1_555
H37 C54 1_555 1_555
C55 C54 1_555 1_555
H38 C55 1_555 1_555
H39 C55 1_555 1_555
C56 C55 1_555 1_555
H40 C56 1_555 1_555
H41 C56 1_555 1_555
C57 H42 1_555 1_555
H43 C57 1_555 1_555
H44 C57 1_555 1_555
C58 N3 1_555 1_555
C59 N3 1_555 1_555
C60 C59 1_555 1_555
H45 C60 1_555 1_555
C61 C60 1_555 1_555
H46 C61 1_555 1_555
C62 C61 1_555 1_555
H47 C62 1_555 1_555
C63 C62 1_555 1_555
H48 C63 1_555 1_555
C64 N4 1_555 1_555
Cd1A O1A 1_555 1_555
Cd2A O7A 1_555 1_555
O1A C22A 1_555 1_555
O2A Cd1A 1_555 1_555
O3A Cd1A 1_555 1_555
O4A Cd1A 1_555 1_555
O7A C11A 1_555 1_555
O8A C11A 1_555 1_555
O9A C21A 1_555 1_555
O10A C21A 1_555 1_555
O11A C42A 1_555 1_555
O12A C42A 1_555 1_555
O13A Cd4 1_555 1_555
O14A C33A 1_555 1_555
N1A Cd1A 1_555 1_555
N2A C44A 1_555 1_555
N3A C56A 1_555 1_555
N4A C58A 1_555 1_555
C1A O3A 1_555 1_555
C2A C1A 1_555 1_555
C3A C2A 1_555 1_555
H1A C3A 1_555 1_555
C4A C3A 1_555 1_555
H2A C4A 1_555 1_555
C5A C4A 1_555 1_555
C6A C5A 1_555 1_555
H3A C6A 1_555 1_555
C7A C2A 1_555 1_555
H4A C7A 1_555 1_555
C8A C5A 1_555 1_555
C9A C8A 1_555 1_555
H5A C9A 1_555 1_555
C10A C9A 1_555 1_555
C11A C10A 1_555 1_555
C12A C10A 1_555 1_555
H6A C12A 1_555 1_555
C13A C12A 1_555 1_555
H7A C13A 1_555 1_555
C14A C8A 1_555 1_555
C15A C14A 1_555 1_555
C16A C15A 1_555 1_555
H8A C16A 1_555 1_555
C17A C16A 1_555 1_555
H9A C17A 1_555 1_555
C18A C17A 1_555 1_555
C19A C18A 1_555 1_555
H10A C19A 1_555 1_555
C20A C15A 1_555 1_555
H11A C20A 1_555 1_555
C21A C18A 1_555 1_555
C22A O2A 1_555 1_555
C23A C22A 1_555 1_555
C24A C23A 1_555 1_555
H12A C24A 1_555 1_555
C25A C24A 1_555 1_555
H13A C25A 1_555 1_555
C26A C25A 1_555 1_555
C27A C26A 1_555 1_555
H14A C27A 1_555 1_555
C28A C23A 1_555 1_555
H15A C28A 1_555 1_555
C29A C26A 1_555 1_555
C30A C29A 1_555 1_555
H16A C30A 1_555 1_555
C31A C30A 1_555 1_555
H17A C31A 1_555 1_555
C32A C31A 1_555 1_555
C33A O13A 1_555 1_555
C34A C32A 1_555 1_555
H18A C34A 1_555 1_555
C35A C29A 1_555 1_555
C36A C35A 1_555 1_555
C37A C36A 1_555 1_555
H19A C37A 1_555 1_555
C38A C37A 1_555 1_555
H20A C38A 1_555 1_555
C39A C38A 1_555 1_555
C40A C39A 1_555 1_555
H21A C40A 1_555 1_555
C41A C36A 1_555 1_555
H22A C41A 1_555 1_555
C42A C39A 1_555 1_555
C43A H23A 1_555 1_555
H24A C43A 1_555 1_555
H25A C43A 1_555 1_555
C44A N1A 1_555 1_555
C45A N1A 1_555 1_555
C46A C45A 1_555 1_555
H26A C46A 1_555 1_555
C47A C46A 1_555 1_555
H27A C47A 1_555 1_555
C48A C47A 1_555 1_555
H28A C48A 1_555 1_555
C49A C48A 1_555 1_555
H29A C49A 1_555 1_555
C50A N2A 1_555 1_555
C51A N2A 1_555 1_555
H30A C51A 1_555 1_555
H31A C51A 1_555 1_555
C52A C51A 1_555 1_555
H32A C52A 1_555 1_555
H33A C52A 1_555 1_555
C53A C52A 1_555 1_555
H34A C53A 1_555 1_555
H35A C53A 1_555 1_555
C54A C53A 1_555 1_555
H36A C54A 1_555 1_555
H37A C54A 1_555 1_555
C55A C54A 1_555 1_555
H38A C55A 1_555 1_555
H39A C55A 1_555 1_555
C56A C55A 1_555 1_555
H40A C56A 1_555 1_555
H41A C56A 1_555 1_555
C57A H42A 1_555 1_555
H43A C57A 1_555 1_555
H44A C57A 1_555 1_555
C58A N3A 1_555 1_555
C59A N3A 1_555 1_555
C60A C59A 1_555 1_555
H45A C60A 1_555 1_555
C61A C60A 1_555 1_555
H46A C61A 1_555 1_555
C62A C61A 1_555 1_555
H47A C62A 1_555 1_555
C63A C62A 1_555 1_555
H48A C63A 1_555 1_555
C64A N4A 1_555 1_555
O5A Cd4 1_555 1_555
O6A Cd3 1_555 1_555
Cd1_2 O13 1_555 1_555
Cd1A_2 O13A 1_555 1_555
Cd2_2 O9 1_555 1_555
Cd2_3 N4 1_555 1_555
Cd2A_2 N4A 1_555 1_555
Cd2A_3 O9A 1_555 1_555
Cd3_2 O7A 1_555 1_555
Cd3_3 O10A 1_555 1_555
Cd3_4 O10 1_555 1_555
Cd4_2 O13 1_555 1_555
O1A_2 Cd4 1_555 1_555
O7A_2 Cd3 1_555 1_555
O9_2 Cd2 1_555 1_555
O9A_2 Cd2A 1_555 1_555
O10_2 Cd2 1_555 1_555
O10A_2 Cd2A 1_555 1_555
O10A_3 Cd3 1_555 1_555
O11_2 Cd2 1_555 1_555
O11A_2 Cd2A 1_555 1_555
O12_2 Cd2 1_555 1_555
O12A_2 Cd2A 1_555 1_555
O13_2 Cd1 1_555 1_555
O13A_2 Cd1A 1_555 1_555
N4_2 Cd2 1_555 1_555
N4A_2 Cd2A 1_555 1_555
Cd3 O10_2 1_555 1_555
Cd4 O13_2 1_555 1_555
O4 C1 1_555 1_555
O10 Cd2_2 1_555 1_555
O11 Cd2_2 1_555 1_555
O12 Cd2_2 1_555 1_555
C6 C7 1_555 1_555
C10 C11 1_555 1_555
C13 C14 1_555 1_555
C19 C20 1_555 1_555
C27 C28 1_555 1_555
C34 C35 1_555 1_555
C40 C41 1_555 1_555
C43 C44 1_555 1_555
C45 C50 1_555 1_555
C49 C50 1_555 1_555
C57 C58 1_555 1_555
C59 C64 1_555 1_555
C63 C64 1_555 1_555
O1A Cd4_2 1_555 1_555
O4A C1A 1_555 1_555
O10A Cd2A_3 1_555 1_555
O11A Cd2A_3 1_555 1_555
O12A Cd2A_3 1_555 1_555
C6A C7A 1_555 1_555
C13A C14A 1_555 1_555
C19A C20A 1_555 1_555
C27A C28A 1_555 1_555
C32A C33A 1_555 1_555
C34A C35A 1_555 1_555
C40A C41A 1_555 1_555
C43A C44A 1_555 1_555
C45A C50A 1_555 1_555
C49A C50A 1_555 1_555
C57A C58A 1_555 1_555
C59A C64A 1_555 1_555
C63A C64A 1_555 1_555
Cd1A_2 O1A_2 1_555 1_555
Cd3_2 O10A_2 1_555 1_555
Cd4_2 O13A_2 1_555 1_555

#END
