
#######################################################################
#
#                 Cambridge Crystallographic Data Centre
#                                CCDC 
#
#######################################################################
#
# If this CIF has been generated from an entry in the Cambridge 
# Structural Database, then it will include bibliographic, chemical, 
# crystal, experimental, refinement or atomic coordinate data resulting 
# from the CCDC's data processing and validation procedures.
#
#######################################################################

data_XOHFIK
_symmetry_cell_setting           monoclinic
_symmetry_space_group_name_H-M   'P 21/n'
_symmetry_Int_Tables_number      14
_space_group_name_Hall           '-P 2yn'
loop_
_symmetry_equiv_pos_site_id
_symmetry_equiv_pos_as_xyz
1 x,y,z
2 1/2-x,1/2+y,1/2-z
3 -x,-y,-z
4 1/2+x,1/2-y,1/2+z
_cell_length_a                   11.7190(10)
_cell_length_b                   10.1720(10)
_cell_length_c                   14.9200(10)
_cell_angle_alpha                90
_cell_angle_beta                 91.5530(10)
_cell_angle_gamma                90
_cell_volume                     1777.9
loop_
_atom_site_label
_atom_site_type_symbol
_atom_site_fract_x
_atom_site_fract_y
_atom_site_fract_z
Mn1 Mn 0.25720(3) 0.07996(4) 0.13103(3)
Mn2 Mn 0.0000 0.0000 0.0000
Mn3 Mn 0.23978(3) -0.10572(4) 0.31367(3)
Mn4 Mn 0.5000 0.0000 0.0000
O1 O 0.12812(16) -0.00518(17) 0.21838(14)
O2 O 0.15410(16) 0.25853(19) 0.10661(12)
O3 O 0.30597(16) 0.20189(18) 0.24784(12)
O4 O 0.40051(16) 0.15920(18) 0.06094(13)
O5 O 0.35110(16) -0.08091(18) 0.19631(14)
O6 O 0.18523(16) -0.02960(19) 0.02058(13)
O7 O -0.03732(17) 0.0051(2) 0.14109(14)
O8 O 0.02117(17) 0.2113(2) 0.00064(13)
O9 O 0.39282(17) 0.37387(19) 0.09274(14)
O10 O 0.51341(18) -0.1099(2) 0.12354(14)
O11 O 0.34693(17) -0.1073(2) -0.03505(15)
O12 O 0.31669(18) 0.0677(2) 0.36683(13)
C1 C 0.0201(3) -0.0114(3) 0.2108(2)
H1 H -0.0203 -0.0305 0.2636
C2 C 0.0777(2) 0.2885(3) 0.04717(19)
H2 H 0.0631 0.3794 0.0381
C3 C 0.3298(2) 0.1752(3) 0.32951(18)
H3 H 0.3607 0.2444 0.3654
C4 C 0.4338(2) 0.2785(3) 0.05456(19)
H4 H 0.4961 0.2950 0.0167
C5 C 0.4483(2) -0.1329(3) 0.1854(2)
H5 H 0.4734 -0.1953 0.2291
C6 C 0.2419(2) -0.1018(3) -0.0322(2)
H6 H 0.1995 -0.1561 -0.0728
Mn1B Mn -0.25720(3) -0.07996(4) -0.13103(3)
Mn1A Mn 0.24280(3) -0.42004(4) 0.36897(3)
Mn1B_2 Mn 0.74280(3) -0.07996(4) -0.13103(3)
Mn3B Mn -0.23978(3) 0.10572(4) -0.31367(3)
Mn3A Mn 0.26022(3) 0.39428(4) 0.18633(3)
Mn3C Mn -0.26022(3) -0.39428(4) -0.18633(3)
Mn3A_2 Mn 0.26022(3) -0.60572(4) 0.18633(3)
Mn3B_2 Mn 0.76022(3) 0.10572(4) -0.31367(3)
Mn4_2 Mn -0.5000 0.0000 0.0000
Mn4C Mn 0.0000 -0.5000 0.5000
O1B O -0.12812(16) 0.00518(17) -0.21838(14)
O2B O -0.15410(16) -0.25853(19) -0.10661(12)
O2A O 0.34590(16) -0.24147(19) 0.39339(12)
O2C O -0.34590(16) 0.24147(19) -0.39339(12)
O3A O 0.19403(16) -0.29811(18) 0.25216(12)
O3B O -0.30597(16) -0.20189(18) -0.24784(12)
O3C O -0.19403(16) 0.29811(18) -0.25216(12)
O4A O 0.09949(16) -0.34080(18) 0.43906(13)
O4B O 0.59949(16) -0.15920(18) -0.06094(13)
O4B_2 O -0.40051(16) -0.15920(18) -0.06094(13)
O5B O 0.64890(16) 0.08091(18) -0.19631(14)
O5B_2 O -0.35110(16) 0.08091(18) -0.19631(14)
O6B O -0.18523(16) 0.02960(19) -0.02058(13)
O7B O 0.03732(17) -0.0051(2) -0.14109(14)
O8B O -0.02117(17) -0.2113(2) -0.00064(13)
O9A O 0.10718(17) -0.12613(19) 0.40726(14)
O9C O -0.10718(17) 0.12613(19) -0.40726(14)
O10B O 0.48659(18) 0.1099(2) -0.12354(14)
O11B O -0.34693(17) 0.1073(2) 0.03505(15)
O11B_2 O 0.65307(17) 0.1073(2) 0.03505(15)
O12A O 0.18331(18) -0.4323(2) 0.13317(13)
O12B O -0.31669(18) -0.0677(2) -0.36683(13)
C1B C -0.0201(3) 0.0114(3) -0.2108(2)
H1B H 0.0203 0.0305 -0.2636
C2B C -0.0777(2) -0.2885(3) -0.04717(19)
H2B H -0.0631 -0.3794 -0.0381
C3A C 0.1702(2) -0.3248(3) 0.17049(18)
H3A H 0.1393 -0.2556 0.1346
C4A C 0.0662(2) -0.2215(3) 0.44544(19)
H4A H 0.0039 -0.2050 0.4833
C5B C 0.5517(2) 0.1329(3) -0.1854(2)
H5B H 0.5266 0.1953 -0.2291
C6B C -0.2419(2) 0.1018(3) 0.0322(2)
H6B H -0.1995 0.1561 0.0728
loop_
_geom_bond_atom_site_label_1
_geom_bond_atom_site_label_2
_geom_bond_site_symmetry_1
_geom_bond_site_symmetry_2
Mn1 O1 1_555 1_555
Mn2 O6 1_555 1_555
Mn3 O1 1_555 1_555
Mn4 O4 1_555 1_555
O1 C1 1_555 1_555
O2 Mn1 1_555 1_555
O3 Mn1 1_555 1_555
O4 Mn1 1_555 1_555
O5 Mn1 1_555 1_555
O6 Mn1 1_555 1_555
O7 Mn2 1_555 1_555
O8 Mn2 1_555 1_555
O9 C4 1_555 1_555
O10 Mn4 1_555 1_555
O11 Mn4 1_555 1_555
O12 Mn3 1_555 1_555
C1 O7 1_555 1_555
H1 C1 1_555 1_555
C2 O2 1_555 1_555
H2 C2 1_555 1_555
C3 O3 1_555 1_555
H3 C3 1_555 1_555
C4 O4 1_555 1_555
H4 C4 1_555 1_555
C5 O5 1_555 1_555
H5 C5 1_555 1_555
C6 O6 1_555 1_555
H6 C6 1_555 1_555
Mn1B O1B 1_555 1_555
Mn1A O2A 1_555 1_555
Mn1B_2 O4B 1_555 1_555
Mn3B O1B 1_555 1_555
Mn3A O2 1_555 1_555
Mn3C O2B 1_555 1_555
Mn3A_2 O12A 1_555 1_555
Mn3B_2 O5B 1_555 1_555
Mn4_2 O4B_2 1_555 1_555
Mn4C O4A 1_555 1_555
O1B C1B 1_555 1_555
O2B Mn1B 1_555 1_555
O2A Mn3 1_555 1_555
O2C Mn3B 1_555 1_555
O3A Mn3 1_555 1_555
O3B Mn1B 1_555 1_555
O3C Mn3B 1_555 1_555
O4A Mn1A 1_555 1_555
O4B Mn4 1_555 1_555
O4B_2 Mn1B 1_555 1_555
O5B Mn1B_2 1_555 1_555
O5B_2 Mn1B 1_555 1_555
O6B Mn2 1_555 1_555
O7B Mn2 1_555 1_555
O8B Mn2 1_555 1_555
O9A Mn3 1_555 1_555
O9C Mn3B 1_555 1_555
O10B Mn4 1_555 1_555
O11B Mn4_2 1_555 1_555
O11B_2 Mn4 1_555 1_555
O12A C3A 1_555 1_555
O12B Mn3B 1_555 1_555
C1B O7B 1_555 1_555
H1B C1B 1_555 1_555
C2B O2B 1_555 1_555
H2B C2B 1_555 1_555
C3A O3A 1_555 1_555
H3A C3A 1_555 1_555
C4A O4A 1_555 1_555
H4A C4A 1_555 1_555
C5B O5B 1_555 1_555
H5B C5B 1_555 1_555
C6B O6B 1_555 1_555
H6B C6B 1_555 1_555
Mn3 O5 1_555 1_555
O3 Mn3A 1_555 1_555
O8 C2 1_555 1_555
O9 Mn3A 1_555 1_555
O10 C5 1_555 1_555
O11 C6 1_555 1_555
O12 C3 1_555 1_555
Mn1B O6B 1_555 1_555
Mn1A O3A 1_555 1_555
Mn3B O5B_2 1_555 1_555
Mn3C O3B 1_555 1_555
O8B C2B 1_555 1_555
O9A C4A 1_555 1_555
O10B C5B 1_555 1_555
O11B C6B 1_555 1_555

#END
