
#######################################################################
#
#                 Cambridge Crystallographic Data Centre
#                                CCDC 
#
#######################################################################
#
# If this CIF has been generated from an entry in the Cambridge 
# Structural Database, then it will include bibliographic, chemical, 
# crystal, experimental, refinement or atomic coordinate data resulting 
# from the CCDC's data processing and validation procedures.
#
#######################################################################

data_XOJCEF
_symmetry_cell_setting           rhombohedral
_symmetry_space_group_name_H-M   'R 3 m'
_symmetry_Int_Tables_number      160
_space_group_name_Hall           'R 3 -2"'
loop_
_symmetry_equiv_pos_site_id
_symmetry_equiv_pos_as_xyz
1 x,y,z
2 -y,-x,z
3 -y,x-y,z
4 -x+y,-x,z
5 1/3+x,2/3+y,2/3+z
6 1/3-y,2/3+x-y,2/3+z
7 1/3-x+y,2/3-x,2/3+z
8 2/3+x,1/3+y,1/3+z
9 2/3-y,1/3+x-y,1/3+z
10 2/3-x+y,1/3-x,1/3+z
11 x,x-y,z
12 -x+y,y,z
13 1/3-y,2/3-x,2/3+z
14 1/3+x,2/3+x-y,2/3+z
15 1/3-x+y,2/3+y,2/3+z
16 2/3-y,1/3-x,1/3+z
17 2/3+x,1/3+x-y,1/3+z
18 2/3-x+y,1/3+y,1/3+z
_cell_length_a                   23.64144(61)
_cell_length_b                   23.64144(61)
_cell_length_c                   10.29926(52)
_cell_angle_alpha                90
_cell_angle_beta                 90
_cell_angle_gamma                120
_cell_volume                     4985.22
loop_
_atom_site_label
_atom_site_type_symbol
_atom_site_fract_x
_atom_site_fract_y
_atom_site_fract_z
Co1 Co 0.76990(46) 0.76802(43) 0.00000
N1 N 0.772190 0.749320 0.170270
N2 N 0.812600 0.728350 -0.106300
N3 N 0.802700 0.849780 -0.05884
N4 N 0.683540 0.740700 -0.03306
C1 C 0.730780 0.68133 0.18059
C2 C 0.803740 0.782020 0.274260
C3 C 0.88005 0.760090 -0.080450
C4 C 0.784350 0.669020 -0.154610
C5 C 0.785260 0.892630 -0.000110
C6 C 0.835290 0.867490 -0.168600
C7 C 0.648110 0.738140 0.067370
O1 O 0.700600 0.649410 0.084820
C8 C 0.798107 0.752543 0.394233
H1 H 0.831420 0.827860 0.264990
O2 O 0.907840 0.815680 -0.035170
C9 C 0.81804 0.636070 -0.181440
H2 H 0.738790 0.648550 -0.171280
O3 O 0.754720 0.877360 0.102730
C10 C 0.853390 0.926700 -0.229550
H3 H 0.846540 0.837790 -0.206470
H4 H 0.670440 0.755020 0.147150
F1 F 0.831217 0.787573 0.499343
F2 F 0.787530 0.575060 -0.231130
F3 F 0.886910 0.943460 -0.342430
C1E C 0.65200 0.716117 -0.15274
N4I N 0.723827 0.649793 0.30027
N2K N 0.915750 0.728350 -0.106300
N3J N 0.802700 0.952920 -0.05884
C8E C 0.580790 0.712231 0.060900
O1E O 0.683923 0.717857 -0.248513
N1E N 0.584013 0.689537 -0.163063
C7I C 0.756697 0.685223 0.400703
Co1I Co 0.66479(63) 0.56343(46) 0.33333
C4K C 0.884670 0.669020 -0.154610
Co1K Co 0.99812(63) 0.76802(43) 0.00000
C6J C 0.835290 0.967800 -0.168600
Co1J Co 0.76990(46) 1.00188(63) 0.00000
C2E C 0.551313 0.688387 -0.059073
F1E F 0.545760 0.710311 0.166010
Co1E Co 0.56531(43) 0.66855(63) -0.33333
H4I H 0.751247 0.662893 0.480483
H2K H 0.909760 0.648550 -0.171280
H3J H 0.846540 1.008750 -0.206470
N1J N 0.772190 1.022870 0.170270
N4J N 0.683540 0.942840 -0.03306
N2J N 0.812600 1.084250 -0.106300
H1E H 0.505473 0.670227 -0.068343
loop_
_geom_bond_atom_site_label_1
_geom_bond_atom_site_label_2
_geom_bond_site_symmetry_1
_geom_bond_site_symmetry_2
Co1 N1 1_555 1_555
N1 C1 1_555 1_555
N2 Co1 1_555 1_555
N3 Co1 1_555 1_555
N4 Co1 1_555 1_555
C1 O1 1_555 1_555
C2 N1 1_555 1_555
C3 N2 1_555 1_555
C4 N2 1_555 1_555
C5 N3 1_555 1_555
C6 N3 1_555 1_555
C7 N4 1_555 1_555
C8 C2 1_555 1_555
H1 C2 1_555 1_555
O2 C3 1_555 1_555
C9 C4 1_555 1_555
H2 C4 1_555 1_555
O3 C5 1_555 1_555
C10 C6 1_555 1_555
H3 C6 1_555 1_555
H4 C7 1_555 1_555
F1 C8 1_555 1_555
F2 C9 1_555 1_555
F3 C10 1_555 1_555
C1E N4 1_555 1_555
N4I C1 1_555 1_555
N2K C3 1_555 1_555
N3J C5 1_555 1_555
C8E C7 1_555 1_555
O1E C1E 1_555 1_555
N1E C1E 1_555 1_555
C7I C8 1_555 1_555
Co1I N4I 1_555 1_555
C4K C9 1_555 1_555
Co1K N2K 1_555 1_555
C6J C10 1_555 1_555
Co1J N3J 1_555 1_555
C2E C8E 1_555 1_555
F1E C8E 1_555 1_555
Co1E N1E 1_555 1_555
H4I C7I 1_555 1_555
H2K C4K 1_555 1_555
H3J C6J 1_555 1_555
N1J Co1J 1_555 1_555
N4J Co1J 1_555 1_555
N2J Co1J 1_555 1_555
H1E C2E 1_555 1_555
N4I C7I 1_555 1_555
N2K C4K 1_555 1_555
N3J C6J 1_555 1_555
N1E C2E 1_555 1_555

#END
