
#######################################################################
#
#                 Cambridge Crystallographic Data Centre
#                                CCDC 
#
#######################################################################
#
# If this CIF has been generated from an entry in the Cambridge 
# Structural Database, then it will include bibliographic, chemical, 
# crystal, experimental, refinement or atomic coordinate data resulting 
# from the CCDC's data processing and validation procedures.
#
#######################################################################

data_XOKHIP
_symmetry_cell_setting           orthorhombic
_symmetry_space_group_name_H-M   'P n a 21'
_symmetry_Int_Tables_number      33
_space_group_name_Hall           'P 2c -2n'
loop_
_symmetry_equiv_pos_site_id
_symmetry_equiv_pos_as_xyz
1 x,y,z
2 -x,-y,1/2+z
3 1/2-x,1/2+y,1/2+z
4 1/2+x,1/2-y,z
_cell_length_a                   14.4811(11)
_cell_length_b                   12.2069(9)
_cell_length_c                   28.550(2)
_cell_angle_alpha                90
_cell_angle_beta                 90
_cell_angle_gamma                90
_cell_volume                     5046.76
loop_
_atom_site_label
_atom_site_type_symbol
_atom_site_fract_x
_atom_site_fract_y
_atom_site_fract_z
Sm1 Sm 0.52570(4) -0.38782(4) 0.292250(16)
Sm2 Sm 0.50700(3) 0.38426(4) 0.394919(16)
Br1 Br 0.44253(11) -0.13268(12) 0.47529(5)
Br2 Br 0.20988(12) -0.35400(13) 0.54659(5)
Br3 Br 0.36670(9) -0.90657(9) 0.15405(4)
Br4 Br 0.47358(13) -0.66950(10) 0.09724(5)
Br5 Br 0.60881(9) 0.12382(10) 0.21612(4)
Zn1 Zn 0.72301(9) -0.17469(9) 0.23395(4)
Zn2 Zn 0.81074(9) 0.33154(10) 0.45094(4)
O1 O 0.5984(5) -0.2216(6) 0.3074(3)
O2 O 0.6942(5) -0.0862(5) 0.2896(3)
O3 O 0.7544(5) 0.1973(6) 0.4264(3)
O4 O 0.6124(5) 0.2683(6) 0.4366(3)
O5 O 0.4049(5) -0.3340(6) 0.3449(3)
O6 O 0.4141(5) -0.4573(6) 0.4016(3)
O7 O 0.1019(5) -0.0800(7) 0.3647(3)
O8 O 0.1084(5) -0.0128(6) 0.4367(2)
O9 O 0.4271(5) -0.5196(6) 0.2489(3)
O10 O 0.4310(5) -0.5774(6) 0.3218(2)
O11 O 0.1278(5) -0.8297(6) 0.3419(2)
O12 O 0.1168(5) -0.9576(6) 0.2847(3)
O13 O 0.5597(5) -0.3670(6) -0.0306(2)
O14 O 0.6164(6) -0.2186(6) 0.0047(2)
O15 O 0.6465(5) -0.2212(6) 0.1806(3)
O16 O 0.5950(6) -0.3686(6) 0.2184(2)
O17 O 0.4380(5) 0.2162(6) 0.3793(2)
O18 O 0.3428(5) 0.0770(6) 0.3970(3)
O19 O 0.2859(5) -0.1941(6) 0.2581(3)
O20 O 0.4213(5) -0.2720(6) 0.2484(2)
O21 O 0.7961(6) -0.0718(6) 0.1942(2)
O22 O 0.7381(6) 0.4296(7) 0.4921(3)
C1 C 0.6130(7) -0.0759(8) 0.3616(4)
C2 C 0.6534(8) 0.0270(8) 0.3729(4)
H1 H 0.6983 0.0583 0.3526
C3 C 0.6274(8) 0.0819(8) 0.4135(4)
C4 C 0.5627(8) 0.0336(9) 0.4430(4)
H2 H 0.5441 0.0709 0.4706
C5 C 0.5250(8) -0.0676(8) 0.4329(4)
C6 C 0.5494(7) -0.1231(7) 0.3915(4)
H3 H 0.5225 -0.1920 0.3842
C7 C 0.6376(7) -0.1337(8) 0.3166(3)
C8 C 0.6663(8) 0.1925(8) 0.4250(4)
C9 C 0.3050(6) -0.3208(8) 0.4114(4)
C10 C 0.2531(6) -0.2307(8) 0.3927(4)
H4 H 0.2605 -0.2070 0.3613
C11 C 0.1910(7) -0.1797(8) 0.4232(4)
C12 C 0.1777(8) -0.2141(10) 0.4690(4)
H5 H 0.1365 -0.1766 0.4893
C13 C 0.2259(8) -0.3037(10) 0.4838(4)
C14 C 0.2883(8) -0.3578(9) 0.4558(3)
H6 H 0.3196 -0.4207 0.4673
C15 C 0.1296(7) -0.0843(8) 0.4071(4)
C16 C 0.3818(7) -0.3760(9) 0.3839(3)
C17 C 0.3531(7) -0.6875(7) 0.2658(3)
C18 C 0.2843(7) -0.7346(8) 0.2930(4)
H7 H 0.2706 -0.7036 0.3228
C19 C 0.2354(8) -0.8246(8) 0.2784(3)
C20 C 0.2576(8) -0.8763(8) 0.2350(4)
H8 H 0.2244 -0.9386 0.2244
C21 C 0.3298(8) -0.8319(8) 0.2089(3)
C22 C 0.3724(7) -0.7340(8) 0.2226(3)
H9 H 0.4149 -0.6992 0.2021
C23 C 0.4052(7) -0.5891(8) 0.2798(3)
C24 C 0.1546(8) -0.8730(8) 0.3041(4)
C25 C 0.5681(8) -0.3687(9) 0.0515(4)
C26 C 0.5923(8) -0.3155(8) 0.0939(4)
H10 H 0.6155 -0.2427 0.0933
C27 C 0.5823(9) -0.3693(8) 0.1362(4)
C28 C 0.5448(8) -0.4753(9) 0.1379(4)
H11 H 0.5370 -0.5130 0.1667
C29 C 0.5194(9) -0.5230(8) 0.0952(5)
C30 C 0.5327(8) -0.4725(9) 0.0528(4)
H12 H 0.5174 -0.5094 0.0246
C31 C 0.5806(8) -0.3147(9) 0.0043(3)
C32 C 0.6085(7) -0.3175(9) 0.1828(4)
C33 C 0.4288(8) 0.0671(8) 0.3258(3)
C34 C 0.3853(7) -0.0278(9) 0.3136(3)
H13 H 0.3355 -0.0552 0.3318
C35 C 0.4158(7) -0.0846(8) 0.2735(4)
C36 C 0.4841(7) -0.0414(8) 0.2451(3)
H14 H 0.5055 -0.0799 0.2183
C37 C 0.5199(7) 0.0589(10) 0.2570(4)
C38 C 0.4952(8) 0.1148(8) 0.2977(4)
H15 H 0.5229 0.1828 0.3057
C39 C 0.4023(8) 0.1237(8) 0.3699(4)
C40 C 0.3712(7) -0.1918(8) 0.2585(3)
Sm1C Sm 0.02570(4) -1.11218(4) 0.292250(16)
Sm1C_2 Sm 0.02570(4) -0.11218(4) 0.292250(16)
Sm2_2 Sm 0.50700(3) -0.61574(4) 0.394919(16)
Sm2C Sm 0.00700(3) -0.88426(4) 0.394919(16)
Sm2C_2 Sm 0.00700(3) 0.11574(4) 0.394919(16)
Sm2A Sm 0.49300(3) -0.38426(4) -0.105081(16)
Zn1C Zn 0.22301(9) -0.32531(9) 0.23395(4)
Zn2B Zn 0.68926(9) -0.16846(10) -0.04906(4)
Zn2C Zn 0.31074(9) 0.16846(10) 0.45094(4)
O6_2 O 0.4141(5) 0.5427(6) 0.4016(3)
O7C O 0.6019(5) -0.4200(7) 0.3647(3)
O7C_2 O 0.6019(5) 0.5800(7) 0.3647(3)
O8C O 0.6084(5) 0.5128(6) 0.4367(2)
O10_2 O 0.4310(5) 0.4226(6) 0.3218(2)
O11C O 0.6278(5) 0.3297(6) 0.3419(2)
O12C O 0.6168(5) -0.5424(6) 0.2847(3)
O13A O 0.4403(5) 0.3670(6) 0.4694(2)
O14B O 0.8836(6) 0.2814(6) 0.5047(2)
O18C O 0.8428(5) 0.4230(6) 0.3970(3)
O19C O 0.7859(5) -0.3059(6) 0.2581(3)
loop_
_geom_bond_atom_site_label_1
_geom_bond_atom_site_label_2
_geom_bond_site_symmetry_1
_geom_bond_site_symmetry_2
Sm1 O1 1_555 1_555
Sm2 O4 1_555 1_555
Br1 C5 1_555 1_555
Br2 C13 1_555 1_555
Br3 C21 1_555 1_555
Br4 C29 1_555 1_555
Br5 C37 1_555 1_555
Zn1 O2 1_555 1_555
Zn2 O3 1_555 1_555
O1 C7 1_555 1_555
O2 C7 1_555 1_555
O3 C8 1_555 1_555
O4 C8 1_555 1_555
O5 Sm1 1_555 1_555
O6 C16 1_555 1_555
O7 C15 1_555 1_555
O8 C15 1_555 1_555
O9 Sm1 1_555 1_555
O10 Sm1 1_555 1_555
O11 C24 1_555 1_555
O12 C24 1_555 1_555
O13 C31 1_555 1_555
O14 C31 1_555 1_555
O15 Zn1 1_555 1_555
O16 Sm1 1_555 1_555
O17 Sm2 1_555 1_555
O18 C39 1_555 1_555
O19 C40 1_555 1_555
O20 Sm1 1_555 1_555
O21 Zn1 1_555 1_555
O22 Zn2 1_555 1_555
C1 C2 1_555 1_555
C2 H1 1_555 1_555
C3 C2 1_555 1_555
C4 C3 1_555 1_555
H2 C4 1_555 1_555
C5 C4 1_555 1_555
C6 C1 1_555 1_555
H3 C6 1_555 1_555
C7 C1 1_555 1_555
C8 C3 1_555 1_555
C9 C10 1_555 1_555
C10 H4 1_555 1_555
C11 C10 1_555 1_555
C12 C11 1_555 1_555
H5 C12 1_555 1_555
C13 C12 1_555 1_555
C14 C9 1_555 1_555
H6 C14 1_555 1_555
C15 C11 1_555 1_555
C16 O5 1_555 1_555
C17 C18 1_555 1_555
C18 H7 1_555 1_555
C19 C18 1_555 1_555
C20 C19 1_555 1_555
H8 C20 1_555 1_555
C21 C20 1_555 1_555
C22 C17 1_555 1_555
H9 C22 1_555 1_555
C23 O9 1_555 1_555
C24 C19 1_555 1_555
C25 C26 1_555 1_555
C26 H10 1_555 1_555
C27 C26 1_555 1_555
C28 C27 1_555 1_555
H11 C28 1_555 1_555
C29 C28 1_555 1_555
C30 C25 1_555 1_555
H12 C30 1_555 1_555
C31 C25 1_555 1_555
C32 O15 1_555 1_555
C33 C34 1_555 1_555
C34 H13 1_555 1_555
C35 C34 1_555 1_555
C36 C35 1_555 1_555
H14 C36 1_555 1_555
C37 C36 1_555 1_555
C38 C33 1_555 1_555
H15 C38 1_555 1_555
C39 O17 1_555 1_555
C40 O20 1_555 1_555
Sm1C O12 1_555 1_555
Sm1C_2 O7 1_555 1_555
Sm2_2 O6 1_555 1_555
Sm2C O11 1_555 1_555
Sm2C_2 O7 1_555 1_555
Sm2A O13 1_555 1_555
Zn1C O19 1_555 1_555
Zn2B O14 1_555 1_555
Zn2C O18 1_555 1_555
O6_2 Sm2 1_555 1_555
O7C Sm1 1_555 1_555
O7C_2 Sm2 1_555 1_555
O8C Sm2 1_555 1_555
O10_2 Sm2 1_555 1_555
O11C Sm2 1_555 1_555
O12C Sm1 1_555 1_555
O13A Sm2 1_555 1_555
O14B Zn2 1_555 1_555
O18C Zn2 1_555 1_555
O19C Zn1 1_555 1_555
O8 Sm2C_2 1_555 1_555
O10 C23 1_555 1_555
O10 Sm2_2 1_555 1_555
O16 C32 1_555 1_555
C5 C6 1_555 1_555
C9 C16 1_555 1_555
C13 C14 1_555 1_555
C17 C23 1_555 1_555
C21 C22 1_555 1_555
C27 C32 1_555 1_555
C29 C30 1_555 1_555
C33 C39 1_555 1_555
C35 C40 1_555 1_555
C37 C38 1_555 1_555
Sm2_2 O7C 1_555 1_555

#END
