
#######################################################################
#
#                 Cambridge Crystallographic Data Centre
#                                CCDC 
#
#######################################################################
#
# If this CIF has been generated from an entry in the Cambridge 
# Structural Database, then it will include bibliographic, chemical, 
# crystal, experimental, refinement or atomic coordinate data resulting 
# from the CCDC's data processing and validation procedures.
#
#######################################################################

data_XOVYUD
_symmetry_cell_setting           orthorhombic
_symmetry_space_group_name_H-M   'P 21 21 21'
_symmetry_Int_Tables_number      19
_space_group_name_Hall           'P 2ac 2ab'
loop_
_symmetry_equiv_pos_site_id
_symmetry_equiv_pos_as_xyz
1 x,y,z
2 1/2-x,-y,1/2+z
3 -x,1/2+y,1/2-z
4 1/2+x,1/2-y,-z
_cell_length_a                   7.0360(7)
_cell_length_b                   15.8921(16)
_cell_length_c                   26.561(3)
_cell_angle_alpha                90
_cell_angle_beta                 90
_cell_angle_gamma                90
_cell_volume                     2969.97
loop_
_atom_site_label
_atom_site_type_symbol
_atom_site_fract_x
_atom_site_fract_y
_atom_site_fract_z
Cd1 Cd 0.40698(9) 0.48019(4) 0.01432(2)
Cd2 Cd 0.65304(8) 0.24602(4) 0.00230(2)
Cd3 Cd -0.27660(9) 0.49149(4) 0.11341(2)
Cl1 Cl 0.4067(4) 0.5622(3) -0.06915(13)
Cl2 Cl 0.4180(4) 0.34769(17) -0.04191(13)
P1 P -0.0936(3) 0.44044(11) 0.00001(8)
P2 P 0.4034(3) 0.32828(13) 0.09905(8)
O1 O 0.0889(9) 0.4704(4) 0.0230(2)
O2 O -0.1044(8) 0.3451(3) -0.0071(2)
O3 O -0.2684(8) 0.4740(3) 0.0283(2)
O4 O 0.1214(12) 0.8728(4) -0.1054(3)
O5 O -0.1210(13) 0.9002(5) -0.0560(4)
O6 O 0.4408(9) 0.4224(3) 0.0936(2)
O7 O 0.2190(8) 0.3020(4) 0.0744(2)
O8 O 0.5747(9) 0.2755(4) 0.0827(2)
O9 O 0.3435(10) -0.0166(5) 0.3046(3)
O10 O 0.1828(19) -0.0637(8) 0.2396(5)
O11 O -0.1173(10) 0.3584(4) 0.1187(3)
H1 H -0.0012 0.3661 0.1263
H2 H -0.1701 0.3287 0.1414
O12 O 0.0265(12) 0.5415(6) 0.1202(3)
H3 H 0.0240 0.5949 0.1194
H4 H 0.0742 0.5251 0.1479
N1 N -0.0350(10) 0.5777(4) -0.0647(3)
H13 H 0.0934 0.5766 -0.0605
N2 N 0.3810(11) 0.2288(4) 0.1869(3)
H14 H 0.4977 0.2078 0.1792
C1 C -0.1021(13) 0.4885(5) -0.0622(3)
H15 H -0.0253 0.4550 -0.0849
H16 H -0.2322 0.4864 -0.0743
C2 C -0.1130(14) 0.6333(5) -0.0245(3)
H17 H -0.0805 0.6107 0.0083
H18 H -0.2504 0.6353 -0.0271
C3 C -0.0340(13) 0.7201(5) -0.0295(3)
H19 H 0.1027 0.7182 -0.0251
H20 H -0.0864 0.7555 -0.0032
C4 C -0.0800(14) 0.7586(5) -0.0807(4)
H21 H -0.2185 0.7565 -0.0844
C5 C 0.0013(17) 0.7022(5) -0.1210(4)
H22 H 0.1388 0.7019 -0.1185
H23 H -0.0325 0.7241 -0.1539
C6 C -0.0723(18) 0.6133(6) -0.1160(4)
H24 H -0.2080 0.6128 -0.1224
H25 H -0.0117 0.5780 -0.1411
C7 C -0.0236(15) 0.8533(6) -0.0812(4)
C8 C 0.3712(14) 0.3170(6) 0.1670(3)
H26 H 0.4678 0.3503 0.1838
H27 H 0.2486 0.3405 0.1760
C9 C 0.363(2) 0.2300(7) 0.2435(4)
H28 H 0.2396 0.2517 0.2529
H29 H 0.4593 0.2670 0.2576
C10 C 0.388(2) 0.1419(6) 0.2651(4)
H30 H 0.5142 0.1211 0.2571
H31 H 0.3754 0.1438 0.3014
C11 C 0.2400(17) 0.0828(6) 0.2433(4)
H32 H 0.1142 0.1031 0.2534
C12 C 0.2495(17) 0.0834(6) 0.1869(4)
H33 H 0.1478 0.0485 0.1737
H34 H 0.3691 0.0586 0.1764
C13 C 0.2333(15) 0.1707(6) 0.1641(4)
H35 H 0.2519 0.1675 0.1280
H36 H 0.1072 0.1931 0.1703
C14 C 0.2658(19) -0.0068(7) 0.2643(4)
Cd1_2 Cd -0.59302(9) 0.48019(4) 0.01432(2)
Cd1C Cd -0.09302(9) 1.01981(4) -0.01432(2)
Cd2C Cd 0.15304(8) 0.25398(4) -0.00230(2)
Cd2_2 Cd -0.34696(8) 0.24602(4) 0.00230(2)
Cd3C Cd 0.22340(9) 1.00851(4) -0.11341(2)
Cd3_2 Cd 0.72340(9) 0.49149(4) 0.11341(2)
Cd3B Cd 0.27660(9) -0.00851(4) 0.38659(2)
Cl2C Cl 0.9180(4) 0.15231(17) 0.04191(13)
O2C O 0.3956(8) 0.1549(3) 0.0071(2)
O2_2 O 0.8956(8) 0.3451(3) -0.0071(2)
O3_2 O 0.7316(8) 0.4740(3) 0.0283(2)
O4C O -0.3786(12) 0.6272(4) 0.1054(3)
O5C O 0.3790(13) 0.5998(5) 0.0560(4)
O6_2 O -0.5592(9) 0.4224(3) 0.0936(2)
O7C O 0.7190(8) 0.1980(4) -0.0744(2)
O9B O -0.3435(10) 0.4834(5) 0.1954(3)
O13 O 0.2489(18) 0.5081(9) 0.2018(5)
H5 H 0.2719 0.4619 0.2168
H6 H 0.3166 0.5469 0.2146
O14 O 0.729(2) 0.1407(10) 0.1584(6)
H7 H 0.8340 0.1661 0.1537
H8 H 0.6861 0.1530 0.1874
O15 O 0.778(2) 0.9762(13) 0.1988(7)
H9 H 0.6834 1.0026 0.1869
H10 H 0.7765 0.9793 0.2308
O16 O 0.149(3) 0.7791(12) 0.2701(7)
H11 H 0.1476 0.8307 0.2618
H12 H 0.0408 0.7652 0.2816
loop_
_geom_bond_atom_site_label_1
_geom_bond_atom_site_label_2
_geom_bond_site_symmetry_1
_geom_bond_site_symmetry_2
Cd1 Cl1 1_555 1_555
Cd2 Cl2 1_555 1_555
Cd3 O3 1_555 1_555
Cl2 Cd1 1_555 1_555
P1 O1 1_555 1_555
P2 O6 1_555 1_555
O1 Cd1 1_555 1_555
O2 P1 1_555 1_555
O3 P1 1_555 1_555
O4 C7 1_555 1_555
O5 C7 1_555 1_555
O6 Cd1 1_555 1_555
O7 P2 1_555 1_555
O8 Cd2 1_555 1_555
O9 C14 1_555 1_555
O10 C14 1_555 1_555
O11 Cd3 1_555 1_555
H1 O11 1_555 1_555
H2 O11 1_555 1_555
O12 Cd3 1_555 1_555
H3 O12 1_555 1_555
H4 O12 1_555 1_555
O13 H5 1_555 1_555
H6 O13 1_555 1_555
O14 H7 1_555 1_555
H8 O14 1_555 1_555
O15 H9 1_555 1_555
H10 O15 1_555 1_555
O16 H11 1_555 1_555
H12 O16 1_555 1_555
N1 H13 1_555 1_555
N2 H14 1_555 1_555
C1 P1 1_555 1_555
H15 C1 1_555 1_555
H16 C1 1_555 1_555
C2 N1 1_555 1_555
H17 C2 1_555 1_555
H18 C2 1_555 1_555
C3 C2 1_555 1_555
H19 C3 1_555 1_555
H20 C3 1_555 1_555
C4 C3 1_555 1_555
H21 C4 1_555 1_555
C5 C4 1_555 1_555
H22 C5 1_555 1_555
H23 C5 1_555 1_555
C6 N1 1_555 1_555
H24 C6 1_555 1_555
H25 C6 1_555 1_555
C7 C4 1_555 1_555
C8 P2 1_555 1_555
H26 C8 1_555 1_555
H27 C8 1_555 1_555
C9 N2 1_555 1_555
H28 C9 1_555 1_555
H29 C9 1_555 1_555
C10 C9 1_555 1_555
H30 C10 1_555 1_555
H31 C10 1_555 1_555
C11 C10 1_555 1_555
H32 C11 1_555 1_555
C12 C11 1_555 1_555
H33 C12 1_555 1_555
H34 C12 1_555 1_555
C13 N2 1_555 1_555
H35 C13 1_555 1_555
H36 C13 1_555 1_555
C14 C11 1_555 1_555
Cd1_2 O3 1_555 1_555
Cd1C O5 1_555 1_555
Cd2C Cl2 1_555 1_555
Cd2_2 O2 1_555 1_555
Cd3C O4 1_555 1_555
Cd3_2 O6 1_555 1_555
Cd3B O9 1_555 1_555
Cl2C Cd2 1_555 1_555
O2C Cd2 1_555 1_555
O2_2 Cd2 1_555 1_555
O3_2 Cd1 1_555 1_555
O4C Cd3 1_555 1_555
O5C Cd1 1_555 1_555
O6_2 Cd3 1_555 1_555
O7C Cd2 1_555 1_555
O9B Cd3 1_555 1_555
P2 O8 1_555 1_555
O2 Cd2C 1_555 1_555
O7 Cd2C 1_555 1_555
N1 C1 1_555 1_555
N2 C8 1_555 1_555
C5 C6 1_555 1_555
C12 C13 1_555 1_555
Cd1_2 O6_2 1_555 1_555
Cd2C O2C 1_555 1_555
Cd3_2 O3_2 1_555 1_555

#END
