
#######################################################################
#
#                 Cambridge Crystallographic Data Centre
#                                CCDC 
#
#######################################################################
#
# If this CIF has been generated from an entry in the Cambridge 
# Structural Database, then it will include bibliographic, chemical, 
# crystal, experimental, refinement or atomic coordinate data resulting 
# from the CCDC's data processing and validation procedures.
#
#######################################################################

data_XOXMED
_symmetry_cell_setting           monoclinic
_symmetry_space_group_name_H-M   'P 21/c'
_symmetry_Int_Tables_number      14
_space_group_name_Hall           '-P 2ybc'
loop_
_symmetry_equiv_pos_site_id
_symmetry_equiv_pos_as_xyz
1 x,y,z
2 -x,1/2+y,1/2-z
3 -x,-y,-z
4 x,1/2-y,1/2+z
_cell_length_a                   23.275(4)
_cell_length_b                   25.486(4)
_cell_length_c                   49.521(7)
_cell_angle_alpha                90
_cell_angle_beta                 117.409(6)
_cell_angle_gamma                90
_cell_volume                     26077.6
loop_
_atom_site_label
_atom_site_type_symbol
_atom_site_fract_x
_atom_site_fract_y
_atom_site_fract_z
O29 O 0.2664(6) 0.7164(5) 0.84735(19)
C1 C -0.1006(6) 0.9054(4) 0.8651(3)
H1 H -0.1419 0.9214 0.8614
H2 H -0.0815 0.8878 0.8850
H3 H -0.1079 0.8796 0.8492
C2 C -0.1383(4) 0.9945(4) 0.81897(19)
H4 H -0.1725 0.9856 0.8248
H5 H -0.1576 0.9935 0.7965
C3 C -0.1101(4) 1.0561(3) 0.8315(2)
H6 H -0.0761 1.0543 0.8527
H7 H -0.1456 1.0781 0.8303
H8 H -0.0922 1.0712 0.8188
C4 C -0.0539(7) 0.9483(4) 0.8650(3)
H9 H -0.0558 0.9807 0.8757
H10 H -0.0087 0.9359 0.8733
C5 C 0.0281(3) 0.97343(17) 0.76943(9)
H11 H 0.0658 0.9610 0.7687
C6 C 0.0528(5) 1.0555(3) 0.7513(2)
H12 H 0.0879 1.0701 0.7702
H13 H 0.0732 1.0300 0.7433
C7 C 0.0307(5) 1.0941(4) 0.73163(15)
H14 H 0.0656 1.1192 0.7357
H15 H -0.0046 1.1118 0.7336
H16 H 0.0145 1.0801 0.7110
C8 C -0.0450(9) 1.0544(4) 0.7670(4)
H17 H -0.0312 1.0904 0.7651
H18 H -0.0808 1.0474 0.7465
C9 C -0.0754(7) 1.0668(7) 0.7758(5)
H19 H -0.1118 1.0864 0.7602
H20 H -0.0514 1.0896 0.7934
H21 H -0.0919 1.0363 0.7821
C10 C 0.2253(3) 0.8094(2) 0.90116(13)
C11 C 0.2824(3) 0.7931(2) 0.92961(13)
C12 C 0.3057(3) 0.8299(2) 0.95545(12)
H22 H 0.2844 0.8624 0.9538
C13 C 0.3582(3) 0.8164(3) 0.98162(14)
C14 C 0.3859(3) 0.7670(3) 0.98570(15)
C15 C 0.3656(4) 0.7329(3) 0.96281(18)
C16 C 0.3107(3) 0.7425(2) 0.93632(17)
H23 H 0.2912 0.7148 0.9222
C17 C 0.3894(3) 0.8637(3) 1.00443(13)
H24 H 0.3588 0.8931 0.9984
H25 H 0.4292 0.8750 1.0039
H26 H 0.3997 0.8525 1.0251
C18 C 0.3943(4) 0.6739(3) 0.96127(17)
H27 H 0.4407 0.6766 0.9674
H28 H 0.3716 0.6604 0.9405
H29 H 0.3877 0.6501 0.9751
C19 C 0.5002(4) 0.7667(3) 1.02032(15)
C20 C 0.5545(3) 0.7583(3) 1.05082(13)
C21 C 0.5390(3) 0.7352(2) 1.07407(16)
C22 C 0.4793(4) 0.7212(3) 1.06550(16)
C23 C 0.4210(4) 0.7297(4) 1.0344(2)
C24 C 0.6142(3) 0.7739(3) 1.05739(11)
H30 H 0.6234 0.7886 1.0421
C25 C 0.6637(3) 0.7682(2) 1.08773(10)
H31 H 0.7064 0.7798 1.0930
C26 C 0.6503(3) 0.7464(2) 1.10932(12)
C27 C 0.5888(3) 0.7286(2) 1.10316(13)
C28 C 0.5751(3) 0.7074(2) 1.12543(14)
C29 C 0.5152(3) 0.6900(2) 1.11936(14)
H32 H 0.5051 0.6746 1.1342
C30 C 0.4664(3) 0.6978(3) 1.0865(2)
H33 H 0.4237 0.6853 1.0802
C31 C 0.7015(3) 0.7415(2) 1.14091(12)
C32 C 0.6298(3) 0.6994(2) 1.15758(15)
C33 C 0.7442(2) 0.71108(19) 1.19275(9)
C34 C 0.7583(2) 0.75040(19) 1.21382(11)
C35 C 0.8191(2) 0.74116(18) 1.24194(9)
H34 H 0.8323 0.7661 1.2579
C36 C 0.8558(2) 0.69938(16) 1.24566(9)
C37 C 0.8368(2) 0.65996(17) 1.22532(9)
H35 H 0.8615 0.6287 1.2294
C38 C 0.7767(2) 0.66628(18) 1.19661(10)
C39 C 0.7217(2) 0.80040(16) 1.20849(10)
H36 H 0.7109 0.8137 1.1881
H37 H 0.7483 0.8263 1.2238
H38 H 0.6818 0.7942 1.2101
C40 C 0.7550(2) 0.62076(16) 1.17333(10)
H39 H 0.7106 0.6106 1.1683
H40 H 0.7839 0.5907 1.1821
H41 H 0.7567 0.6322 1.1548
C41 C 0.1144(2) 0.82209(18) 0.77512(8)
C42 C 0.1162(2) 0.81571(17) 0.74487(10)
C43 C 0.1266(2) 0.76403(17) 0.73734(9)
H42 H 0.1374 0.7362 0.7516
C44 C 0.1201(2) 0.75490(18) 0.70707(10)
C45 C 0.1059(2) 0.79908(18) 0.68780(9)
C46 C 0.0985(2) 0.84855(18) 0.69688(10)
C47 C 0.1053(2) 0.85765(15) 0.72563(8)
H43 H 0.1024 0.8923 0.7320
C48 C 0.1213(3) 0.69783(17) 0.69719(10)
H44 H 0.0769 0.6847 0.6860
H45 H 0.1454 0.6760 0.7152
H46 H 0.1424 0.6965 0.6840
C49 C 0.0882(2) 0.89525(15) 0.67463(9)
H47 H 0.1288 0.9025 0.6739
H48 H 0.0749 0.9265 0.6818
H49 H 0.0546 0.8860 0.6542
C50 C 0.0359(4) 0.7727(2) 0.63699(12)
C51 C 0.0216(3) 0.76778(16) 0.60419(10)
C52 C 0.0704(3) 0.7805(2) 0.59638(12)
C53 C 0.1322(4) 0.7948(3) 0.61771(11)
C54 C 0.1452(4) 0.8005(2) 0.65095(12)
C55 C -0.0409(3) 0.75380(18) 0.58215(11)
H50 H -0.0744 0.7491 0.5878
C56 C -0.0537(3) 0.7470(2) 0.55245(11)
H51 H -0.0956 0.7369 0.5374
C57 C -0.0059(3) 0.7549(2) 0.54507(11)
C58 C 0.0581(3) 0.7734(2) 0.56550(11)
C59 C 0.1075(4) 0.7844(2) 0.55803(15)
C60 C 0.1664(3) 0.8056(3) 0.57799(14)
H52 H 0.1966 0.8178 0.5715
C61 C 0.1796(3) 0.8084(3) 0.61003(12)
H53 H 0.2208 0.8195 0.6253
C62 C -0.0175(4) 0.7477(3) 0.51216(13)
C63 C 0.0933(4) 0.7804(3) 0.52596(12)
C64 C 0.0246(3) 0.7370(3) 0.47562(11)
C65 C -0.0007(3) 0.7752(2) 0.45230(12)
C66 C -0.0004(3) 0.75913(19) 0.42418(10)
H54 H -0.0131 0.7832 0.4078
C67 C 0.0181(3) 0.70935(19) 0.42133(9)
C68 C 0.0408(3) 0.67528(19) 0.44573(11)
H55 H 0.0583 0.6425 0.4440
C69 C 0.0387(3) 0.6872(2) 0.47266(12)
C70 C -0.0203(3) 0.8319(2) 0.45429(12)
H56 H -0.0503 0.8323 0.4631
H57 H -0.0415 0.8473 0.4339
H58 H 0.0183 0.8524 0.4672
C71 C 0.0593(3) 0.6477(2) 0.49723(12)
H59 H 0.0519 0.6124 0.4884
H60 H 0.0341 0.6523 0.5084
H61 H 0.1054 0.6523 0.5112
C72 C 0.0849(3) 0.68375(18) 0.83723(10)
C73 C 0.0961(3) 0.62657(18) 0.84241(9)
C74 C 0.1407(3) 0.60104(17) 0.83787(10)
H62 H 0.1669 0.6215 0.8318
C75 C 0.1532(3) 0.54559(19) 0.84125(12)
C76 C 0.1128(4) 0.51925(17) 0.84824(10)
C77 C 0.0658(3) 0.54070(18) 0.85449(10)
C78 C 0.0591(3) 0.59733(16) 0.85078(8)
H63 H 0.0271 0.6144 0.8544
C79 C 0.2014(3) 0.51864(18) 0.83476(15)
H64 H 0.2270 0.5447 0.8304
H65 H 0.1792 0.4956 0.8171
H66 H 0.2301 0.4976 0.8524
C80 C 0.0206(3) 0.5111(2) 0.86420(13)
H67 H -0.0085 0.4884 0.8475
H68 H -0.0049 0.5364 0.8691
H69 H 0.0466 0.4896 0.8821
C81 C 0.0766(3) 0.43552(15) 0.82103(9)
C82 C 0.0783(2) 0.37766(13) 0.82100(8)
C83 C 0.1136(2) 0.35073(14) 0.84889(8)
C84 C 0.1495(3) 0.37867(15) 0.87661(10)
C85 C 0.1489(3) 0.43615(16) 0.87695(10)
C86 C 0.0469(2) 0.35021(14) 0.79519(9)
H70 H 0.0230 0.3684 0.7766
C87 C 0.0486(2) 0.29468(13) 0.79510(8)
H71 H 0.0267 0.2758 0.7766
C88 C 0.0813(2) 0.26911(13) 0.82140(8)
C89 C 0.1167(2) 0.29588(14) 0.84768(8)
C90 C 0.1527(2) 0.26770(14) 0.87633(8)
C91 C 0.1883(2) 0.29610(15) 0.90313(8)
H72 H 0.2154 0.2783 0.9215
C92 C 0.1838(3) 0.35106(16) 0.90274(8)
H73 H 0.2055 0.3697 0.9214
C93 C 0.0762(2) 0.21176(14) 0.82081(9)
C94 C 0.1543(2) 0.21099(15) 0.87622(9)
C95 C 0.1168(2) 0.12756(14) 0.85048(9)
C96 C 0.1837(3) 0.12693(19) 0.82216(13)
H74 H 0.1714 0.1107 0.8023
H75 H 0.2304 0.1231 0.8350
H76 H 0.1723 0.1643 0.8194
C97 C 0.1436(3) 0.04540(17) 0.83722(9)
H77 H 0.1618 0.0253 0.8269
C98 C 0.0489(2) 0.13446(16) 0.87756(10)
H78 H 0.0796 0.1571 0.8938
H79 H 0.0282 0.1105 0.8859
H80 H 0.0158 0.1562 0.8617
C99 C 0.0851(2) 0.04875(15) 0.86404(8)
H81 H 0.0633 0.0312 0.8736
C100 C 0.0845(2) 0.10319(16) 0.86413(8)
C101 C 0.1477(2) 0.09991(17) 0.83742(9)
C102 C 0.1130(2) 0.02009(14) 0.85192(9)
C103 C 0.1159(3) -0.03814(15) 0.85437(10)
C104 C 0.9200(3) 0.69415(18) 1.27401(10)
C105 C 0.0254(3) 0.6948(2) 0.39297(11)
C106 C -0.0678(4) 0.9320(3) 0.81536(17)
H82 H -0.0915 0.9382 0.7941
N1 N 0.4396(3) 0.7521(2) 1.01446(12)
N2 N 0.6874(2) 0.71939(15) 1.16267(9)
N3 N 0.0954(3) 0.79030(16) 0.65730(9)
N4 N 0.0329(3) 0.75756(18) 0.50526(9)
N5 N 0.1138(2) 0.46158(11) 0.84867(7)
N6 N 0.11772(18) 0.18513(10) 0.84922(7)
N7 N 0.0101(3) 1.02583(17) 0.75992(9)
N8 N -0.0846(3) 0.9546(3) 0.83234(12)
O1 O 0.07715(14) 0.82393(8) 0.83584(5)
O2 O 0.21367(19) 0.77939(14) 0.87709(10)
O3 O 0.19324(16) 0.84840(11) 0.90052(6)
O4 O 0.5107(2) 0.7842(2) 0.99960(9)
O5 O 0.3642(3) 0.7190(2) 1.02821(11)
O6 O 0.7585(2) 0.75738(13) 1.14867(7)
O7 O 0.6188(2) 0.67940(18) 1.17604(9)
O8 O 0.14228(17) 0.78638(10) 0.79513(6)
O9 O 0.08949(14) 0.86413(10) 0.77848(5)
O10 O -0.0053(2) 0.76186(13) 0.64452(7)
O11 O 0.1985(2) 0.81379(18) 0.66979(8)
O12 O -0.0714(2) 0.73121(16) 0.49225(7)
O13 O 0.1310(2) 0.7844(2) 0.51744(8)
O14 O 0.0362(2) 0.70471(11) 0.83753(7)
O15 O 0.12872(17) 0.70854(12) 0.83406(6)
O16 O 0.1825(2) 0.46277(11) 0.89929(6)
O17 O 0.04164(17) 0.46106(9) 0.79768(6)
O18 O 0.18852(15) 0.18467(10) 0.89913(6)
O19 O 0.04306(14) 0.18521(9) 0.79856(5)
O20 O -0.00315(15) 0.72253(10) 0.37015(6)
O21 O 0.06110(17) 0.65453(12) 0.39561(6)
O22 O 0.96052(15) 0.66248(12) 1.27306(5)
O23 O 0.92815(13) 0.72125(10) 1.29784(6)
O24 O 0.12051(18) -0.06428(10) 0.83308(7)
O25 O 0.10663(16) -0.05915(10) 0.87448(6)
O26 O 0.00118(19) 0.94235(13) 0.77850(8)
O27 O -0.01867(18) 0.89957(12) 0.82515(6)
O28 O 0.2215(3) 0.8499(4) 0.84169(13)
Zn1 Zn 0.14907(3) 0.784155(17) 0.835574(9)
Zn2 Zn 0.03948(3) 0.877623(16) 0.801955(9)
Zn3 Zn 0.01174(3) 0.777221(17) 0.833943(9)
Zn4 Zn 0.10521(3) 0.865290(16) 0.872418(9)
O20C O -0.00315(15) 0.77747(10) 0.87015(6)
O21C O 0.06110(17) 0.84547(12) 0.89561(6)
O22C O -0.03948(15) 0.83752(12) 0.77306(5)
O23C O -0.07185(13) 0.77875(10) 0.79784(6)
O24_2 O 0.12051(18) 0.93572(10) 0.83308(7)
O25_2 O 0.10663(16) 0.94085(10) 0.87448(6)
Zn2C Zn 1.03948(3) 0.622377(16) 1.301955(9)
Zn2_2 Zn 0.03948(3) -0.122377(16) 0.801955(9)
Zn3C Zn 0.01174(3) 0.722779(17) 0.333943(9)
Zn3C_2 Zn 1.01174(3) 0.722779(17) 1.333943(9)
Zn4C Zn 0.10521(3) 0.634710(16) 0.372418(9)
Zn4_2 Zn 0.10521(3) -0.134710(16) 0.872418(9)
loop_
_geom_bond_atom_site_label_1
_geom_bond_atom_site_label_2
_geom_bond_site_symmetry_1
_geom_bond_site_symmetry_2
C1 H1 1_555 1_555
H2 C1 1_555 1_555
H3 C1 1_555 1_555
C2 H4 1_555 1_555
H5 C2 1_555 1_555
C3 C2 1_555 1_555
H6 C3 1_555 1_555
H7 C3 1_555 1_555
H8 C3 1_555 1_555
C4 C1 1_555 1_555
H9 C4 1_555 1_555
H10 C4 1_555 1_555
C5 H11 1_555 1_555
C6 H12 1_555 1_555
H13 C6 1_555 1_555
C7 C6 1_555 1_555
H14 C7 1_555 1_555
H15 C7 1_555 1_555
H16 C7 1_555 1_555
C8 H17 1_555 1_555
H18 C8 1_555 1_555
C9 C8 1_555 1_555
H19 C9 1_555 1_555
H20 C9 1_555 1_555
H21 C9 1_555 1_555
C10 C11 1_555 1_555
C11 C12 1_555 1_555
C12 H22 1_555 1_555
C13 C12 1_555 1_555
C14 C13 1_555 1_555
C15 C14 1_555 1_555
C16 C11 1_555 1_555
H23 C16 1_555 1_555
C17 C13 1_555 1_555
H24 C17 1_555 1_555
H25 C17 1_555 1_555
H26 C17 1_555 1_555
C18 C15 1_555 1_555
H27 C18 1_555 1_555
H28 C18 1_555 1_555
H29 C18 1_555 1_555
C19 C20 1_555 1_555
C20 C21 1_555 1_555
C21 C22 1_555 1_555
C22 C23 1_555 1_555
C23 N1 1_555 1_555
C24 C20 1_555 1_555
H30 C24 1_555 1_555
C25 C24 1_555 1_555
H31 C25 1_555 1_555
C26 C25 1_555 1_555
C27 C21 1_555 1_555
C28 C27 1_555 1_555
C29 C28 1_555 1_555
H32 C29 1_555 1_555
C30 C22 1_555 1_555
H33 C30 1_555 1_555
C31 C26 1_555 1_555
C32 C28 1_555 1_555
C33 C34 1_555 1_555
C34 C35 1_555 1_555
C35 H34 1_555 1_555
C36 C35 1_555 1_555
C37 C36 1_555 1_555
H35 C37 1_555 1_555
C38 C33 1_555 1_555
C39 C34 1_555 1_555
H36 C39 1_555 1_555
H37 C39 1_555 1_555
H38 C39 1_555 1_555
C40 C38 1_555 1_555
H39 C40 1_555 1_555
H40 C40 1_555 1_555
H41 C40 1_555 1_555
C41 C42 1_555 1_555
C42 C43 1_555 1_555
C43 H42 1_555 1_555
C44 C43 1_555 1_555
C45 C44 1_555 1_555
C46 C45 1_555 1_555
C47 C42 1_555 1_555
H43 C47 1_555 1_555
C48 C44 1_555 1_555
H44 C48 1_555 1_555
H45 C48 1_555 1_555
H46 C48 1_555 1_555
C49 C46 1_555 1_555
H47 C49 1_555 1_555
H48 C49 1_555 1_555
H49 C49 1_555 1_555
C50 C51 1_555 1_555
C51 C52 1_555 1_555
C52 C53 1_555 1_555
C53 C54 1_555 1_555
C54 N3 1_555 1_555
C55 C51 1_555 1_555
H50 C55 1_555 1_555
C56 C55 1_555 1_555
H51 C56 1_555 1_555
C57 C56 1_555 1_555
C58 C52 1_555 1_555
C59 C58 1_555 1_555
C60 C59 1_555 1_555
H52 C60 1_555 1_555
C61 C53 1_555 1_555
H53 C61 1_555 1_555
C62 C57 1_555 1_555
C63 C59 1_555 1_555
C64 C65 1_555 1_555
C65 C66 1_555 1_555
C66 H54 1_555 1_555
C67 C66 1_555 1_555
C68 C67 1_555 1_555
H55 C68 1_555 1_555
C69 C64 1_555 1_555
C70 C65 1_555 1_555
H56 C70 1_555 1_555
H57 C70 1_555 1_555
H58 C70 1_555 1_555
C71 C69 1_555 1_555
H59 C71 1_555 1_555
H60 C71 1_555 1_555
H61 C71 1_555 1_555
C72 C73 1_555 1_555
C73 C74 1_555 1_555
C74 H62 1_555 1_555
C75 C74 1_555 1_555
C76 C75 1_555 1_555
C77 C76 1_555 1_555
C78 C73 1_555 1_555
H63 C78 1_555 1_555
C79 C75 1_555 1_555
H64 C79 1_555 1_555
H65 C79 1_555 1_555
H66 C79 1_555 1_555
C80 C77 1_555 1_555
H67 C80 1_555 1_555
H68 C80 1_555 1_555
H69 C80 1_555 1_555
C81 C82 1_555 1_555
C82 C83 1_555 1_555
C83 C84 1_555 1_555
C84 C85 1_555 1_555
C85 N5 1_555 1_555
C86 C82 1_555 1_555
H70 C86 1_555 1_555
C87 C86 1_555 1_555
H71 C87 1_555 1_555
C88 C87 1_555 1_555
C89 C83 1_555 1_555
C90 C89 1_555 1_555
C91 C90 1_555 1_555
H72 C91 1_555 1_555
C92 C84 1_555 1_555
H73 C92 1_555 1_555
C93 C88 1_555 1_555
C94 C90 1_555 1_555
C95 C100 1_555 1_555
C96 H74 1_555 1_555
H75 C96 1_555 1_555
H76 C96 1_555 1_555
C97 H77 1_555 1_555
C98 H78 1_555 1_555
H79 C98 1_555 1_555
H80 C98 1_555 1_555
C99 H81 1_555 1_555
C100 C98 1_555 1_555
C101 C95 1_555 1_555
C102 C97 1_555 1_555
C103 C102 1_555 1_555
C104 C36 1_555 1_555
C105 C67 1_555 1_555
C106 H82 1_555 1_555
N1 C14 1_555 1_555
N2 C31 1_555 1_555
N3 C45 1_555 1_555
N4 C62 1_555 1_555
N5 C76 1_555 1_555
N6 C93 1_555 1_555
N7 C5 1_555 1_555
N8 C2 1_555 1_555
O1 Zn1 1_555 1_555
O2 C10 1_555 1_555
O3 C10 1_555 1_555
O4 C19 1_555 1_555
O5 C23 1_555 1_555
O6 C31 1_555 1_555
O7 C32 1_555 1_555
O8 C41 1_555 1_555
O9 C41 1_555 1_555
O10 C50 1_555 1_555
O11 C54 1_555 1_555
O12 C62 1_555 1_555
O13 C63 1_555 1_555
O14 C72 1_555 1_555
O15 C72 1_555 1_555
O16 C85 1_555 1_555
O17 C81 1_555 1_555
O18 C94 1_555 1_555
O19 C93 1_555 1_555
O20 C105 1_555 1_555
O21 C105 1_555 1_555
O22 C104 1_555 1_555
O23 C104 1_555 1_555
O24 C103 1_555 1_555
O25 C103 1_555 1_555
O26 C5 1_555 1_555
O27 C106 1_555 1_555
O28 Zn1 1_555 1_555
Zn1 O2 1_555 1_555
Zn2 O1 1_555 1_555
Zn3 O1 1_555 1_555
Zn4 O1 1_555 1_555
O20C Zn3 1_555 1_555
O21C Zn4 1_555 1_555
O22C Zn2 1_555 1_555
O23C Zn3 1_555 1_555
O24_2 Zn2 1_555 1_555
O25_2 Zn4 1_555 1_555
Zn2C O22 1_555 1_555
Zn2_2 O24 1_555 1_555
Zn3C O20 1_555 1_555
Zn3C_2 O23 1_555 1_555
Zn4C O21 1_555 1_555
Zn4_2 O25 1_555 1_555
C4 N8 1_555 1_555
C6 N7 1_555 1_555
C8 N7 1_555 1_555
C15 C16 1_555 1_555
C19 N1 1_555 1_555
C26 C27 1_555 1_555
C29 C30 1_555 1_555
C32 N2 1_555 1_555
C33 N2 1_555 1_555
C37 C38 1_555 1_555
C46 C47 1_555 1_555
C50 N3 1_555 1_555
C57 C58 1_555 1_555
C60 C61 1_555 1_555
C63 N4 1_555 1_555
C64 N4 1_555 1_555
C68 C69 1_555 1_555
C77 C78 1_555 1_555
C81 N5 1_555 1_555
C88 C89 1_555 1_555
C91 C92 1_555 1_555
C94 N6 1_555 1_555
C95 N6 1_555 1_555
C96 C101 1_555 1_555
C97 C101 1_555 1_555
C99 C100 1_555 1_555
C99 C102 1_555 1_555
C106 N8 1_555 1_555
O3 Zn4 1_555 1_555
O8 Zn1 1_555 1_555
O9 Zn2 1_555 1_555
O14 Zn3 1_555 1_555
O15 Zn1 1_555 1_555
O26 Zn2 1_555 1_555
O27 Zn2 1_555 1_555

#END
