
#######################################################################
#
#                 Cambridge Crystallographic Data Centre
#                                CCDC 
#
#######################################################################
#
# If this CIF has been generated from an entry in the Cambridge 
# Structural Database, then it will include bibliographic, chemical, 
# crystal, experimental, refinement or atomic coordinate data resulting 
# from the CCDC's data processing and validation procedures.
#
#######################################################################

data_XUDSIY
_symmetry_cell_setting           monoclinic
_symmetry_space_group_name_H-M   'C 2/c'
_symmetry_Int_Tables_number      15
_space_group_name_Hall           '-C 2yn'
loop_
_symmetry_equiv_pos_site_id
_symmetry_equiv_pos_as_xyz
1 x,y,z
2 x,-y,1/2+z
3 1/2+x,1/2+y,z
4 1/2+x,1/2-y,1/2+z
5 -x,-y,-z
6 -x,y,1/2-z
7 1/2-x,1/2-y,-z
8 1/2-x,1/2+y,1/2-z
_cell_length_a                   18.695(4)
_cell_length_b                   6.5186(13)
_cell_length_c                   7.3015(16)
_cell_angle_alpha                90
_cell_angle_beta                 99.563(9)
_cell_angle_gamma                90
_cell_volume                     877.434
loop_
_atom_site_label
_atom_site_type_symbol
_atom_site_fract_x
_atom_site_fract_y
_atom_site_fract_z
C1 C 0.0690(3) 0.0014(10) 0.1088(16)
C2 C 0.0376(4) 0.1849(5) 0.0360(15)
C3 C 0.0314(4) -0.1835(5) 0.0728(14)
H1 H 0.0635(7) 0.3124(9) 0.061(3)
H2 H 0.0530(7) -0.3100(9) 0.123(2)
C4 C 0.1470(4) 0.0021(14) 0.204(3)
O1 O 0.1810(4) 0.1691(17) 0.1844(12)
O2 O 0.1731(6) -0.1705(15) 0.2685(16)
Fe1 Fe 0.25000 0.25000 0.00000
O3 O 0.1947(9) 0.5256(16) -0.018(3)
H3 H 0.18709 0.54683 0.10907
H4 H 0.24861 0.5982 -0.0057
C3D C -0.0314(4) 0.1835(5) -0.0728(14)
C1D C -0.0690(3) -0.0014(10) -0.1088(16)
C2D C -0.0376(4) -0.1849(5) -0.0360(15)
H1D H -0.0635(7) -0.3124(9) -0.061(3)
C4D C -0.1470(4) -0.0021(14) -0.204(3)
O1D O -0.1810(4) -0.1691(17) -0.1844(12)
O2D O -0.1731(6) 0.1705(15) -0.2685(16)
H2D H -0.0530(7) 0.3100(9) -0.123(2)
O3F O 0.3053(9) -0.0256(16) 0.018(3)
H3F H 0.31291 -0.04683 -0.10907
H4F H 0.25139 -0.0982 0.0057
Fe1A Fe 0.25000 -0.25000 0.50000
O1F O 0.3190(4) 0.3309(17) -0.1844(12)
O2A O 0.1731(6) 0.1705(15) -0.2315(16)
O2G O 0.3269(6) 0.3295(15) 0.2315(16)
Fe1B Fe -0.25000 -0.25000 0.00000
Fe1C Fe -0.25000 0.25000 -0.50000
loop_
_geom_bond_atom_site_label_1
_geom_bond_atom_site_label_2
_geom_bond_site_symmetry_1
_geom_bond_site_symmetry_2
C1 C2 1_555 1_555
C2 H1 1_555 1_555
C3 C1 1_555 1_555
H2 C3 1_555 1_555
C4 C1 1_555 1_555
O1 C4 1_555 1_555
O2 C4 1_555 1_555
Fe1 O1 1_555 1_555
O3 Fe1 1_555 1_555
H3 O3 1_555 1_555
H4 O3 1_555 1_555
C3D C2 1_555 1_555
C1D C3D 1_555 1_555
C2D C3 1_555 1_555
H1D C2D 1_555 1_555
C4D C1D 1_555 1_555
O1D C4D 1_555 1_555
O2D C4D 1_555 1_555
H2D C3D 1_555 1_555
O3F Fe1 1_555 1_555
H3F O3F 1_555 1_555
H4F O3F 1_555 1_555
Fe1A O2 1_555 1_555
O1F Fe1 1_555 1_555
O2A Fe1 1_555 1_555
O2G Fe1 1_555 1_555
Fe1B O1D 1_555 1_555
Fe1C O2D 1_555 1_555
C1D C2D 1_555 1_555

#END
