
#######################################################################
#
#                 Cambridge Crystallographic Data Centre
#                                CCDC 
#
#######################################################################
#
# If this CIF has been generated from an entry in the Cambridge 
# Structural Database, then it will include bibliographic, chemical, 
# crystal, experimental, refinement or atomic coordinate data resulting 
# from the CCDC's data processing and validation procedures.
#
#######################################################################

data_XUNHAQ
_symmetry_cell_setting           monoclinic
_symmetry_space_group_name_H-M   'P 21'
_symmetry_Int_Tables_number      4
_space_group_name_Hall           'P 2yb'
loop_
_symmetry_equiv_pos_site_id
_symmetry_equiv_pos_as_xyz
1 x,y,z
2 -x,1/2+y,-z
_cell_length_a                   5.47330(10)
_cell_length_b                   13.4580(2)
_cell_length_c                   11.7304(2)
_cell_angle_alpha                90
_cell_angle_beta                 101.166(2)
_cell_angle_gamma                90
_cell_volume                     847.701
loop_
_atom_site_label
_atom_site_type_symbol
_atom_site_fract_x
_atom_site_fract_y
_atom_site_fract_z
C1 C 0.6425(5) 0.8530(2) 0.7472(3)
C2 C 0.7293(7) 0.8301(3) 0.6351(3)
H1 H 0.7675 0.7600 0.6307
H2 H 0.6016 0.8475 0.5686
C3 C 0.9604(6) 0.8923(3) 0.6376(3)
H3 H 0.9541 0.9257 0.5637
H4 H 1.1089 0.8513 0.6538
C4 C 0.9599(6) 0.9682(3) 0.7352(3)
H5 H 1.1212 0.9707 0.7869
H6 H 0.9184 1.0340 0.7036
C5 C 0.7300(8) 0.9788(3) 0.9000(3)
H7 H 0.5922 0.9471 0.9250
H8 H 0.6932 1.0479 0.8856
H9 H 0.8766 0.9723 0.9596
N1 N 0.7720(5) 0.9325(2) 0.7954(2)
O1 O 0.4798(4) 0.8097(2) 0.7835(2)
C6 C -0.0989(5) 0.8108(2) 0.1298(2)
C7 C -0.0871(5) 0.7368(2) 0.0328(2)
C8 C -0.2672(5) 0.6631(2) 0.0080(2)
H10 H -0.3917 0.6578 0.0515
C9 C -0.2593(5) 0.5975(2) -0.0825(3)
H11 H -0.3804 0.5482 -0.0979
C10 C 0.0853(5) 0.6737(2) -0.1252(3)
H12 H 0.2056 0.6780 -0.1712
C11 C 0.0931(5) 0.7424(2) -0.0361(2)
H13 H 0.2161 0.7910 -0.0227
C12 C 0.3763(5) 0.5153(2) 0.6248(2)
C13 C 0.3976(5) 0.5904(2) 0.5309(2)
C14 C 0.2229(5) 0.6662(2) 0.5055(2)
H14 H 0.0957 0.6721 0.5474
C15 C 0.2396(5) 0.7326(2) 0.4179(3)
H15 H 0.1234 0.7838 0.4035
C16 C 0.5819(5) 0.5841(2) 0.4644(3)
H16 H 0.7029 0.5348 0.4787
C17 C 0.5812(5) 0.6534(2) 0.3758(3)
H17 H 0.7027 0.6479 0.3306
Li1 Li 0.0775(8) 0.9838(4) 0.2603(4)
Li2 Li 0.4421(8) 0.8444(4) 0.2396(4)
N2 N -0.0858(4) 0.60165(19) -0.1486(2)
N3 N 0.4149(4) 0.72745(19) 0.3522(2)
O2 O 0.0906(3) 0.86385(15) 0.16474(15)
O3 O -0.2966(4) 0.81373(18) 0.16608(18)
O4 O 0.5678(3) 0.46457(15) 0.66499(16)
O5 O 0.1717(3) 0.50927(17) 0.65390(17)
Li1A Li -0.0775(8) 0.4838(4) -0.2603(4)
Li1A_2 Li -0.0775(8) 0.4838(4) 0.7397(4)
Li1A_3 Li 0.9225(8) 0.4838(4) 0.7397(4)
Li2_2 Li -0.5579(8) 0.8444(4) 0.2396(4)
Li2A Li 0.5579(8) 0.3444(4) 0.7604(4)
N2A N 0.0858(4) 1.10165(19) 0.1486(2)
O3_2 O 0.7034(4) 0.81373(18) 0.16608(18)
O4A O 0.4322(3) 0.96457(15) 0.33501(16)
O5A O -0.1717(3) 1.00927(17) 0.34610(17)
loop_
_geom_bond_atom_site_label_1
_geom_bond_atom_site_label_2
_geom_bond_site_symmetry_1
_geom_bond_site_symmetry_2
C1 C2 1_555 1_555
C2 H1 1_555 1_555
H2 C2 1_555 1_555
C3 C2 1_555 1_555
H3 C3 1_555 1_555
H4 C3 1_555 1_555
C4 C3 1_555 1_555
H5 C4 1_555 1_555
H6 C4 1_555 1_555
C5 H7 1_555 1_555
H8 C5 1_555 1_555
H9 C5 1_555 1_555
N1 C1 1_555 1_555
O1 C1 1_555 1_555
C6 C7 1_555 1_555
C7 C8 1_555 1_555
C8 H10 1_555 1_555
C9 C8 1_555 1_555
H11 C9 1_555 1_555
C10 H12 1_555 1_555
C11 C7 1_555 1_555
H13 C11 1_555 1_555
C12 C13 1_555 1_555
C13 C14 1_555 1_555
C14 H14 1_555 1_555
C15 C14 1_555 1_555
H15 C15 1_555 1_555
C16 C13 1_555 1_555
H16 C16 1_555 1_555
C17 C16 1_555 1_555
H17 C17 1_555 1_555
Li1 O2 1_555 1_555
Li2 N3 1_555 1_555
N2 C9 1_555 1_555
N3 C15 1_555 1_555
O2 C6 1_555 1_555
O3 C6 1_555 1_555
O4 C12 1_555 1_555
O5 C12 1_555 1_555
Li1A N2 1_555 1_555
Li1A_2 O5 1_555 1_555
Li1A_3 O4 1_555 1_555
Li2_2 O3 1_555 1_555
Li2A O4 1_555 1_555
N2A Li1 1_555 1_555
O3_2 Li2 1_555 1_555
O4A Li1 1_555 1_555
O5A Li1 1_555 1_555
C4 N1 1_555 1_555
C5 N1 1_555 1_555
C10 C11 1_555 1_555
C10 N2 1_555 1_555
C17 N3 1_555 1_555
Li2 O2 1_555 1_555
Li2 O4A 1_555 1_555

#END
