
#######################################################################
#
#                 Cambridge Crystallographic Data Centre
#                                CCDC 
#
#######################################################################
#
# If this CIF has been generated from an entry in the Cambridge 
# Structural Database, then it will include bibliographic, chemical, 
# crystal, experimental, refinement or atomic coordinate data resulting 
# from the CCDC's data processing and validation procedures.
#
#######################################################################

data_XUNJOG
_symmetry_cell_setting           trigonal
_symmetry_space_group_name_H-M   'P 31 2 1'
_symmetry_Int_Tables_number      152
_space_group_name_Hall           'P 31 2"'
loop_
_symmetry_equiv_pos_site_id
_symmetry_equiv_pos_as_xyz
1 x,y,z
2 -y,x-y,1/3+z
3 -x+y,-x,2/3+z
4 y,x,-z
5 x-y,-y,2/3-z
6 -x,-x+y,1/3-z
_cell_length_a                   15.2162(10)
_cell_length_b                   15.2162(10)
_cell_length_c                   7.9063(11)
_cell_angle_alpha                90
_cell_angle_beta                 90
_cell_angle_gamma                120
_cell_volume                     1585.32
loop_
_atom_site_label
_atom_site_type_symbol
_atom_site_fract_x
_atom_site_fract_y
_atom_site_fract_z
Mn1 Mn 0.32591(7) 0.58318(7) 0.11009(8)
Mn2 Mn 0.49616(10) 0.49616(10) 0.0000
O1 O 0.2537(4) 0.4366(4) 0.2034(6)
O2 O 0.3850(6) 0.4148(6) 0.1760(9)
O3 O 0.5804(3) 0.4176(3) 0.1025(4)
O4 O 0.6433(3) 0.3753(3) 0.3201(4)
O5 O 0.6567(3) 0.4590(3) -0.2727(4)
O6 O 0.6166(3) 0.5740(3) -0.1781(5)
C1 C 0.2994(7) 0.3941(6) 0.2375(9)
C2 C 0.2607(6) 0.3092(7) 0.3615(9)
C3 C 0.3400(7) 0.3400(7) 0.5000
C4 C 0.1611(8) 0.2962(10) 0.4438(14)
C5 C 0.1232(9) 0.2077(11) 0.5869(14)
C6 C 0.1191(16) 0.1191(16) 0.5000
C7 C 0.2485(10) 0.2093(7) 0.2785(13)
C8 C 0.6106(5) 0.4279(5) 0.2509(6)
H1 H 0.6026 0.4881 0.3314
C9 C 0.6643(6) 0.5453(6) -0.2694(7)
H2 H 0.7058 0.5992 -0.3468
Mn1C Mn 0.58318(7) 0.32591(7) 0.88991(8)
Mn1C_2 Mn 0.58318(7) 0.32591(7) -0.11009(8)
Mn1D Mn 0.74273(10) 0.41682(7) 0.55658(8)
Mn1E Mn 0.67409(7) 0.25727(10) 0.22324(8)
Mn1D_2 Mn 0.74273(10) 0.41682(7) -0.44342(8)
Mn1A Mn 0.41682(7) 0.74273(10) 0.44342(8)
Mn1A_2 Mn 0.41682(7) 0.74273(10) -0.55658(8)
Mn1B Mn 0.25727(10) 0.67409(7) -0.22324(8)
Mn2_2 Mn 0.49616(10) 0.49616(10) 1.0000
O1C O 0.4366(4) 0.2537(4) 0.7966(6)
O2C O 0.4148(6) 0.3850(6) 0.8240(9)
O2C_2 O 0.4148(6) 0.3850(6) -0.1760(9)
O3C O 0.4176(3) 0.5804(3) -0.1025(4)
O3_2 O 0.5804(3) 0.4176(3) 1.1025(4)
O4C O 0.3753(3) 0.6433(3) -0.3201(4)
O4D O 0.2680(4) 0.6247(3) 0.3466(4)
O4E O 0.3567(3) 0.7320(4) 0.0132(4)
O4A O 0.6247(3) 0.2680(4) 0.6534(4)
O4B O 0.7320(4) 0.3567(3) 0.9868(4)
O5C O 0.4590(3) 0.6567(3) 0.2727(4)
O5D O 0.1977(4) 0.5410(3) -0.0606(4)
O5A O 0.5410(3) 0.1977(4) 1.0606(4)
O5_2 O 0.6567(3) 0.4590(3) 0.7273(4)
O6C O 0.5740(3) 0.6166(3) 0.1781(5)
C1C C 0.3941(6) 0.2994(7) 0.7625(9)
C2C C 0.3092(7) 0.2607(6) 0.6385(9)
C4C C 0.2962(10) 0.1611(8) 0.5562(14)
C5C C 0.2077(11) 0.1232(9) 0.4131(14)
C7C C 0.2093(7) 0.2485(10) 0.7215(13)
C8C C 0.4279(5) 0.6106(5) -0.2509(6)
H1C H 0.4881 0.6026 -0.3314
C9C C 0.5453(6) 0.6643(6) 0.2694(7)
H2C H 0.5992 0.7058 0.3468
loop_
_geom_bond_atom_site_label_1
_geom_bond_atom_site_label_2
_geom_bond_site_symmetry_1
_geom_bond_site_symmetry_2
Mn1 O1 1_555 1_555
Mn2 O2 1_555 1_555
O1 C1 1_555 1_555
O2 C1 1_555 1_555
O3 Mn2 1_555 1_555
O4 C8 1_555 1_555
O5 C9 1_555 1_555
O6 Mn2 1_555 1_555
C1 C2 1_555 1_555
C2 C3 1_555 1_555
C3 C2C 1_555 1_555
C4 C2 1_555 1_555
C5 C4 1_555 1_555
C6 C5 1_555 1_555
C7 C2 1_555 1_555
C8 O3 1_555 1_555
H1 C8 1_555 1_555
C9 O6 1_555 1_555
H2 C9 1_555 1_555
Mn1C O1C 1_555 1_555
Mn1C_2 O3 1_555 1_555
Mn1D O4 1_555 1_555
Mn1E O4 1_555 1_555
Mn1D_2 O5 1_555 1_555
Mn1A O4D 1_555 1_555
Mn1A_2 O4C 1_555 1_555
Mn1B O4C 1_555 1_555
Mn2_2 O2C 1_555 1_555
O1C C1C 1_555 1_555
O2C C1C 1_555 1_555
O2C_2 Mn2 1_555 1_555
O3C Mn1 1_555 1_555
O3_2 Mn1C 1_555 1_555
O4C C8C 1_555 1_555
O4D Mn1 1_555 1_555
O4E Mn1 1_555 1_555
O4A Mn1C 1_555 1_555
O4B Mn1C 1_555 1_555
O5C Mn1 1_555 1_555
O5D Mn1 1_555 1_555
O5A Mn1C 1_555 1_555
O5_2 Mn1C 1_555 1_555
O6C Mn2 1_555 1_555
C1C C2C 1_555 1_555
C2C C4C 1_555 1_555
C4C C5C 1_555 1_555
C5C C6 1_555 1_555
C7C C5 1_555 1_555
C8C O3C 1_555 1_555
H1C C8C 1_555 1_555
C9C O5C 1_555 1_555
H2C C9C 1_555 1_555
Mn2 O3C 1_555 1_555
O5 Mn1C_2 1_555 1_555
C7 C5C 1_555 1_555
Mn1D O4A 1_555 1_555
Mn1D O5_2 1_555 1_555
Mn1A O5C 1_555 1_555
Mn1B O4E 1_555 1_555
Mn1B O5D 1_555 1_555
Mn2_2 O3_2 1_555 1_555
O6C C9C 1_555 1_555
C2C C7C 1_555 1_555

#END
