
#######################################################################
#
#                 Cambridge Crystallographic Data Centre
#                                CCDC 
#
#######################################################################
#
# If this CIF has been generated from an entry in the Cambridge 
# Structural Database, then it will include bibliographic, chemical, 
# crystal, experimental, refinement or atomic coordinate data resulting 
# from the CCDC's data processing and validation procedures.
#
#######################################################################

data_XUVMOQ09
_symmetry_cell_setting           monoclinic
_symmetry_space_group_name_H-M   'C 2/m'
_symmetry_Int_Tables_number      12
_space_group_name_Hall           '-C 2y'
loop_
_symmetry_equiv_pos_site_id
_symmetry_equiv_pos_as_xyz
1 x,y,z
2 -x,y,-z
3 1/2+x,1/2+y,z
4 1/2-x,1/2+y,-z
5 -x,-y,-z
6 x,-y,z
7 1/2-x,1/2-y,-z
8 1/2+x,1/2-y,z
_cell_length_a                   17.8096(18)
_cell_length_b                   9.5907(10)
_cell_length_c                   12.3463(13)
_cell_angle_alpha                90
_cell_angle_beta                 127.541(2)
_cell_angle_gamma                90
_cell_volume                     1672.13
loop_
_atom_site_label
_atom_site_type_symbol
_atom_site_fract_x
_atom_site_fract_y
_atom_site_fract_z
C1 C -0.1711(3) 0.5000 -0.0714(5)
C2 C -0.2714(4) 0.5000 -0.1218(5)
C3 C -0.3181(3) 0.3757(4) -0.1446(5)
H1 H -0.2860 0.2915 -0.1236
C4 C -0.4131(3) 0.3765(5) -0.1990(6)
H2 H -0.4449 0.2929 -0.2152
C5 C -0.4598(5) 0.5000 -0.2285(8)
H3 H -0.5242 0.5000 -0.2694
C6 C -0.0710(4) 0.5000 -0.2581(6)
C7 C -0.1053(5) 0.5000 -0.4015(7)
C8 C -0.1221(5) 0.3776(6) -0.4687(7)
H4 H -0.1152 0.2937 -0.4258
C9 C -0.1498(6) 0.3767(8) -0.6025(8)
H5 H -0.1623 0.2935 -0.6495
C10 C -0.1576(8) 0.5000 -0.6603(11)
H6 H -0.1690 0.5000 -0.7445
C11 C 0.0791(3) 0.0720(3) 0.0847(4)
H7 H 0.1359 0.1190 0.1456
N1 N 0.0000 0.1459(4) 0.0000
O1 O -0.13286(19) 0.3828(2) -0.0538(3)
O2 O -0.0563(2) 0.3830(2) -0.2008(3)
Rh1 Rh 0.0000 0.37530(3) 0.0000
C1A C 0.1711(3) 0.5000 0.0714(5)
C2A C 0.2714(4) 0.5000 0.1218(5)
C3E C -0.3181(3) 0.6243(4) -0.1446(5)
C3A C 0.3181(3) 0.3757(4) 0.1446(5)
C3D C 0.3181(3) 0.6243(4) 0.1446(5)
H1E H -0.2860 0.7085 -0.1236
H1A H 0.2860 0.2915 0.1236
H1D H 0.2860 0.7085 0.1236
C4E C -0.4131(3) 0.6235(5) -0.1990(6)
C4A C 0.4131(3) 0.3765(5) 0.1990(6)
C4D C 0.4131(3) 0.6235(5) 0.1990(6)
H2E H -0.4449 0.7071 -0.2152
H2A H 0.4449 0.2929 0.2152
H2D H 0.4449 0.7071 0.2152
C5A C 0.4598(5) 0.5000 0.2285(8)
H3A H 0.5242 0.5000 0.2694
C6A C 0.0710(4) 0.5000 0.2581(6)
C7A C 0.1053(5) 0.5000 0.4015(7)
C8E C -0.1221(5) 0.6224(6) -0.4687(7)
C8A C 0.1221(5) 0.3776(6) 0.4687(7)
C8D C 0.1221(5) 0.6224(6) 0.4687(7)
H4E H -0.1152 0.7063 -0.4258
H4A H 0.1152 0.2937 0.4258
H4D H 0.1152 0.7063 0.4258
C9E C -0.1498(6) 0.6233(8) -0.6025(8)
C9A C 0.1498(6) 0.3767(8) 0.6025(8)
C9D C 0.1498(6) 0.6233(8) 0.6025(8)
H5E H -0.1623 0.7065 -0.6495
H5A H 0.1623 0.2935 0.6495
H5D H 0.1623 0.7065 0.6495
C10A C 0.1576(8) 0.5000 0.6603(11)
H6A H 0.1690 0.5000 0.7445
C11E C 0.0791(3) -0.0720(3) 0.0847(4)
C11D C -0.0791(3) -0.0720(3) -0.0847(4)
C11A C -0.0791(3) 0.0720(3) -0.0847(4)
H7E H 0.1359 -0.1190 0.1456
H7A H -0.1359 0.1190 -0.1456
H7D H -0.1359 -0.1190 -0.1456
N1D N 0.0000 -0.1459(4) 0.0000
O1E O -0.13286(19) 0.6172(2) -0.0538(3)
O1A O 0.13286(19) 0.3828(2) 0.0538(3)
O1D O 0.13286(19) 0.6172(2) 0.0538(3)
O1E_2 O -0.13286(19) -0.3828(2) -0.0538(3)
O1D_2 O 0.13286(19) -0.3828(2) 0.0538(3)
O2E O -0.0563(2) 0.6170(2) -0.2008(3)
O2A O 0.0563(2) 0.3830(2) 0.2008(3)
O2D O 0.0563(2) 0.6170(2) 0.2008(3)
O2E_2 O -0.0563(2) -0.3830(2) -0.2008(3)
O2D_2 O 0.0563(2) -0.3830(2) 0.2008(3)
Rh1D Rh 0.0000 -0.37530(3) 0.0000
Rh1D_2 Rh 0.0000 0.62470(3) 0.0000
Rh1_2 Rh 0.0000 -0.62470(3) 0.0000
loop_
_geom_bond_atom_site_label_1
_geom_bond_atom_site_label_2
_geom_bond_site_symmetry_1
_geom_bond_site_symmetry_2
C1 C2 1_555 1_555
C2 C3 1_555 1_555
C3 H1 1_555 1_555
C4 C3 1_555 1_555
H2 C4 1_555 1_555
C5 C4 1_555 1_555
H3 C5 1_555 1_555
C6 C7 1_555 1_555
C7 C8 1_555 1_555
C8 H4 1_555 1_555
C9 C8 1_555 1_555
H5 C9 1_555 1_555
C10 C9 1_555 1_555
H6 C10 1_555 1_555
C11 H7 1_555 1_555
N1 C11 1_555 1_555
O1 C1 1_555 1_555
O2 C6 1_555 1_555
Rh1 N1 1_555 1_555
C1A C2A 1_555 1_555
C2A C3A 1_555 1_555
C3E C2 1_555 1_555
C3A H1A 1_555 1_555
C3D C2A 1_555 1_555
H1E C3E 1_555 1_555
H1D C3D 1_555 1_555
C4E C5 1_555 1_555
C4A C3A 1_555 1_555
C4D C3D 1_555 1_555
H2E C4E 1_555 1_555
H2A C4A 1_555 1_555
H2D C4D 1_555 1_555
C5A C4A 1_555 1_555
H3A C5A 1_555 1_555
C6A C7A 1_555 1_555
C7A C8A 1_555 1_555
C8E C7 1_555 1_555
C8A H4A 1_555 1_555
C8D C7A 1_555 1_555
H4E C8E 1_555 1_555
H4D C8D 1_555 1_555
C9E C10 1_555 1_555
C9A C8A 1_555 1_555
C9D C8D 1_555 1_555
H5E C9E 1_555 1_555
H5A C9A 1_555 1_555
H5D C9D 1_555 1_555
C10A C9A 1_555 1_555
H6A C10A 1_555 1_555
C11E C11 1_555 1_555
C11D C11A 1_555 1_555
C11A N1 1_555 1_555
H7E C11E 1_555 1_555
H7A C11A 1_555 1_555
H7D C11D 1_555 1_555
N1D C11E 1_555 1_555
O1E C1 1_555 1_555
O1A Rh1 1_555 1_555
O1D C1A 1_555 1_555
O1E_2 Rh1D 1_555 1_555
O1D_2 Rh1D 1_555 1_555
O2E C6 1_555 1_555
O2A Rh1 1_555 1_555
O2D C6A 1_555 1_555
O2E_2 Rh1D 1_555 1_555
O2D_2 Rh1D 1_555 1_555
Rh1D N1D 1_555 1_555
Rh1D_2 Rh1 1_555 1_555
Rh1_2 Rh1D 1_555 1_555
O1 Rh1 1_555 1_555
O2 Rh1 1_555 1_555
C1A O1A 1_555 1_555
C3E C4E 1_555 1_555
C4D C5A 1_555 1_555
C6A O2A 1_555 1_555
C8E C9E 1_555 1_555
C9D C10A 1_555 1_555
C11D N1D 1_555 1_555
O1E Rh1D_2 1_555 1_555
O1D Rh1D_2 1_555 1_555
O2E Rh1D_2 1_555 1_555
O2D Rh1D_2 1_555 1_555

#END
