
#######################################################################
#
#                 Cambridge Crystallographic Data Centre
#                                CCDC 
#
#######################################################################
#
# If this CIF has been generated from an entry in the Cambridge 
# Structural Database, then it will include bibliographic, chemical, 
# crystal, experimental, refinement or atomic coordinate data resulting 
# from the CCDC's data processing and validation procedures.
#
#######################################################################

data_YAQDIF
_symmetry_cell_setting           tetragonal
_symmetry_space_group_name_H-M   'I 41/a c d'
_symmetry_Int_Tables_number      142
_space_group_name_Hall           '-I 4bd 2c'
loop_
_symmetry_equiv_pos_site_id
_symmetry_equiv_pos_as_xyz
1 x,y,z
2 1/2-x,-y,1/2+z
3 1/4-y,3/4+x,1/4+z
4 1/4+y,1/4-x,3/4+z
5 1/2-x,y,-z
6 x,-y,1/2-z
7 1/4+y,3/4+x,3/4-z
8 1/4-y,1/4-x,1/4-z
9 1/2+x,1/2+y,1/2+z
10 -x,1/2-y,z
11 3/4-y,1/4+x,3/4+z
12 3/4+y,3/4-x,1/4+z
13 -x,1/2+y,1/2-z
14 1/2+x,1/2-y,-z
15 3/4+y,1/4+x,1/4-z
16 3/4-y,3/4-x,3/4-z
17 -x,-y,-z
18 1/2+x,y,1/2-z
19 3/4+y,1/4-x,3/4-z
20 3/4-y,3/4+x,1/4-z
21 1/2+x,-y,z
22 -x,y,1/2+z
23 3/4-y,1/4-x,1/4+z
24 3/4+y,3/4+x,3/4+z
25 1/2-x,1/2-y,1/2-z
26 x,1/2+y,-z
27 1/4+y,3/4-x,1/4-z
28 1/4-y,1/4+x,3/4-z
29 x,1/2-y,1/2+z
30 1/2-x,1/2+y,z
31 1/4-y,3/4-x,3/4+z
32 1/4+y,1/4+x,1/4+z
_cell_length_a                   21.122(3)
_cell_length_b                   21.122(3)
_cell_length_c                   16.7824(19)
_cell_angle_alpha                90
_cell_angle_beta                 90
_cell_angle_gamma                90
_cell_volume                     7487.28
loop_
_atom_site_label
_atom_site_type_symbol
_atom_site_fract_x
_atom_site_fract_y
_atom_site_fract_z
Cd1 Cd 0.0000 0.7500 0.1250
O1 O 0.11550(13) 0.75433(14) 0.11035(18)
O2 O 0.07617(11) 0.74857(13) 0.23035(18)
C1 C 0.12193(14) 0.75165(14) 0.1832(3)
C2 C 0.18837(13) 0.75012(15) 0.2180(2)
C3 C 0.21392(14) 0.80572(14) 0.2479(2)
C4 C 0.18003(17) 0.86384(17) 0.2487(3)
H1 H 0.1394 0.8657 0.2276
C5 C 0.2068(2) 0.9169(2) 0.2803(4)
H2 H 0.1832 0.9540 0.2826
C6 C 0.2686(2) 0.91695(18) 0.3092(4)
H3 H 0.2861 0.9544 0.3281
C7 C 0.30315(17) 0.86356(16) 0.3099(3)
H4 H 0.3442 0.8642 0.3300
C8 C 0.22282(13) 0.69379(13) 0.2198(2)
Cd1B Cd 0.5000 0.7500 0.3750
Cd1B_2 Cd -0.5000 0.7500 0.3750
O1X O 0.38450(13) 0.74567(14) 0.38965(18)
O1I O -0.11550(13) 0.74567(14) 0.11035(18)
O1Q O -0.38450(13) 0.75433(14) 0.38965(18)
O1S O -0.00433(14) 0.86550(13) 0.13965(18)
O1Z O 0.00433(14) 0.63450(13) 0.13965(18)
O2X O 0.42383(11) 0.75143(13) 0.26965(18)
O2I O -0.07617(11) 0.75143(13) 0.23035(18)
O2Q O -0.42383(11) 0.74857(13) 0.26965(18)
O2S O 0.00143(13) 0.82617(11) 0.01965(18)
O2Z O -0.00143(13) 0.67383(11) 0.01965(18)
C1X C 0.37807(14) 0.74835(14) 0.3168(3)
C1I C -0.12193(14) 0.74835(14) 0.1832(3)
C1Q C -0.37807(14) 0.75165(14) 0.3168(3)
C2X C 0.31163(13) 0.74988(15) 0.2820(2)
C2I C -0.18837(13) 0.74988(15) 0.2180(2)
C2Q C -0.31163(13) 0.75012(15) 0.2820(2)
C3X C 0.28608(14) 0.69428(14) 0.2521(2)
C3I C -0.21392(14) 0.69428(14) 0.2479(2)
C3Q C -0.28608(14) 0.80572(14) 0.2521(2)
C4X C 0.31997(17) 0.63616(17) 0.2513(3)
C4I C -0.18003(17) 0.63616(17) 0.2487(3)
C4Q C -0.31997(17) 0.86384(17) 0.2513(3)
H1X H 0.3606 0.6343 0.2724
H1I H -0.1394 0.6343 0.2276
H1Q H -0.3606 0.8657 0.2724
C5X C 0.2932(2) 0.5831(2) 0.2197(4)
C5I C -0.2068(2) 0.5831(2) 0.2803(4)
C5Q C -0.2932(2) 0.9169(2) 0.2197(4)
H2X H 0.3168 0.5460 0.2174
H2I H -0.1832 0.5460 0.2826
H2Q H -0.3168 0.9540 0.2174
C6X C 0.2314(2) 0.58305(18) 0.1908(4)
C6I C -0.2686(2) 0.58305(18) 0.3092(4)
C6Q C -0.2314(2) 0.91695(18) 0.1908(4)
H3X H 0.2139 0.5456 0.1719
H3I H -0.2861 0.5456 0.3281
H3Q H -0.2139 0.9544 0.1719
C7X C 0.19685(17) 0.63644(16) 0.1901(3)
C7I C -0.30315(17) 0.63644(16) 0.3099(3)
C7Q C -0.19685(17) 0.86356(16) 0.1901(3)
H4X H 0.1558 0.6358 0.1700
H4I H -0.3442 0.6358 0.3300
H4Q H -0.1558 0.8642 0.1700
C8X C 0.27718(13) 0.80621(13) 0.2802(2)
C8I C -0.22282(13) 0.80621(13) 0.2198(2)
C8Q C -0.27718(13) 0.69379(13) 0.2802(2)
loop_
_geom_bond_atom_site_label_1
_geom_bond_atom_site_label_2
_geom_bond_site_symmetry_1
_geom_bond_site_symmetry_2
Cd1 O1 1_555 1_555
O1 C1 1_555 1_555
O2 Cd1 1_555 1_555
C1 O2 1_555 1_555
C2 C1 1_555 1_555
C3 C2 1_555 1_555
C4 C3 1_555 1_555
H1 C4 1_555 1_555
C5 C4 1_555 1_555
H2 C5 1_555 1_555
C6 C5 1_555 1_555
H3 C6 1_555 1_555
C7 C6 1_555 1_555
H4 C7 1_555 1_555
C8 C2 1_555 1_555
Cd1B O1X 1_555 1_555
Cd1B_2 O1Q 1_555 1_555
O1X C1X 1_555 1_555
O1I Cd1 1_555 1_555
O1Q C1Q 1_555 1_555
O1S Cd1 1_555 1_555
O1Z Cd1 1_555 1_555
O2X Cd1B 1_555 1_555
O2I Cd1 1_555 1_555
O2Q Cd1B_2 1_555 1_555
O2S Cd1 1_555 1_555
O2Z Cd1 1_555 1_555
C1X O2X 1_555 1_555
C1I O1I 1_555 1_555
C1Q O2Q 1_555 1_555
C2X C1X 1_555 1_555
C2I C1I 1_555 1_555
C2Q C1Q 1_555 1_555
C3X C8 1_555 1_555
C3I C2I 1_555 1_555
C3Q C2Q 1_555 1_555
C4X C3X 1_555 1_555
C4I C3I 1_555 1_555
C4Q C3Q 1_555 1_555
H1X C4X 1_555 1_555
H1I C4I 1_555 1_555
H1Q C4Q 1_555 1_555
C5X C4X 1_555 1_555
C5I C4I 1_555 1_555
C5Q C4Q 1_555 1_555
H2X C5X 1_555 1_555
H2I C5I 1_555 1_555
H2Q C5Q 1_555 1_555
C6X C5X 1_555 1_555
C6I C5I 1_555 1_555
C6Q C5Q 1_555 1_555
H3X C6X 1_555 1_555
H3I C6I 1_555 1_555
H3Q C6Q 1_555 1_555
C7X C8 1_555 1_555
C7I C6I 1_555 1_555
C7Q C6Q 1_555 1_555
H4X C7X 1_555 1_555
H4I C7I 1_555 1_555
H4Q C7Q 1_555 1_555
C8X C3 1_555 1_555
C8I C2I 1_555 1_555
C8Q C2Q 1_555 1_555
C7 C8X 1_555 1_555
O2I C1I 1_555 1_555
C2X C3X 1_555 1_555
C2X C8X 1_555 1_555
C3I C8Q 1_555 1_555
C3Q C8I 1_555 1_555
C6X C7X 1_555 1_555
C7I C8Q 1_555 1_555
C7Q C8I 1_555 1_555

#END
