
#######################################################################
#
#                 Cambridge Crystallographic Data Centre
#                                CCDC 
#
#######################################################################
#
# If this CIF has been generated from an entry in the Cambridge 
# Structural Database, then it will include bibliographic, chemical, 
# crystal, experimental, refinement or atomic coordinate data resulting 
# from the CCDC's data processing and validation procedures.
#
#######################################################################

data_YARKEJ
_symmetry_cell_setting           monoclinic
_symmetry_space_group_name_H-M   'C 2/c'
_symmetry_Int_Tables_number      15
_space_group_name_Hall           '-C 2yn'
loop_
_symmetry_equiv_pos_site_id
_symmetry_equiv_pos_as_xyz
1 x,y,z
2 -x,y,1/2-z
3 1/2+x,1/2+y,z
4 1/2-x,1/2+y,1/2-z
5 -x,-y,-z
6 x,-y,1/2+z
7 1/2-x,1/2-y,-z
8 1/2+x,1/2-y,1/2+z
_cell_length_a                   21.0705(5)
_cell_length_b                   18.4633(5)
_cell_length_c                   12.0995(3)
_cell_angle_alpha                90
_cell_angle_beta                 103.461(3)
_cell_angle_gamma                90
_cell_volume                     4577.77
loop_
_atom_site_label
_atom_site_type_symbol
_atom_site_fract_x
_atom_site_fract_y
_atom_site_fract_z
Zn1 Zn 0.207027(19) 0.02312(2) 0.89935(4)
O1 O 0.14517(13) 0.05017(16) 1.3218(3)
N1 N 0.29632(15) -0.0034(2) 0.9952(3)
C1 C 0.12084(17) 0.1479(2) 1.1922(3)
O3 O 0.22443(13) 0.09441(18) 1.2518(2)
N2 N 0.22698(16) 0.08432(18) 0.7736(3)
C2 C 0.1256(2) 0.1706(2) 1.0854(4)
O5 O 0.15903(13) 0.06572(16) 1.0041(3)
C3 C 0.0885(3) 0.2292(3) 1.0349(4)
H1 H 0.0924 0.2457 0.9642
C4 C 0.0458(2) 0.2632(3) 1.0898(5)
H2 H 0.0210 0.3023 1.0557
O6 O 0.2090(2) 0.1669(2) 0.9835(4)
O7 O 0.0000 0.2781(2) 1.2500
C5 C 0.04007(18) 0.2391(2) 1.1940(4)
C6 C 0.07768(18) 0.1823(2) 1.2465(4)
H3 H 0.0742 0.1668 1.3181
C7 C 0.16763(18) 0.0941(2) 1.2582(3)
C8 C 0.1678(2) 0.1331(3) 1.0184(4)
C9 C 0.3168(2) 0.0287(3) 1.0946(4)
H4 H 0.2875 0.0570 1.1225
C10 C 0.3793(2) 0.0221(3) 1.1581(5)
H5 H 0.3918 0.0472 1.2263
C11 C 0.4240(2) -0.0212(3) 1.1228(4)
C12 C 0.4031(2) -0.0562(3) 1.0230(4)
H6 H 0.4312 -0.0868 0.9960
C13 C 0.33904(19) -0.0462(2) 0.9604(4)
H7 H 0.3255 -0.0705 0.8916
C14 C 0.4940(2) -0.0272(3) 1.1882(5)
H8 H 0.5119 -0.0716 1.1650
H9 H 0.5182 0.0127 1.1658
C15 C 0.1864(2) 0.0865(2) 0.6709(4)
H10 H 0.1486 0.0587 0.6580
C16 C 0.1980(3) 0.1279(3) 0.5834(4)
H11 H 0.1677 0.1288 0.5139
C17 C 0.2550(3) 0.1683(2) 0.5989(4)
C18 C 0.2957(3) 0.1662(3) 0.7038(5)
H12 H 0.3340 0.1932 0.7184
C19 C 0.2810(2) 0.1246(3) 0.7885(4)
H13 H 0.3100 0.1245 0.8594
C20 C 0.2685(3) 0.2158(3) 0.5047(5)
H14 H 0.3148 0.2263 0.5198
H15 H 0.2565 0.1898 0.4331
Zn1A Zn -0.207027(19) 0.02312(2) 1.60065(4)
Zn1A_2 Zn 0.792973(19) 0.02312(2) 1.60065(4)
Zn1D Zn -0.207027(19) -0.02312(2) 1.10065(4)
Zn1E Zn 0.207027(19) -0.02312(2) 1.39935(4)
Zn1F Zn 0.292973(19) 0.47688(2) 0.10065(4)
O1A O -0.14517(13) 0.05017(16) 1.1782(3)
O1D O -0.14517(13) -0.05017(16) 1.6782(3)
O1E O 0.14517(13) -0.05017(16) 0.8218(3)
N1A N 0.70368(15) -0.0034(2) 1.5048(3)
N1A_2 N -0.29632(15) -0.0034(2) 1.5048(3)
C1A C -0.12084(17) 0.1479(2) 1.3078(3)
O3A O -0.22443(13) 0.09441(18) 1.2482(2)
N2F N 0.27302(16) 0.41568(18) 0.2264(3)
N2A N -0.22698(16) 0.08432(18) 1.7264(3)
C2A C -0.1256(2) 0.1706(2) 1.4146(4)
O5A O -0.15903(13) 0.06572(16) 1.4959(3)
C3A C -0.0885(3) 0.2292(3) 1.4651(4)
H1A H -0.0924 0.2457 1.5358
C4A C -0.0458(2) 0.2632(3) 1.4102(5)
H2A H -0.0210 0.3023 1.4443
O6A O -0.2090(2) 0.1669(2) 1.5165(4)
C5A C -0.04007(18) 0.2391(2) 1.3060(4)
C6A C -0.07768(18) 0.1823(2) 1.2535(4)
H3A H -0.0742 0.1668 1.1819
C7A C -0.16763(18) 0.0941(2) 1.2418(3)
C8A C -0.1678(2) 0.1331(3) 1.4816(4)
C9A C 0.6832(2) 0.0287(3) 1.4054(4)
H4A H 0.7125 0.0570 1.3775
C10A C 0.6207(2) 0.0221(3) 1.3419(5)
H5A H 0.6082 0.0472 1.2737
C11A C 0.5760(2) -0.0212(3) 1.3772(4)
C12A C 0.5969(2) -0.0562(3) 1.4770(4)
H6A H 0.5688 -0.0868 1.5040
C13A C 0.66096(19) -0.0462(2) 1.5396(4)
H7A H 0.6745 -0.0705 1.6084
C14A C 0.5060(2) -0.0272(3) 1.3118(5)
H8A H 0.4881 -0.0716 1.3350
H9A H 0.4818 0.0127 1.3342
C15F C 0.3136(2) 0.4135(2) 0.3291(4)
H10F H 0.3514 0.4413 0.3420
C16F C 0.3020(3) 0.3721(3) 0.4166(4)
H11F H 0.3323 0.3712 0.4861
C17F C 0.2450(3) 0.3317(2) 0.4011(4)
C18F C 0.2043(3) 0.3338(3) 0.2962(5)
H12F H 0.1660 0.3068 0.2816
C19F C 0.2190(2) 0.3754(3) 0.2115(4)
H13F H 0.1900 0.3755 0.1406
C20F C 0.2315(3) 0.2842(3) 0.4953(5)
H14F H 0.1852 0.2737 0.4802
H15F H 0.2435 0.3102 0.5669
O2 O 0.1867(3) 0.2854(3) 0.8062(5)
O4 O 0.0583(8) 0.3135(12) 0.6720(9)
O8 O 0.0000 -0.0055(14) 1.2500
O9 O -0.0367(8) 0.0241(16) 1.0341(16)
loop_
_geom_bond_atom_site_label_1
_geom_bond_atom_site_label_2
_geom_bond_site_symmetry_1
_geom_bond_site_symmetry_2
Zn1 N1 1_555 1_555
O1 C7 1_555 1_555
N1 C9 1_555 1_555
C1 C2 1_555 1_555
O3 C7 1_555 1_555
N2 Zn1 1_555 1_555
C2 C3 1_555 1_555
O5 Zn1 1_555 1_555
C3 H1 1_555 1_555
C4 C3 1_555 1_555
H2 C4 1_555 1_555
O6 C8 1_555 1_555
O7 C5 1_555 1_555
C5 C4 1_555 1_555
C6 C1 1_555 1_555
H3 C6 1_555 1_555
C7 C1 1_555 1_555
C8 C2 1_555 1_555
C9 H4 1_555 1_555
C10 C9 1_555 1_555
H5 C10 1_555 1_555
C11 C10 1_555 1_555
C12 C11 1_555 1_555
H6 C12 1_555 1_555
C13 N1 1_555 1_555
H7 C13 1_555 1_555
C14 C11 1_555 1_555
H8 C14 1_555 1_555
H9 C14 1_555 1_555
C15 N2 1_555 1_555
H10 C15 1_555 1_555
C16 C15 1_555 1_555
H11 C16 1_555 1_555
C17 C16 1_555 1_555
C18 C17 1_555 1_555
H12 C18 1_555 1_555
C19 N2 1_555 1_555
H13 C19 1_555 1_555
C20 C17 1_555 1_555
H14 C20 1_555 1_555
H15 C20 1_555 1_555
Zn1A O1D 1_555 1_555
Zn1A_2 N1A 1_555 1_555
Zn1D O1A 1_555 1_555
Zn1E O1 1_555 1_555
Zn1F N2F 1_555 1_555
O1A C7A 1_555 1_555
O1E Zn1 1_555 1_555
N1A C9A 1_555 1_555
N1A_2 Zn1A 1_555 1_555
C1A C2A 1_555 1_555
O3A C7A 1_555 1_555
N2F C15F 1_555 1_555
N2A Zn1A 1_555 1_555
C2A C3A 1_555 1_555
O5A Zn1A 1_555 1_555
C3A H1A 1_555 1_555
C4A C3A 1_555 1_555
H2A C4A 1_555 1_555
O6A C8A 1_555 1_555
C5A O7 1_555 1_555
C6A C1A 1_555 1_555
H3A C6A 1_555 1_555
C7A C1A 1_555 1_555
C8A C2A 1_555 1_555
C9A H4A 1_555 1_555
C10A C9A 1_555 1_555
H5A C10A 1_555 1_555
C11A C10A 1_555 1_555
C12A C11A 1_555 1_555
H6A C12A 1_555 1_555
C13A N1A 1_555 1_555
H7A C13A 1_555 1_555
C14A C14 1_555 1_555
H8A C14A 1_555 1_555
H9A C14A 1_555 1_555
C15F H10F 1_555 1_555
C16F C15F 1_555 1_555
H11F C16F 1_555 1_555
C17F C16F 1_555 1_555
C18F C17F 1_555 1_555
H12F C18F 1_555 1_555
C19F N2F 1_555 1_555
H13F C19F 1_555 1_555
C20F C20 1_555 1_555
H14F C20F 1_555 1_555
H15F C20F 1_555 1_555
O5 C8 1_555 1_555
C5 C6 1_555 1_555
C12 C13 1_555 1_555
C18 C19 1_555 1_555
O5A C8A 1_555 1_555
C4A C5A 1_555 1_555
C5A C6A 1_555 1_555
C11A C14A 1_555 1_555
C12A C13A 1_555 1_555
C17F C20F 1_555 1_555
C18F C19F 1_555 1_555

#END
