
#######################################################################
#
#                 Cambridge Crystallographic Data Centre
#                                CCDC 
#
#######################################################################
#
# If this CIF has been generated from an entry in the Cambridge 
# Structural Database, then it will include bibliographic, chemical, 
# crystal, experimental, refinement or atomic coordinate data resulting 
# from the CCDC's data processing and validation procedures.
#
#######################################################################

data_YARYOF
_symmetry_cell_setting           monoclinic
_symmetry_space_group_name_H-M   'C c'
_symmetry_Int_Tables_number      9
_space_group_name_Hall           'C -2yc'
loop_
_symmetry_equiv_pos_site_id
_symmetry_equiv_pos_as_xyz
1 x,y,z
2 1/2+x,1/2+y,z
3 x,-y,1/2+z
4 1/2+x,1/2-y,1/2+z
_cell_length_a                   11.027(1)
_cell_length_b                   12.0767(9)
_cell_length_c                   15.837(1)
_cell_angle_alpha                90
_cell_angle_beta                 92.059(9)
_cell_angle_gamma                90
_cell_volume                     2107.65
loop_
_atom_site_label
_atom_site_type_symbol
_atom_site_fract_x
_atom_site_fract_y
_atom_site_fract_z
Cd1 Cd -0.0034(1) 0.48929(3) 0.25044(7)
Cd2 Cd 0.25000 0.25367(8) 0.00000
N1 N 0.1543(9) 0.3387(8) 0.1093(6)
N2 N 0.3547(9) 0.1667(8) -0.1111(7)
N3 N 0.1587(9) 0.6303(7) 0.3988(6)
N4 N -0.1653(9) 0.6309(8) 0.1036(6)
N5 N -0.0836(9) -0.1303(8) 0.0372(6)
N6 N 0.0838(11) 0.1299(8) -0.0282(9)
C1 C 0.1050(9) 0.3917(9) 0.1618(8)
C2 C 0.3954(10) 0.1248(9) -0.1642(7)
C3 C 0.1057(8) 0.5868(7) 0.3469(7)
C4 C -0.1147(11) 0.5841(7) 0.1570(7)
C5 C -0.0517(9) -0.0355(9) -0.0125(7)
C6 C 0.0502(12) 0.0373(10) 0.0183(9)
H1 H -0.00781 -0.18830 0.04042
H2 H -0.10442 -0.10365 0.10079
H3 H -0.13500 0.01282 -0.01840
H4 H -0.03066 -0.06980 -0.07399
H5 H 0.02914 0.07158 0.07972
H6 H 0.13350 -0.01109 0.02419
H7 H 0.10447 0.10460 -0.09216
H8 H 0.00950 0.18943 -0.03070
C2C C -0.1046(10) 0.3752(9) 0.3358(7)
N3B N 0.1587(9) 0.3697(7) -0.1012(6)
N4A N 0.3347(9) 0.1309(8) 0.1036(6)
Cd2B Cd 0.25000 0.74633(8) 0.50000
Cd2A Cd -0.25000 0.75367(8) 0.00000
Cd1C Cd 0.4966(1) 0.01071(3) -0.24956(7)
N5A N 0.4164(9) 0.3697(8) 0.0372(6)
Cd2A_2 Cd -0.25000 -0.24633(8) 0.00000
H1A H 0.49219 0.31170 0.04042
H2A H 0.39558 0.39635 0.10079
N7 N 0.2699(14) 0.1156(10) 0.4011(8)
C7 C 0.2590(9) 0.1910(6) 0.4651(6)
C8 C 0.3272(10) 0.1827(10) 0.5403(9)
C9 C 0.3112(16) 0.2564(9) 0.6026(9)
C10 C 0.2280(14) 0.3406(10) 0.5964(9)
C11 C 0.1634(11) 0.3560(11) 0.5187(9)
C12 C 0.1794(13) 0.2803(12) 0.4562(8)
H9 H 0.33737 0.05322 0.41916
H10 H 0.18310 0.07529 0.38678
H11 H 0.39374 0.11793 0.55038
H12 H 0.36710 0.24759 0.65964
H13 H 0.21400 0.39277 0.65052
H14 H 0.10239 0.42477 0.50730
H15 H 0.12737 0.29142 0.39776
N8 N 0.5975(11) 0.6431(8) 0.2424(7)
C13 C 0.5379(9) 0.5374(7) 0.2469(6)
C14 C 0.6030(12) 0.4444(10) 0.2321(6)
C15 C 0.5507(13) 0.3406(9) 0.2487(7)
C16 C 0.4345(13) 0.3320(9) 0.2732(8)
C17 C 0.3690(10) 0.4318(10) 0.2882(6)
C18 C 0.4169(9) 0.5310(9) 0.2736(7)
H16 H 0.62610 0.65073 0.17764
H17 H 0.53519 0.71106 0.25615
H18 H 0.69295 0.45272 0.20811
H19 H 0.60154 0.26477 0.24231
H20 H 0.39636 0.25028 0.28032
H21 H 0.27838 0.43223 0.31193
H22 H 0.36051 0.60274 0.28295
loop_
_geom_bond_atom_site_label_1
_geom_bond_atom_site_label_2
_geom_bond_site_symmetry_1
_geom_bond_site_symmetry_2
Cd1 C1 1_555 1_555
Cd2 N1 1_555 1_555
N1 C1 1_555 1_555
N2 Cd2 1_555 1_555
N3 C3 1_555 1_555
N4 C4 1_555 1_555
N5 C5 1_555 1_555
N6 Cd2 1_555 1_555
C2 N2 1_555 1_555
C3 Cd1 1_555 1_555
C4 Cd1 1_555 1_555
C5 C6 1_555 1_555
C6 N6 1_555 1_555
N7 C7 1_555 1_555
C7 C8 1_555 1_555
C8 C9 1_555 1_555
C9 C10 1_555 1_555
C10 C11 1_555 1_555
C11 C12 1_555 1_555
C12 C7 1_555 1_555
N8 C13 1_555 1_555
C13 C14 1_555 1_555
C14 C15 1_555 1_555
C15 C16 1_555 1_555
C16 C17 1_555 1_555
C17 C18 1_555 1_555
C18 C13 1_555 1_555
H1 N5 1_555 1_555
H2 N5 1_555 1_555
H3 C5 1_555 1_555
H4 C5 1_555 1_555
H5 C6 1_555 1_555
H6 C6 1_555 1_555
H7 N6 1_555 1_555
H8 N6 1_555 1_555
H9 N7 1_555 1_555
H10 N7 1_555 1_555
H11 C8 1_555 1_555
H12 C9 1_555 1_555
H13 C10 1_555 1_555
H14 C11 1_555 1_555
H15 C12 1_555 1_555
H16 N8 1_555 1_555
H17 N8 1_555 1_555
H18 C14 1_555 1_555
H19 C15 1_555 1_555
H20 C16 1_555 1_555
H21 C17 1_555 1_555
H22 C18 1_555 1_555
C2C Cd1 1_555 1_555
N3B Cd2 1_555 1_555
N4A Cd2 1_555 1_555
Cd2B N3 1_555 1_555
Cd2A N4 1_555 1_555
Cd1C C2 1_555 1_555
N5A Cd2 1_555 1_555
Cd2A_2 N5 1_555 1_555
H1A N5A 1_555 1_555
H2A N5A 1_555 1_555

#END
