
#######################################################################
#
#                 Cambridge Crystallographic Data Centre
#                                CCDC 
#
#######################################################################
#
# If this CIF has been generated from an entry in the Cambridge 
# Structural Database, then it will include bibliographic, chemical, 
# crystal, experimental, refinement or atomic coordinate data resulting 
# from the CCDC's data processing and validation procedures.
#
#######################################################################

data_YASNAJ
_symmetry_cell_setting           monoclinic
_symmetry_space_group_name_H-M   'C 2/c'
_symmetry_Int_Tables_number      15
_space_group_name_Hall           '-C 2yn'
loop_
_symmetry_equiv_pos_site_id
_symmetry_equiv_pos_as_xyz
1 x,y,z
2 -x,y,1/2-z
3 1/2+x,1/2+y,z
4 1/2-x,1/2+y,1/2-z
5 -x,-y,-z
6 x,-y,1/2+z
7 1/2-x,1/2-y,-z
8 1/2+x,1/2-y,1/2+z
_cell_length_a                   15.639(2)
_cell_length_b                   27.036(2)
_cell_length_c                   16.7178(18)
_cell_angle_alpha                90
_cell_angle_beta                 112.050(3)
_cell_angle_gamma                90
_cell_volume                     6551.54
loop_
_atom_site_label
_atom_site_type_symbol
_atom_site_fract_x
_atom_site_fract_y
_atom_site_fract_z
C1 C 1.0500(2) 0.64995(11) 0.3614(2)
H1 H 1.0164 0.6792 0.3461
C2 C 1.0032(2) 0.60709(11) 0.3589(2)
H2 H 0.9395 0.6078 0.3424
C3 C 1.0497(2) 0.56252(10) 0.3805(2)
C4 C 1.1438(2) 0.56469(11) 0.4050(3)
H3 H 1.1787 0.5359 0.4202
C5 C 1.1867(2) 0.60960(12) 0.4070(3)
H4 H 1.2507 0.6100 0.4248
C6 C 1.0019(2) 0.51509(11) 0.3775(2)
C7 C 0.9188(2) 0.51281(12) 0.3897(3)
H5 H 0.8919 0.5418 0.3989
C8 C 0.8760(3) 0.46835(13) 0.3883(3)
H6 H 0.8204 0.4677 0.3965
C9 C 0.9141(2) 0.42452(11) 0.3749(2)
C10 C 0.9962(2) 0.42667(12) 0.3626(3)
H7 H 1.0233 0.3976 0.3539
C11 C 1.0389(2) 0.47158(12) 0.3630(3)
H8 H 1.0937 0.4723 0.3532
C12 C 0.8681(2) 0.37670(11) 0.3739(2)
C13 C 0.7736(2) 0.37211(11) 0.3429(2)
H9 H 0.7366 0.3998 0.3222
C14 C 0.7337(2) 0.32688(12) 0.3424(2)
H10 H 0.6697 0.3250 0.3205
C15 C 0.8728(2) 0.28979(12) 0.4002(3)
H11 H 0.9081 0.2614 0.4195
C16 C 0.9178(2) 0.33353(12) 0.4030(3)
H12 H 0.9819 0.3343 0.4245
C17 C 1.1147(2) 0.78915(10) 0.4474(2)
C18 C 1.0283(2) 0.81652(10) 0.44041(19)
C19 C 1.0327(3) 0.85546(13) 0.4957(3)
H13 H 1.0893 0.8649 0.5369
C20 C 0.9545(3) 0.88005(16) 0.4900(3)
H14 H 0.9575 0.9069 0.5259
C21 C 0.8707(2) 0.86450(14) 0.4303(3)
C22 C 0.8646(2) 0.82590(15) 0.3769(2)
H15 H 0.8074 0.8157 0.3379
C23 C 0.9439(2) 0.80182(13) 0.3809(2)
H16 H 0.9405 0.7757 0.3436
C24 C 0.7502(3) 0.87384(16) 0.5165(2)
C25 C 0.7900(4) 0.89892(17) 0.5945(3)
H17 H 0.8219 0.9283 0.5975
C26 C 0.7815(3) 0.87948(15) 0.6667(3)
H18 H 0.8090 0.8956 0.7193
C27 C 0.7330(2) 0.83663(13) 0.6628(2)
C28 C 0.6915(3) 0.81321(16) 0.5840(2)
H19 H 0.6571 0.7847 0.5804
C29 C 0.7005(3) 0.83154(17) 0.5119(2)
H20 H 0.6729 0.8153 0.4594
C30 C 0.7266(2) 0.81511(12) 0.7434(2)
Co1 Co 1.21314(3) 0.718090(12) 0.37919(2)
N1 N 1.14144(16) 0.65225(8) 0.38475(16)
N2 N 0.78175(18) 0.28538(8) 0.37160(17)
O1 O 1.18725(14) 0.80111(8) 0.50752(13)
O2 O 1.10737(13) 0.75686(7) 0.39141(14)
O3 O 0.7866(3) 0.94717(13) 0.4350(3)
O4 O 0.6940(2) 0.87890(17) 0.3498(2)
O5 O 0.78873(15) 0.82419(8) 0.81367(14)
O6 O 0.65911(17) 0.78830(8) 0.73837(15)
S1 S 0.76823(8) 0.89575(5) 0.42463(8)
Co1B Co 0.71314(3) 0.218090(12) 0.37919(2)
Co1F Co 1.28686(3) 0.781910(12) 0.62081(2)
Co1G Co 0.71314(3) 0.781910(12) 0.87919(2)
N2B N 1.28175(18) 0.78538(8) 0.37160(17)
O1F O 1.31275(14) 0.69889(8) 0.49248(13)
O5G O 1.28873(15) 0.67581(8) 0.31367(14)
O6G O 1.15911(17) 0.71170(8) 0.23837(15)
O7 O 0.5000 0.2727(9) 0.7500
O8 O 0.4222(10) 0.2627(5) 0.5925(10)
H23 H 0.3993 0.2573 0.6305
H24 H 0.4766 0.2740 0.6167
H21? H 0.4810 0.2679 0.7908
H22? H 0.5458 0.2539 0.7567
loop_
_geom_bond_atom_site_label_1
_geom_bond_atom_site_label_2
_geom_bond_site_symmetry_1
_geom_bond_site_symmetry_2
C1 H1 1_555 1_555
C2 C1 1_555 1_555
H2 C2 1_555 1_555
C3 C2 1_555 1_555
C4 C3 1_555 1_555
H3 C4 1_555 1_555
C5 C4 1_555 1_555
H4 C5 1_555 1_555
C6 C3 1_555 1_555
C7 C6 1_555 1_555
H5 C7 1_555 1_555
C8 C7 1_555 1_555
H6 C8 1_555 1_555
C9 C8 1_555 1_555
C10 C9 1_555 1_555
H7 C10 1_555 1_555
C11 C6 1_555 1_555
H8 C11 1_555 1_555
C12 C9 1_555 1_555
C13 C12 1_555 1_555
H9 C13 1_555 1_555
C14 C13 1_555 1_555
H10 C14 1_555 1_555
C15 H11 1_555 1_555
C16 C12 1_555 1_555
H12 C16 1_555 1_555
C17 C18 1_555 1_555
C18 C19 1_555 1_555
C19 H13 1_555 1_555
C20 C19 1_555 1_555
H14 C20 1_555 1_555
C21 C20 1_555 1_555
C22 C21 1_555 1_555
H15 C22 1_555 1_555
C23 C18 1_555 1_555
H16 C23 1_555 1_555
C24 C25 1_555 1_555
C25 H17 1_555 1_555
C26 C25 1_555 1_555
H18 C26 1_555 1_555
C27 C26 1_555 1_555
C28 C27 1_555 1_555
H19 C28 1_555 1_555
C29 C24 1_555 1_555
H20 C29 1_555 1_555
C30 C27 1_555 1_555
Co1 N1 1_555 1_555
N1 C1 1_555 1_555
N2 C14 1_555 1_555
O1 C17 1_555 1_555
O2 C17 1_555 1_555
O3 S1 1_555 1_555
O4 S1 1_555 1_555
O5 C30 1_555 1_555
O6 C30 1_555 1_555
O8 H23 1_555 1_555
H24 O8 1_555 1_555
S1 C21 1_555 1_555
Co1B N2 1_555 1_555
Co1F O1 1_555 1_555
Co1G O5 1_555 1_555
N2B Co1 1_555 1_555
O1F Co1 1_555 1_555
O5G Co1 1_555 1_555
O6G Co1 1_555 1_555
C5 N1 1_555 1_555
C10 C11 1_555 1_555
C15 C16 1_555 1_555
C15 N2 1_555 1_555
C22 C23 1_555 1_555
C24 S1 1_555 1_555
C28 C29 1_555 1_555
Co1 O2 1_555 1_555
O6 Co1G 1_555 1_555

#END
