
#######################################################################
#
#                 Cambridge Crystallographic Data Centre
#                                CCDC 
#
#######################################################################
#
# If this CIF has been generated from an entry in the Cambridge 
# Structural Database, then it will include bibliographic, chemical, 
# crystal, experimental, refinement or atomic coordinate data resulting 
# from the CCDC's data processing and validation procedures.
#
#######################################################################

data_YASPEP
_symmetry_cell_setting           monoclinic
_symmetry_space_group_name_H-M   'P 21/n'
_symmetry_Int_Tables_number      14
_space_group_name_Hall           '-P 2yn'
loop_
_symmetry_equiv_pos_site_id
_symmetry_equiv_pos_as_xyz
1 x,y,z
2 1/2-x,1/2+y,1/2-z
3 -x,-y,-z
4 1/2+x,1/2-y,1/2+z
_cell_length_a                   6.277(2)
_cell_length_b                   17.702(7)
_cell_length_c                   20.486(8)
_cell_angle_alpha                90
_cell_angle_beta                 97.565(5)
_cell_angle_gamma                90
_cell_volume                     2256.5
loop_
_atom_site_label
_atom_site_type_symbol
_atom_site_fract_x
_atom_site_fract_y
_atom_site_fract_z
Zn1 Zn 0.81040(10) 0.48725(3) 0.22362(3)
O1 O 0.5878(8) 0.4163(2) 0.2448(2)
O2 O 0.6987(12) 0.3571(3) 0.1657(4)
O3 O 0.8114(7) 0.0865(2) 0.2928(2)
O4 O 0.8431(8) 0.1194(3) 0.1907(2)
N1 N 1.0189(7) 0.4751(2) 0.3083(2)
N2 N 1.0090(8) 0.4931(3) 0.1514(2)
C1 C 0.5774(9) 0.2711(3) 0.3074(3)
C2 C 0.7800(9) 0.2391(3) 0.3264(3)
C3 C 0.8478(12) 0.2297(3) 0.3930(3)
H7 H 0.9826 0.2090 0.4066
C4 C 0.7184(15) 0.2504(4) 0.4397(3)
H8 H 0.7665 0.2431 0.4841
C5 C 0.5221(14) 0.2813(4) 0.4212(3)
H9 H 0.4359 0.2953 0.4528
C6 C 0.4516(11) 0.2917(3) 0.3553(3)
H10 H 0.3170 0.3130 0.3427
C7 C 0.4980(9) 0.2868(3) 0.2359(3)
H11 H 0.3431 0.2930 0.2303
H12 H 0.5313 0.2441 0.2093
C8 C 0.6016(9) 0.3576(3) 0.2126(3)
C9 C 0.9185(9) 0.2111(3) 0.2763(3)
H13 H 0.9091 0.2465 0.2400
H14 H 1.0671 0.2094 0.2966
C10 C 0.8534(8) 0.1340(3) 0.2501(3)
C11 C 1.2174(10) 0.5033(3) 0.3138(3)
H15 H 1.2645 0.5247 0.2768
C12 C 1.3544(10) 0.5023(4) 0.3710(3)
H16 H 1.4910 0.5231 0.3725
C13 C 1.2905(10) 0.4699(3) 0.4277(3)
C14 C 1.0856(9) 0.4390(3) 0.4211(3)
H17 H 1.0355 0.4162 0.4570
C15 C 0.9570(9) 0.4420(3) 0.3617(3)
H18 H 0.8211 0.4203 0.3582
C16 C 1.4352(14) 0.4682(4) 0.4916(3)
H19 H 1.3469 0.4601 0.5265
H20 H 1.5288 0.4247 0.4912
C17 C 1.0444(10) 0.5596(4) 0.1225(3)
H21 H 0.9825 0.6031 0.1371
C18 C 1.1672(11) 0.5654(5) 0.0728(4)
H22 H 1.1870 0.6123 0.0541
C19 C 1.2628(12) 0.5023(5) 0.0498(4)
C20 C 1.2320(11) 0.4351(5) 0.0811(3)
H23 H 1.2996 0.3916 0.0687
C21 C 1.1037(10) 0.4310(4) 0.1302(3)
H24 H 1.0815 0.3845 0.1493
C22 C 1.3992(15) 0.5064(8) -0.0057(5)
H25 H 1.3391 0.4711 -0.0394
H26 H 1.3810 0.5566 -0.0247
Zn1B Zn 2.18960(10) 0.51275(3) -0.22362(3)
Zn1A Zn 0.68960(10) -0.01275(3) 0.27638(3)
Zn1B_2 Zn 2.18960(10) 0.51275(3) 0.77638(3)
Zn1C Zn 2.31040(10) 1.01275(3) -0.27638(3)
O1B O 2.4122(8) 0.5837(2) -0.2448(2)
O2B O 2.3013(12) 0.6429(3) -0.1657(4)
O3B O 2.1886(7) 0.9135(2) -0.2928(2)
O3A O 0.6886(7) 0.5865(2) 0.2072(2)
O3C O 2.3114(7) 0.4135(2) -0.2072(2)
O4B O 2.1569(8) 0.8806(3) -0.1907(2)
N1B N 1.9811(7) 0.5249(2) 0.6917(2)
N1B_2 N 1.9811(7) 0.5249(2) -0.3083(2)
N2B N 1.9910(8) 0.5069(3) -0.1514(2)
C1B C 2.4226(9) 0.7289(3) -0.3074(3)
C2B C 2.2200(9) 0.7609(3) -0.3264(3)
C3B C 2.1522(12) 0.7703(3) -0.3930(3)
H7B H 2.0174 0.7910 -0.4066
C4B C 2.2816(15) 0.7496(4) -0.4397(3)
H8B H 2.2335 0.7569 -0.4841
C5B C 2.4779(14) 0.7187(4) -0.4212(3)
H9B H 2.5641 0.7047 -0.4528
C6B C 2.5484(11) 0.7083(3) -0.3553(3)
H10B H 2.6830 0.6870 -0.3427
C7B C 2.5020(9) 0.7132(3) -0.2359(3)
H11B H 2.6569 0.7070 -0.2303
H12B H 2.4687 0.7559 -0.2093
C8B C 2.3984(9) 0.6424(3) -0.2126(3)
C9B C 2.0815(9) 0.7889(3) -0.2763(3)
H13B H 2.0909 0.7535 -0.2400
H14B H 1.9329 0.7906 -0.2966
C10B C 2.1466(8) 0.8660(3) -0.2501(3)
C11B C 1.7826(10) 0.4967(3) 0.6862(3)
H15B H 1.7355 0.4753 0.7232
C12B C 1.6456(10) 0.4977(4) 0.6290(3)
H16B H 1.5090 0.4769 0.6275
C13B C 1.7095(10) 0.5301(3) 0.5723(3)
C14B C 1.9144(9) 0.5610(3) 0.5789(3)
H17B H 1.9645 0.5838 0.5430
C15B C 2.0430(9) 0.5580(3) 0.6383(3)
H18B H 2.1789 0.5797 0.6418
C16B C 1.5648(14) 0.5318(4) 0.5084(3)
H19B H 1.6531 0.5399 0.4735
H20B H 1.4712 0.5753 0.5088
C17B C 1.9556(10) 0.4404(4) -0.1225(3)
H21B H 2.0175 0.3969 -0.1371
C18B C 1.8328(11) 0.4346(5) -0.0728(4)
H22B H 1.8130 0.3877 -0.0541
C19B C 1.7372(12) 0.4977(5) -0.0498(4)
C20B C 1.7680(11) 0.5649(5) -0.0811(3)
H23B H 1.7004 0.6084 -0.0687
C21B C 1.8963(10) 0.5690(4) -0.1302(3)
H24B H 1.9185 0.6155 -0.1493
C22B C 1.6008(15) 0.4936(8) 0.0057(5)
H25B H 1.6609 0.5289 0.0394
H26B H 1.6190 0.4434 0.0247
O5 O 0.5031(8) 0.1483(3) 0.0800(3)
H1 H 0.6011 0.1397 0.1119
H2 H 0.5552 0.1913 0.0727
O6 O 0.0992(9) 0.2064(3) 0.1080(3)
H3 H -0.0012 0.1778 0.1175
H4 H 0.2245 0.1927 0.1016
O7 O 0.7271(10) 0.2801(4) 0.0492(3)
H5 H 0.7273 0.3033 0.0855
H6 H 0.8610 0.2758 0.0621
loop_
_geom_bond_atom_site_label_1
_geom_bond_atom_site_label_2
_geom_bond_site_symmetry_1
_geom_bond_site_symmetry_2
Zn1 O1 1_555 1_555
O1 C8 1_555 1_555
O2 C8 1_555 1_555
O3 C10 1_555 1_555
O4 C10 1_555 1_555
O5 H1 1_555 1_555
H2 O5 1_555 1_555
O6 H3 1_555 1_555
H4 O6 1_555 1_555
O7 H5 1_555 1_555
H6 O7 1_555 1_555
N1 Zn1 1_555 1_555
N2 Zn1 1_555 1_555
C1 C2 1_555 1_555
C2 C3 1_555 1_555
C3 H7 1_555 1_555
C4 C3 1_555 1_555
H8 C4 1_555 1_555
C5 C4 1_555 1_555
H9 C5 1_555 1_555
C6 C1 1_555 1_555
H10 C6 1_555 1_555
C7 C1 1_555 1_555
H11 C7 1_555 1_555
H12 C7 1_555 1_555
C8 C7 1_555 1_555
C9 C2 1_555 1_555
H13 C9 1_555 1_555
H14 C9 1_555 1_555
C10 C9 1_555 1_555
C11 N1 1_555 1_555
H15 C11 1_555 1_555
C12 C11 1_555 1_555
H16 C12 1_555 1_555
C13 C12 1_555 1_555
C14 C13 1_555 1_555
H17 C14 1_555 1_555
C15 N1 1_555 1_555
H18 C15 1_555 1_555
C16 C13 1_555 1_555
H19 C16 1_555 1_555
H20 C16 1_555 1_555
C17 N2 1_555 1_555
H21 C17 1_555 1_555
C18 C17 1_555 1_555
H22 C18 1_555 1_555
C19 C18 1_555 1_555
C20 C19 1_555 1_555
H23 C20 1_555 1_555
C21 N2 1_555 1_555
H24 C21 1_555 1_555
C22 C19 1_555 1_555
H25 C22 1_555 1_555
H26 C22 1_555 1_555
Zn1B O1B 1_555 1_555
Zn1A O3 1_555 1_555
Zn1B_2 N1B 1_555 1_555
Zn1C O3B 1_555 1_555
O1B C8B 1_555 1_555
O2B C8B 1_555 1_555
O3B C10B 1_555 1_555
O3A Zn1 1_555 1_555
O3C Zn1B 1_555 1_555
O4B C10B 1_555 1_555
N1B C11B 1_555 1_555
N1B_2 Zn1B 1_555 1_555
N2B Zn1B 1_555 1_555
C1B C2B 1_555 1_555
C2B C3B 1_555 1_555
C3B H7B 1_555 1_555
C4B C3B 1_555 1_555
H8B C4B 1_555 1_555
C5B C4B 1_555 1_555
H9B C5B 1_555 1_555
C6B C1B 1_555 1_555
H10B C6B 1_555 1_555
C7B C1B 1_555 1_555
H11B C7B 1_555 1_555
H12B C7B 1_555 1_555
C8B C7B 1_555 1_555
C9B C2B 1_555 1_555
H13B C9B 1_555 1_555
H14B C9B 1_555 1_555
C10B C9B 1_555 1_555
C11B H15B 1_555 1_555
C12B C11B 1_555 1_555
H16B C12B 1_555 1_555
C13B C12B 1_555 1_555
C14B C13B 1_555 1_555
H17B C14B 1_555 1_555
C15B N1B 1_555 1_555
H18B C15B 1_555 1_555
C16B C16 1_555 1_555
H19B C16B 1_555 1_555
H20B C16B 1_555 1_555
C17B N2B 1_555 1_555
H21B C17B 1_555 1_555
C18B C17B 1_555 1_555
H22B C18B 1_555 1_555
C19B C18B 1_555 1_555
C20B C19B 1_555 1_555
H23B C20B 1_555 1_555
C21B N2B 1_555 1_555
H24B C21B 1_555 1_555
C22B C22 1_555 1_555
H25B C22B 1_555 1_555
H26B C22B 1_555 1_555
C5 C6 1_555 1_555
C14 C15 1_555 1_555
C20 C21 1_555 1_555
C5B C6B 1_555 1_555
C13B C16B 1_555 1_555
C14B C15B 1_555 1_555
C19B C22B 1_555 1_555
C20B C21B 1_555 1_555

#END
