
#######################################################################
#
#                 Cambridge Crystallographic Data Centre
#                                CCDC 
#
#######################################################################
#
# If this CIF has been generated from an entry in the Cambridge 
# Structural Database, then it will include bibliographic, chemical, 
# crystal, experimental, refinement or atomic coordinate data resulting 
# from the CCDC's data processing and validation procedures.
#
#######################################################################

data_YEYBOV
_symmetry_cell_setting           monoclinic
_symmetry_space_group_name_H-M   'C 2/c'
_symmetry_Int_Tables_number      15
_space_group_name_Hall           '-C 2yn'
loop_
_symmetry_equiv_pos_site_id
_symmetry_equiv_pos_as_xyz
1 x,y,z
2 -x,y,1/2-z
3 1/2+x,1/2+y,z
4 1/2-x,1/2+y,1/2-z
5 -x,-y,-z
6 x,-y,1/2+z
7 1/2-x,1/2-y,-z
8 1/2+x,1/2-y,1/2+z
_cell_length_a                   20.180(2)
_cell_length_b                   21.212(2)
_cell_length_c                   8.3079(8)
_cell_angle_alpha                90
_cell_angle_beta                 107.612(6)
_cell_angle_gamma                90
_cell_volume                     3389.57
loop_
_atom_site_label
_atom_site_type_symbol
_atom_site_fract_x
_atom_site_fract_y
_atom_site_fract_z
O1 O 0.0247(2) 0.14057(19) -0.0300(5)
P1 P 0.07328(8) 0.19328(7) 0.00752(18)
O2 O 0.07828(19) 0.02991(17) 0.4976(5)
Ba1 Ba 0.0000 0.043494(16) 0.7500
P2 P 0.13924(6) 0.06654(6) 0.60156(16)
O3 O 0.2084(2) 0.0277(2) 0.6343(8)
O4 O 0.1315(2) 0.08841(19) 0.7675(4)
O5 O 0.0396(3) 0.2589(3) -0.0248(8)
C1 C 0.1577(3) 0.1331(3) 0.4865(6)
C2 C 0.2119(3) 0.1757(3) 0.5596(6)
C3 C 0.2228(3) 0.2278(3) 0.4635(6)
C4 C 0.1800(3) 0.2358(3) 0.2939(7)
C5 C 0.1926(3) 0.2888(3) 0.2009(7)
H1 H 0.1650 0.2946 0.0899
C6 C 0.2564(3) 0.1695(3) 0.7294(7)
H2 H 0.2500 0.1356 0.7939
C7 C 0.1265(3) 0.1916(3) 0.2238(7)
C8 C 0.1161(3) 0.1419(3) 0.3225(6)
H3 H 0.0801 0.1138 0.2765
C9 C 0.2165(7) -0.0316(6) 0.673(2)
H4 H 0.1830 -0.0553 0.5850
H5 H 0.2051 -0.0381 0.7768
C10 C -0.0235(10) 0.2713(6) 0.006(3)
H6 H -0.0162 0.2687 0.1268
H7 H -0.0565 0.2387 -0.0473
O6 O 0.1225(3) 0.1959(2) -0.1054(5)
C11 C 0.2853(10) -0.0579(8) 0.694(3)
H8 H 0.3049 -0.0388 0.6139
H9 H 0.2815 -0.1026 0.6750
H10 H 0.3147 -0.0497 0.8063
C12 C -0.0536(15) 0.3315(11) -0.053(4)
H11 H -0.0601 0.3550 0.0403
H12 H -0.0977 0.3255 -0.1369
H13 H -0.0232 0.3544 -0.1008
O1F O 0.4753(2) 0.35943(19) 1.0300(5)
P1F P 0.42672(8) 0.30672(7) 0.99248(18)
O2F O 0.42172(19) 0.47009(17) 0.5024(5)
P2F P 0.36076(6) 0.43346(6) 0.39844(16)
O3F O 0.2916(2) 0.4723(2) 0.3657(8)
O4F O 0.3685(2) 0.41159(19) 0.2325(4)
O5F O 0.4604(3) 0.2411(3) 1.0248(8)
C1F C 0.3423(3) 0.3669(3) 0.5135(6)
C2F C 0.2881(3) 0.3243(3) 0.4404(6)
C3F C 0.2772(3) 0.2722(3) 0.5365(6)
C4F C 0.3200(3) 0.2642(3) 0.7061(7)
C5F C 0.3074(3) 0.2112(3) 0.7991(7)
H1F H 0.3350 0.2054 0.9101
C6F C 0.2436(3) 0.3305(3) 0.2706(7)
H2F H 0.2500 0.3644 0.2061
C7F C 0.3735(3) 0.3084(3) 0.7762(7)
C8F C 0.3839(3) 0.3581(3) 0.6775(6)
H3F H 0.4199 0.3862 0.7235
C9F C 0.2835(7) 0.5316(6) 0.327(2)
H4F H 0.3170 0.5553 0.4150
H5F H 0.2949 0.5381 0.2232
C10F C 0.5235(10) 0.2287(6) 0.994(3)
H6F H 0.5162 0.2313 0.8732
H7F H 0.5565 0.2613 1.0473
O6F O 0.3775(3) 0.3041(2) 1.1054(5)
C11F C 0.2147(10) 0.5579(8) 0.306(3)
H8F H 0.1951 0.5388 0.3861
H9F H 0.2185 0.6026 0.3250
H10F H 0.1853 0.5497 0.1937
C12F C 0.5536(15) 0.1685(11) 1.053(4)
H11F H 0.5601 0.1450 0.9597
H12F H 0.5977 0.1745 1.1369
H13F H 0.5232 0.1456 1.1008
O1_2 O 0.0247(2) 0.14057(19) 0.9700(5)
O1A O -0.0247(2) 0.14057(19) 0.5300(5)
O2A O -0.07828(19) 0.02991(17) 1.0024(5)
O2D O -0.07828(19) -0.02991(17) 0.5024(5)
O2E O 0.07828(19) -0.02991(17) 0.9976(5)
Ba1_2 Ba 0.0000 0.043494(16) -0.2500
Ba1B Ba 0.5000 0.543494(16) 0.7500
Ba1D Ba 0.0000 -0.043494(16) 0.2500
Ba1F Ba 0.5000 0.456506(16) 0.2500
Ba1F_2 Ba 0.5000 0.456506(16) 1.2500
O4A O -0.1315(2) 0.08841(19) 0.7325(4)
loop_
_geom_bond_atom_site_label_1
_geom_bond_atom_site_label_2
_geom_bond_site_symmetry_1
_geom_bond_site_symmetry_2
O1 P1 1_555 1_555
P1 O5 1_555 1_555
O2 Ba1 1_555 1_555
Ba1 O4 1_555 1_555
P2 O2 1_555 1_555
O3 P2 1_555 1_555
O4 P2 1_555 1_555
O5 C10 1_555 1_555
C1 P2 1_555 1_555
C2 C1 1_555 1_555
C3 C2 1_555 1_555
C4 C3 1_555 1_555
C5 C4 1_555 1_555
H1 C5 1_555 1_555
C6 C2 1_555 1_555
H2 C6 1_555 1_555
C7 P1 1_555 1_555
C8 C1 1_555 1_555
H3 C8 1_555 1_555
C9 O3 1_555 1_555
H4 C9 1_555 1_555
H5 C9 1_555 1_555
C10 H6 1_555 1_555
H7 C10 1_555 1_555
O6 P1 1_555 1_555
C11 C9 1_555 1_555
H8 C11 1_555 1_555
H9 C11 1_555 1_555
H10 C11 1_555 1_555
C12 C10 1_555 1_555
H11 C12 1_555 1_555
H12 C12 1_555 1_555
H13 C12 1_555 1_555
O1F P1F 1_555 1_555
P1F O5F 1_555 1_555
O2F P2F 1_555 1_555
P2F O3F 1_555 1_555
O3F C9F 1_555 1_555
O4F P2F 1_555 1_555
O5F C10F 1_555 1_555
C1F P2F 1_555 1_555
C2F C1F 1_555 1_555
C3F C3 1_555 1_555
C4F C3F 1_555 1_555
C5F C6 1_555 1_555
H1F C5F 1_555 1_555
C6F C5 1_555 1_555
H2F C6F 1_555 1_555
C7F P1F 1_555 1_555
C8F C1F 1_555 1_555
H3F C8F 1_555 1_555
C9F H4F 1_555 1_555
H5F C9F 1_555 1_555
C10F H6F 1_555 1_555
H7F C10F 1_555 1_555
O6F P1F 1_555 1_555
C11F C9F 1_555 1_555
H8F C11F 1_555 1_555
H9F C11F 1_555 1_555
H10F C11F 1_555 1_555
C12F C10F 1_555 1_555
H11F C12F 1_555 1_555
H12F C12F 1_555 1_555
H13F C12F 1_555 1_555
O1_2 Ba1 1_555 1_555
O1A Ba1 1_555 1_555
O2A Ba1 1_555 1_555
O2D Ba1 1_555 1_555
O2E Ba1 1_555 1_555
Ba1_2 O1 1_555 1_555
Ba1B O2F 1_555 1_555
Ba1D O2 1_555 1_555
Ba1F O2F 1_555 1_555
Ba1F_2 O1F 1_555 1_555
O4A Ba1 1_555 1_555
C4 C7 1_555 1_555
C7 C8 1_555 1_555
O4F Ba1F 1_555 1_555
C2F C3F 1_555 1_555
C2F C6F 1_555 1_555
C4F C5F 1_555 1_555
C4F C7F 1_555 1_555
C7F C8F 1_555 1_555
O2D Ba1D 1_555 1_555

#END
