
#######################################################################
#
#                 Cambridge Crystallographic Data Centre
#                                CCDC 
#
#######################################################################
#
# If this CIF has been generated from an entry in the Cambridge 
# Structural Database, then it will include bibliographic, chemical, 
# crystal, experimental, refinement or atomic coordinate data resulting 
# from the CCDC's data processing and validation procedures.
#
#######################################################################

data_YEYYAC
_symmetry_cell_setting           hexagonal
_symmetry_space_group_name_H-M   'P 61'
_symmetry_Int_Tables_number      169
_space_group_name_Hall           'P 61'
loop_
_symmetry_equiv_pos_site_id
_symmetry_equiv_pos_as_xyz
1 x,y,z
2 -y,x-y,1/3+z
3 -x+y,-x,2/3+z
4 -x,-y,1/2+z
5 y,-x+y,5/6+z
6 x-y,x,1/6+z
_cell_length_a                   11.431(2)
_cell_length_b                   11.431(2)
_cell_length_c                   46.600(4)
_cell_angle_alpha                90
_cell_angle_beta                 90
_cell_angle_gamma                120
_cell_volume                     5273.33
loop_
_atom_site_label
_atom_site_type_symbol
_atom_site_fract_x
_atom_site_fract_y
_atom_site_fract_z
Co1 Co -0.01001(8) -0.01062(8) 0.0000
P1 P -0.0106(2) -0.0089(2) 0.05127(3)
O1 O 0.4747(4) 0.2302(5) 0.0621(1)
O2 O 0.4168(5) 0.0518(5) 0.0890(1)
O3 O -0.2561(5) -0.5048(5) 0.0579(1)
O4 O -0.3616(5) -0.4414(5) 0.0882(1)
O5 O -0.2695(5) 0.2078(5) 0.0616(1)
O6 O -0.0873(5) 0.3734(5) 0.0796(1)
C1 C 0.1569(6) 0.0785(7) 0.0678(2)
C2 C 0.2548(6) 0.0384(7) 0.0547(1)
C3 C 0.3903(6) 0.1087(7) 0.0701(1)
C4 C -0.0896(7) -0.1756(6) 0.0685(2)
C5 C -0.2194(6) -0.2793(6) 0.0526(2)
C6 C -0.2848(6) -0.4172(6) 0.0676(2)
C7 C -0.0971(6) 0.0728(6) 0.0677(2)
C8 C -0.0639(8) 0.2059(7) 0.0537(2)
C9 C -0.1423(7) 0.2671(7) 0.0658(2)
Co2 Co 0.65932(9) 0.31911(8) 0.07924(2)
P2 P 0.6678(2) 0.3199(2) 0.13059(4)
O7 O 0.8441(4) -0.0130(5) 0.1459(1)
O8 O 0.9428(4) 0.1765(5) 0.1700(1)
O9 O 0.1626(4) 0.1395(4) 0.1467(1)
O10 O 0.2536(5) 0.0484(5) 0.1733(1)
O11 O 0.9875(4) 0.8294(5) 0.1470(1)
O12 O 0.8122(5) 0.7294(5) 0.1758(1)
C10 C 0.7852(6) 0.2746(6) 0.1464(1)
C11 C 0.7536(7) 0.1329(7) 0.1403(2)
C12 C 0.8536(6) 0.0988(6) 0.1533(2)
C13 C 0.5093(6) 0.2023(6) 0.1483(2)
C14 C 0.3995(6) 0.2368(6) 0.1432(2)
C15 C 0.2647(7) 0.1322(7) 0.1555(2)
C16 C 0.7112(6) 0.4775(6) 0.1488(2)
C17 C 0.8537(7) 0.5928(6) 0.1422(2)
C18 C 0.8826(6) 0.7243(6) 0.1562(2)
H1 H 0.1946 0.1751 0.0657
H2 H 0.1480 0.0583 0.0882
H3 H 0.2162 -0.0587 0.0561
H4 H 0.2680 0.0627 0.0345
H5 H -0.0258 -0.2081 0.0688
H6 H -0.1119 -0.1673 0.0882
H7 H -0.2831 -0.2466 0.0520
H8 H -0.1972 -0.2891 0.0330
H9 H -0.1938 0.0117 0.0667
H10 H -0.0725 0.0889 0.0879
H11 H 0.0318 0.2693 0.0560
H12 H -0.0822 0.1911 0.0333
H13 H 0.8753 0.3366 0.1393
H14 H 0.7861 0.2864 0.1670
H15 H 0.7519 0.1203 0.1196
H16 H 0.6643 0.0704 0.1476
H17 H 0.4791 0.1117 0.1413
H18 H 0.5250 0.2030 0.1688
H19 H 0.3897 0.2444 0.1227
H20 H 0.4261 0.3239 0.1518
H21 H 0.6466 0.5050 0.1433
H22 H 0.7030 0.4616 0.1693
H23 H 0.9190 0.5685 0.1489
H24 H 0.8642 0.6057 0.1216
Co2_2 Co -0.34068(9) -0.68089(8) 0.07924(2)
Co2_3 Co -0.34068(9) 0.31911(8) 0.07924(2)
O3_2 O 0.7439(5) 0.4952(5) 0.0579(1)
O5_2 O 0.7305(5) 0.2078(5) 0.0616(1)
O7D O -0.0130(5) 0.1429(6) -0.0208(1)
O9D O 0.1395(4) -0.0231(6) -0.0200(1)
O11D O -0.1706(5) -0.1581(6) -0.0197(1)
Co1E Co 1.00061(11) -0.01001(8) 0.1667
Co1E_2 Co 0.00061(11) -0.01001(8) 0.1667
Co1E_3 Co 1.00061(11) 0.98999(8) 0.1667
Co3 Co 0.5582(1) 0.3068(1) -0.02235(3)
O13 O 0.4471(5) 0.3261(5) 0.0100(1)
O14 O 0.5785(7) 0.1504(6) -0.0010(1)
O15 O 0.5580(5) 0.4567(5) -0.0485(1)
O16 O 0.3794(5) 0.1748(5) -0.0441(1)
O17 O 0.7370(5) 0.4497(6) -0.0024(1)
O21 O 0.6848(5) 0.3026(5) -0.0531(1)
H25 H 0.4406 0.2788 0.0223
H26 H 0.3688 0.3133 0.0109
H27 H 0.6232 0.1155 -0.0141
H28 H 0.5042 0.0910 0.0056
H29 H 0.5275 0.4916 -0.0578
H30 H 0.6542 0.4962 -0.0600
H31 H 0.3113 0.1106 -0.0314
H32 H 0.3844 0.1557 -0.0625
H33 H 0.7255 0.4421 0.0152
H34 H 0.8159 0.5020 -0.0062
H41 H 0.6903 0.3230 -0.0708
H42 H 0.7076 0.2416 -0.0446
O18 O -0.0688(9) 0.3905(9) -0.1218(2)
H35 H -0.0792 0.3295 -0.1281
H36 H -0.1469 0.4109 -0.1169
O19 O 0.8304(5) 0.6274(5) -0.0483(1)
H37 H 0.8528 0.7142 -0.0399
H38 H 0.8887 0.6388 -0.0556
O20 O 0.7473(6) 0.1148(5) -0.0410(1)
H39 H 0.6991 0.0282 -0.0512
H40 H 0.7620 0.1809 -0.0524
O22 O 0.6704(8) 0.3500(7) -0.1103(1)
H43 H 0.6757 0.4449 -0.1093
O23 O 0.4298(6) 0.0879(6) -0.0954(2)
H45 H 0.4894 0.1819 -0.0974
H46 H 0.4653 0.0618 -0.0880
O24 O 0.6337(7) 0.5666(6) -0.1168(2)
H47 H 0.5614 0.5738 -0.1122
H48 H 0.6746 0.6221 -0.1300
H44? H 0.7763 0.3799 -0.1125
loop_
_geom_bond_atom_site_label_1
_geom_bond_atom_site_label_2
_geom_bond_site_symmetry_1
_geom_bond_site_symmetry_2
Co1 P1 1_555 1_555
P1 C1 1_555 1_555
O1 C3 1_555 1_555
O2 C3 1_555 1_555
O3 C6 1_555 1_555
O4 C6 1_555 1_555
O5 C9 1_555 1_555
O6 C9 1_555 1_555
C1 C2 1_555 1_555
C2 C3 1_555 1_555
C4 P1 1_555 1_555
C5 C4 1_555 1_555
C6 C5 1_555 1_555
C7 P1 1_555 1_555
C8 C7 1_555 1_555
C9 C8 1_555 1_555
Co2 O1 1_555 1_555
P2 Co2 1_555 1_555
O7 C12 1_555 1_555
O8 C12 1_555 1_555
O9 C15 1_555 1_555
O10 C15 1_555 1_555
O11 C18 1_555 1_555
O12 C18 1_555 1_555
C10 P2 1_555 1_555
C11 C10 1_555 1_555
C12 C11 1_555 1_555
C13 P2 1_555 1_555
C14 C13 1_555 1_555
C15 C14 1_555 1_555
C16 P2 1_555 1_555
C17 C16 1_555 1_555
C18 C17 1_555 1_555
Co3 O13 1_555 1_555
O13 H25 1_555 1_555
O14 Co3 1_555 1_555
O15 Co3 1_555 1_555
O16 Co3 1_555 1_555
O17 Co3 1_555 1_555
O18 H35 1_555 1_555
O19 H37 1_555 1_555
O20 H39 1_555 1_555
O21 Co3 1_555 1_555
O22 H43 1_555 1_555
O23 H45 1_555 1_555
O24 H47 1_555 1_555
H1 C1 1_555 1_555
H2 C1 1_555 1_555
H3 C2 1_555 1_555
H4 C2 1_555 1_555
H5 C4 1_555 1_555
H6 C4 1_555 1_555
H7 C5 1_555 1_555
H8 C5 1_555 1_555
H9 C7 1_555 1_555
H10 C7 1_555 1_555
H11 C8 1_555 1_555
H12 C8 1_555 1_555
H13 C10 1_555 1_555
H14 C10 1_555 1_555
H15 C11 1_555 1_555
H16 C11 1_555 1_555
H17 C13 1_555 1_555
H18 C13 1_555 1_555
H19 C14 1_555 1_555
H20 C14 1_555 1_555
H21 C16 1_555 1_555
H22 C16 1_555 1_555
H23 C17 1_555 1_555
H24 C17 1_555 1_555
H26 O13 1_555 1_555
H27 O14 1_555 1_555
H28 O14 1_555 1_555
H29 O15 1_555 1_555
H30 O15 1_555 1_555
H31 O16 1_555 1_555
H32 O16 1_555 1_555
H33 O17 1_555 1_555
H34 O17 1_555 1_555
H36 O18 1_555 1_555
H38 O19 1_555 1_555
H40 O20 1_555 1_555
H41 O21 1_555 1_555
H42 O21 1_555 1_555
H46 O23 1_555 1_555
H48 O24 1_555 1_555
Co2_2 O3 1_555 1_555
Co2_3 O5 1_555 1_555
O3_2 Co2 1_555 1_555
O5_2 Co2 1_555 1_555
O7D Co1 1_555 1_555
O9D Co1 1_555 1_555
O11D Co1 1_555 1_555
Co1E O7 1_555 1_555
Co1E_2 O9 1_555 1_555
Co1E_3 O11 1_555 1_555

#END
