
#######################################################################
#
#                 Cambridge Crystallographic Data Centre
#                                CCDC 
#
#######################################################################
#
# If this CIF has been generated from an entry in the Cambridge 
# Structural Database, then it will include bibliographic, chemical, 
# crystal, experimental, refinement or atomic coordinate data resulting 
# from the CCDC's data processing and validation procedures.
#
#######################################################################

data_YEZKOF
_symmetry_cell_setting           rhombohedral
_symmetry_space_group_name_H-M   'R 3 2'
_symmetry_Int_Tables_number      155
_space_group_name_Hall           'R 3 2"'
loop_
_symmetry_equiv_pos_site_id
_symmetry_equiv_pos_as_xyz
1 x,y,z
2 -y,x-y,z
3 -x+y,-x,z
4 x-y,-y,-z
5 -x,-x+y,-z
6 y,x,-z
7 2/3+x,1/3+y,1/3+z
8 2/3-y,1/3+x-y,1/3+z
9 2/3-x+y,1/3-x,1/3+z
10 2/3+x-y,1/3-y,1/3-z
11 2/3-x,1/3-x+y,1/3-z
12 2/3+y,1/3+x,1/3-z
13 1/3+x,2/3+y,2/3+z
14 1/3-y,2/3+x-y,2/3+z
15 1/3-x+y,2/3-x,2/3+z
16 1/3+x-y,2/3-y,2/3-z
17 1/3-x,2/3-x+y,2/3-z
18 1/3+y,2/3+x,2/3-z
_cell_length_a                   21.3191(3)
_cell_length_b                   21.3191(3)
_cell_length_c                   17.9250(3)
_cell_angle_alpha                90
_cell_angle_beta                 90
_cell_angle_gamma                120
_cell_volume                     7055.5
loop_
_atom_site_label
_atom_site_type_symbol
_atom_site_fract_x
_atom_site_fract_y
_atom_site_fract_z
N3 N 0.6667 0.3333 0.7077(8)
C13 C 0.6412(19) 0.3654(18) 0.7518(12)
C14 C 0.6082(18) 0.3932(23) 0.8073(14)
C13A C 0.6346(18) 0.2758(26) 0.7518(12)
C14A C 0.6068(23) 0.2150(29) 0.8073(14)
C13B C 0.7242(26) 0.3588(19) 0.7518(12)
C14B C 0.7850(29) 0.3918(18) 0.8073(14)
O3 O 0.5318(5) 0.2901(4) 0.4719(4)
O4 O 0.2407(6) 0.2426(6) 1.1231(6)
O5 O 0.7271(6) 0.3938(6) 0.3333
C1 C 0.31171(17) 0.10758(17) 0.80976(17)
H1 H 0.2739 0.0928 0.8445
C2 C 0.34584(19) 0.17830(19) 0.78540(18)
H2 H 0.3312 0.2105 0.8032
C3 C 0.40209(18) 0.20175(17) 0.73422(17)
C4 C 0.42201(18) 0.15174(18) 0.71190(18)
H3 H 0.4609 0.1657 0.6787
C5 C 0.38497(15) 0.08207(18) 0.73826(14)
H4 H 0.3989 0.0490 0.7218
C6 C 0.4360(2) 0.27595(18) 0.7054(2)
H5 H 0.4187 0.3057 0.7238
C7 C 0.4890(2) 0.3047(2) 0.6557(2)
H6 H 0.5088 0.2762 0.6400
C8 C 0.5195(2) 0.37752(19) 0.6230(2)
C9 C 0.5814(2) 0.4047(2) 0.5786(2)
H7 H 0.6050 0.3778 0.5715
C10 C 0.60746(19) 0.47159(18) 0.5454(2)
H8 H 0.6492 0.4893 0.5156
C11 C 0.51813(19) 0.48615(18) 0.59667(18)
H9 H 0.4957 0.5141 0.6033
C12 C 0.4887(2) 0.4203(2) 0.6322(2)
H10 H 0.4477 0.4046 0.6627
Co1 Co 0.28375(3) -0.04959(3) 0.8333
Mo1 Mo 0.207209(13) 0.0000 1.0000
N1 N 0.57689(14) 0.51261(13) 0.55326(13)
N2 N 0.32949(12) 0.05897(13) 0.78672(11)
O1 O 0.19724(14) 0.07499(14) 0.98144(14)
O2 O 0.24703(12) -0.01694(12) 0.92172(10)
O1C O 0.12225(20) -0.07499(14) 1.01856(14)
O2C O 0.26397(17) 0.01694(12) 1.07828(10)
C1K C -0.22575(17) -0.35496(17) 0.52357(17)
H1K H -0.2405 -0.3928 0.4888
C2K C -0.15503(19) -0.32083(19) 0.54793(18)
H2K H -0.1228 -0.3355 0.5301
C3K C -0.13158(17) -0.26458(18) 0.59911(17)
C4K C -0.18159(18) -0.24466(18) 0.62143(18)
H3K H -0.1676 -0.2058 0.6546
C5K C -0.25126(18) -0.28170(15) 0.59507(14)
H4K H -0.2843 -0.2678 0.6115
C6K C -0.05738(18) -0.2307(2) 0.6279(2)
H5K H -0.0276 -0.2480 0.6095
C7K C -0.0286(2) -0.1777(2) 0.6776(2)
H6K H -0.0571 -0.1579 0.6933
C8K C 0.04419(19) -0.1472(2) 0.7103(2)
C9K C 0.0714(2) -0.0853(2) 0.7547(2)
H7K H 0.0445 -0.0617 0.7618
C10K C 0.13826(18) -0.05921(19) 0.7879(2)
H8K H 0.1560 -0.0175 0.8177
C11K C 0.15282(18) -0.14854(19) 0.73666(18)
H9K H 0.1808 -0.1710 0.7300
C12K C 0.0870(2) -0.1780(2) 0.7011(2)
H10K H 0.0713 -0.2190 0.6706
N1K N 0.17928(13) -0.08978(14) 0.78007(13)
N2K N -0.27436(13) -0.33718(12) 0.54661(11)
Co1C Co 0.33334(4) 0.04959(3) 1.1667
Co1K Co -0.38292(3) -0.38292(3) 0.5000
Co1K_2 Co 0.61708(3) 0.61708(3) 0.5000
N1F N 0.24356(14) -0.15406(13) 0.88659(13)
N2Q N 0.39230(13) -0.00384(12) 0.87995(11)
O2Q O 0.31639(12) -0.08630(12) 0.74495(10)
O6? O 0.6826(6) 0.3827(6) 0.4385(5)
O7? O 0.2123(4) 0.2095(4) 1.0325(5)
O8? O 0.3135(4) 0.3266(6) 1.1230(5)
loop_
_geom_bond_atom_site_label_1
_geom_bond_atom_site_label_2
_geom_bond_site_symmetry_1
_geom_bond_site_symmetry_2
C1 H1 1_555 1_555
C2 C1 1_555 1_555
H2 C2 1_555 1_555
C3 C2 1_555 1_555
C4 C3 1_555 1_555
H3 C4 1_555 1_555
C5 C4 1_555 1_555
H4 C5 1_555 1_555
C6 C3 1_555 1_555
H5 C6 1_555 1_555
C7 C6 1_555 1_555
H6 C7 1_555 1_555
C8 C7 1_555 1_555
C9 C8 1_555 1_555
H7 C9 1_555 1_555
C10 C9 1_555 1_555
H8 C10 1_555 1_555
C11 H9 1_555 1_555
C12 C8 1_555 1_555
H10 C12 1_555 1_555
Co1 N2 1_555 1_555
Mo1 O1 1_555 1_555
N1 C10 1_555 1_555
N2 C1 1_555 1_555
O2 Co1 1_555 1_555
N3 C13 1_555 1_555
C13 C14 1_555 1_555
O1C Mo1 1_555 1_555
O2C Mo1 1_555 1_555
C1K H1K 1_555 1_555
C2K C1K 1_555 1_555
H2K C2K 1_555 1_555
C3K C2K 1_555 1_555
C4K C3K 1_555 1_555
H3K C4K 1_555 1_555
C5K C4K 1_555 1_555
H4K C5K 1_555 1_555
C6K C3K 1_555 1_555
H5K C6K 1_555 1_555
C7K C6K 1_555 1_555
H6K C7K 1_555 1_555
C8K C7K 1_555 1_555
C9K C8K 1_555 1_555
H7K C9K 1_555 1_555
C10K C9K 1_555 1_555
H8K C10K 1_555 1_555
C11K H9K 1_555 1_555
C12K C8K 1_555 1_555
H10K C12K 1_555 1_555
N1K Co1 1_555 1_555
N2K C1K 1_555 1_555
Co1C O2C 1_555 1_555
Co1K N2K 1_555 1_555
Co1K_2 N1 1_555 1_555
N1F Co1 1_555 1_555
N2Q Co1 1_555 1_555
O2Q Co1 1_555 1_555
C13A N3 1_555 1_555
C14A C13A 1_555 1_555
C13B N3 1_555 1_555
C14B C13B 1_555 1_555
C5 N2 1_555 1_555
C11 C12 1_555 1_555
C11 N1 1_555 1_555
Mo1 O2 1_555 1_555
C5K N2K 1_555 1_555
C10K N1K 1_555 1_555
C11K C12K 1_555 1_555
C11K N1K 1_555 1_555

#END
