
#######################################################################
#
#                 Cambridge Crystallographic Data Centre
#                                CCDC 
#
#######################################################################
#
# If this CIF has been generated from an entry in the Cambridge 
# Structural Database, then it will include bibliographic, chemical, 
# crystal, experimental, refinement or atomic coordinate data resulting 
# from the CCDC's data processing and validation procedures.
#
#######################################################################

data_YIJYOH
_symmetry_cell_setting           monoclinic
_symmetry_space_group_name_H-M   'P 21/n'
_symmetry_Int_Tables_number      14
_space_group_name_Hall           '-P 2yn'
loop_
_symmetry_equiv_pos_site_id
_symmetry_equiv_pos_as_xyz
1 x,y,z
2 1/2-x,1/2+y,1/2-z
3 -x,-y,-z
4 1/2+x,1/2-y,1/2+z
_cell_length_a                   11.6092(7)
_cell_length_b                   9.0436(5)
_cell_length_c                   14.3380(8)
_cell_angle_alpha                90
_cell_angle_beta                 105.713(3)
_cell_angle_gamma                90
_cell_volume                     1449.08
loop_
_atom_site_label
_atom_site_type_symbol
_atom_site_fract_x
_atom_site_fract_y
_atom_site_fract_z
Co1 Co 0.78068(2) 1.09122(3) 0.072270(19)
Co2 Co 1.0000 1.0000 0.0000
N1 N 0.64702(17) 1.24582(19) 0.00257(14)
C1 C 0.5304(2) 1.2175(2) -0.01154(19)
H1 H 0.5080 1.1381 0.0209
C2 C 0.4420(3) 1.3019(3) -0.0725(2)
H2 H 0.3617 1.2811 -0.0795
C3 C 0.4744(3) 1.4161(4) -0.1224(3)
H3 H 0.4167 1.4747 -0.1637
C4 C 0.6770(3) 1.3591(3) -0.0467(2)
H4 H 0.7576 1.3813 -0.0370
O1 O 0.84455(14) 0.80081(15) 0.21397(11)
O2 O 0.92108(13) 0.93468(14) 0.11526(10)
C5 C 1.01918(18) 0.70356(19) 0.17637(15)
H5 H 1.0744 0.7371 0.1398
C6 C 1.1160(2) 0.40991(18) 0.25178(16)
H6 H 1.1750 0.3320 0.2581
H7 H 1.0587 0.3791 0.2862
C7 C 1.0889(2) 0.6813(2) 0.28258(16)
H8 H 1.1315 0.7719 0.3066
H9 H 1.0326 0.6626 0.3204
C8 C 1.05145(18) 0.43232(19) 0.14480(14)
H10 H 1.1105 0.4574 0.1098
C9 C 1.17872(17) 0.5538(2) 0.29798(14)
H11 H 1.2424 0.5788 0.2677
C10 C 0.96001(19) 0.55836(19) 0.13194(14)
H12 H 0.8981 0.5312 0.1626
H13 H 0.9224 0.5731 0.0634
O3 O 1.18545(14) 0.56367(16) 0.46711(11)
O4 O 1.32448(13) 0.43283(14) 0.42788(11)
C11 C 1.23383(18) 0.52066(19) 0.40419(15)
O5 O 0.70286(15) 1.05379(17) 0.18177(12)
H14 H 0.7368 0.9847 0.2152
C12 C 0.92099(18) 0.82036(19) 0.16833(14)
O6 O 1.04441(13) 0.20419(14) 0.05991(11)
O7 O 0.89317(14) 0.25869(15) 0.12288(12)
C13 C 0.99134(18) 0.28678(19) 0.10543(14)
C14 C 0.5942(4) 1.4425(4) -0.1102(3)
H15 H 0.6185 1.5171 -0.1452
Co1B Co 1.21932(2) -0.09122(3) -0.072270(19)
N1B N 1.35298(17) -0.24582(19) -0.00257(14)
C1B C 1.4696(2) -0.2175(2) 0.01154(19)
H1B H 1.4920 -0.1381 -0.0209
C2B C 1.5580(3) -0.3019(3) 0.0725(2)
H2B H 1.6383 -0.2811 0.0795
C3B C 1.5256(3) -0.4161(4) 0.1224(3)
H3B H 1.5833 -0.4747 0.1637
C4B C 1.3230(3) -0.3591(3) 0.0467(2)
H4B H 1.2424 -0.3813 0.0370
O1B O 1.15545(14) 0.19919(15) -0.21397(11)
O2B O 1.07892(13) 0.06532(14) -0.11526(10)
C5B C 0.98082(18) 0.29644(19) -0.17637(15)
H5B H 0.9256 0.2629 -0.1398
C6B C 0.8840(2) 0.59009(18) -0.25178(16)
H6B H 0.8250 0.6680 -0.2581
H7B H 0.9413 0.6209 -0.2862
C7B C 0.9111(2) 0.3187(2) -0.28258(16)
H8B H 0.8685 0.2281 -0.3066
H9B H 0.9674 0.3374 -0.3204
C8B C 0.94855(18) 0.56768(19) -0.14480(14)
H10B H 0.8895 0.5426 -0.1098
C9B C 0.82128(17) 0.4462(2) -0.29798(14)
H11B H 0.7576 0.4212 -0.2677
C10B C 1.03999(19) 0.44164(19) -0.13194(14)
H12B H 1.1019 0.4688 -0.1626
H13B H 1.0776 0.4269 -0.0634
O3B O 0.81455(14) 0.43633(16) -0.46711(11)
O4B O 0.67552(13) 0.56717(14) -0.42788(11)
C11B C 0.76617(18) 0.47934(19) -0.40419(15)
O5B O 1.29714(15) -0.05379(17) -0.18177(12)
H14B H 1.2632 0.0153 -0.2152
C12B C 1.07901(18) 0.17964(19) -0.16833(14)
O6B O 0.95559(13) 0.79581(14) -0.05991(11)
O7B O 1.10683(14) 0.74131(15) -0.12288(12)
C13B C 1.00866(18) 0.71322(19) -0.10543(14)
C14B C 1.4058(4) -0.4425(4) 0.1102(3)
H15B H 1.3815 -0.5171 0.1452
Co1_2 Co 0.78068(2) 0.09122(3) 0.072270(19)
Co1A Co 0.71932(2) 0.59122(3) -0.572270(19)
Co1B_2 Co 1.21932(2) 0.90878(3) -0.072270(19)
Co1C Co 1.28068(2) 0.40878(3) 0.572270(19)
Co2_2 Co 1.0000 0.0000 0.0000
Co2A Co 0.5000 0.5000 -0.5000
Co2A_2 Co 1.5000 0.5000 0.5000
O2B_2 O 1.07892(13) 1.06532(14) -0.11526(10)
O3A O 1.31455(14) 0.06367(16) 0.03289(11)
O3C O 0.68545(14) 0.93633(16) -0.03289(11)
O4A O 1.17552(13) -0.06717(14) 0.07212(11)
O4A_2 O 1.17552(13) 0.93283(14) 0.07212(11)
O4C O 0.82448(13) 1.06717(14) -0.07212(11)
O6_2 O 1.04441(13) 1.20419(14) 0.05991(11)
O7_2 O 0.89317(14) 1.25869(15) 0.12288(12)
O7B_2 O 1.10683(14) -0.25869(15) -0.12288(12)
loop_
_geom_bond_atom_site_label_1
_geom_bond_atom_site_label_2
_geom_bond_site_symmetry_1
_geom_bond_site_symmetry_2
Co1 N1 1_555 1_555
Co2 O2 1_555 1_555
N1 C1 1_555 1_555
C1 H1 1_555 1_555
C2 C1 1_555 1_555
H2 C2 1_555 1_555
C3 C2 1_555 1_555
H3 C3 1_555 1_555
C4 N1 1_555 1_555
H4 C4 1_555 1_555
O1 C12 1_555 1_555
O2 Co1 1_555 1_555
C5 H5 1_555 1_555
C6 H6 1_555 1_555
H7 C6 1_555 1_555
C7 C5 1_555 1_555
H8 C7 1_555 1_555
H9 C7 1_555 1_555
C8 C6 1_555 1_555
H10 C8 1_555 1_555
C9 C6 1_555 1_555
H11 C9 1_555 1_555
C10 C5 1_555 1_555
H12 C10 1_555 1_555
H13 C10 1_555 1_555
O3 C11 1_555 1_555
O4 C11 1_555 1_555
C11 C9 1_555 1_555
O5 Co1 1_555 1_555
H14 O5 1_555 1_555
C12 O2 1_555 1_555
O6 C13 1_555 1_555
O7 C13 1_555 1_555
C13 C8 1_555 1_555
C14 C3 1_555 1_555
H15 C14 1_555 1_555
Co1B N1B 1_555 1_555
N1B C1B 1_555 1_555
C1B H1B 1_555 1_555
C2B C1B 1_555 1_555
H2B C2B 1_555 1_555
C3B C2B 1_555 1_555
H3B C3B 1_555 1_555
C4B N1B 1_555 1_555
H4B C4B 1_555 1_555
O1B C12B 1_555 1_555
O2B Co1B 1_555 1_555
C5B H5B 1_555 1_555
C6B H6B 1_555 1_555
H7B C6B 1_555 1_555
C7B C5B 1_555 1_555
H8B C7B 1_555 1_555
H9B C7B 1_555 1_555
C8B C6B 1_555 1_555
H10B C8B 1_555 1_555
C9B C6B 1_555 1_555
H11B C9B 1_555 1_555
C10B C5B 1_555 1_555
H12B C10B 1_555 1_555
H13B C10B 1_555 1_555
O3B C11B 1_555 1_555
O4B C11B 1_555 1_555
C11B C9B 1_555 1_555
O5B Co1B 1_555 1_555
H14B O5B 1_555 1_555
C12B O2B 1_555 1_555
O6B Co2 1_555 1_555
O7B C13B 1_555 1_555
C13B C8B 1_555 1_555
C14B C3B 1_555 1_555
H15B C14B 1_555 1_555
Co1_2 O7 1_555 1_555
Co1A O3B 1_555 1_555
Co1B_2 O7B 1_555 1_555
Co1C O3 1_555 1_555
Co2_2 O6 1_555 1_555
Co2A O4B 1_555 1_555
Co2A_2 O4 1_555 1_555
O2B_2 Co2 1_555 1_555
O3A Co1B 1_555 1_555
O3C Co1 1_555 1_555
O4A Co1B 1_555 1_555
O4A_2 Co2 1_555 1_555
O4C Co1 1_555 1_555
O6_2 Co2 1_555 1_555
O7_2 Co1 1_555 1_555
O7B_2 Co1B 1_555 1_555
Co2 O4C 1_555 1_555
C4 C14 1_555 1_555
C5 C12 1_555 1_555
C7 C9 1_555 1_555
C8 C10 1_555 1_555
O4 Co1C 1_555 1_555
C4B C14B 1_555 1_555
O2B Co2_2 1_555 1_555
C5B C12B 1_555 1_555
C7B C9B 1_555 1_555
C8B C10B 1_555 1_555
O4B Co1A 1_555 1_555
O6B C13B 1_555 1_555
Co1B_2 O2B_2 1_555 1_555
Co1B_2 O4A_2 1_555 1_555
Co2_2 O4A 1_555 1_555

#END
