
#######################################################################
#
#                 Cambridge Crystallographic Data Centre
#                                CCDC 
#
#######################################################################
#
# If this CIF has been generated from an entry in the Cambridge 
# Structural Database, then it will include bibliographic, chemical, 
# crystal, experimental, refinement or atomic coordinate data resulting 
# from the CCDC's data processing and validation procedures.
#
#######################################################################

data_YOBNAG
_symmetry_cell_setting           orthorhombic
_symmetry_space_group_name_H-M   'P 21 21 2'
_symmetry_Int_Tables_number      18
_space_group_name_Hall           'P 2 2ab'
loop_
_symmetry_equiv_pos_site_id
_symmetry_equiv_pos_as_xyz
1 x,y,z
2 -x,-y,z
3 1/2+x,1/2-y,-z
4 1/2-x,1/2+y,-z
_cell_length_a                   13.6542(6)
_cell_length_b                   14.8585(6)
_cell_length_c                   4.7251(2)
_cell_angle_alpha                90
_cell_angle_beta                 90
_cell_angle_gamma                90
_cell_volume                     958.633
loop_
_atom_site_label
_atom_site_type_symbol
_atom_site_fract_x
_atom_site_fract_y
_atom_site_fract_z
Zn1 Zn 1.0000 0.5000 0.39567(8)
O1 O 0.8662(3) 0.6429(4) 0.3637(10)
C1 C 0.7547(3) 0.6215(2) 0.7541(8)
H1 H 0.7705 0.6277 0.9598
C2 C 0.6708(3) 0.7661(2) 0.8079(7)
N1 N 0.7081(2) 0.70269(19) 0.6441(6)
H2 H 0.7046 0.7098 0.4595
O2 O 0.6712(4) 0.7632(3) 1.0681(6)
O3 O 0.7377(8) 0.4742(8) 0.934(3)
H3 H 0.7359 0.4278 0.8329
C3 C 0.6251(3) 0.8448(2) 0.6520(8)
H4 H 0.6776 0.8791 0.5561
H5 H 0.5806 0.8211 0.5040
N2 N 0.5701(2) 0.90575(17) 0.8338(6)
C4 C 0.8460(3) 0.6004(2) 0.5815(7)
O4 O 0.9017(2) 0.53998(18) 0.6786(6)
C5 C 0.6848(13) 0.5426(11) 0.803(4)
H6 H 0.6306 0.5623 0.9314
H7 H 0.521(2) 0.877(2) 0.916(8)
H8 H 0.613(3) 0.932(4) 0.945(11)
C6 C 0.6432(13) 0.5234(11) 0.510(4)
H9 H 0.6131 0.5781 0.4346
H10 H 0.5938 0.4758 0.5239
H11 H 0.6961 0.5038 0.3843
O1A O 1.1338(3) 0.3571(4) 0.3637(10)
C1A C 1.2453(3) 0.3785(2) 0.7541(8)
H1A H 1.2295 0.3723 0.9598
C2A C 1.3292(3) 0.2339(2) 0.8079(7)
N1A N 1.2919(2) 0.29731(19) 0.6441(6)
H2A H 1.2954 0.2902 0.4595
O2A O 1.3288(4) 0.2368(3) 1.0681(6)
O3A O 1.2623(8) 0.5258(8) 0.934(3)
H3A H 1.2641 0.5722 0.8329
C3A C 1.3749(3) 0.1552(2) 0.6520(8)
H4A H 1.3224 0.1209 0.5561
H5A H 1.4194 0.1789 0.5040
N2A N 1.4299(2) 0.09425(17) 0.8338(6)
C4A C 1.1540(3) 0.3996(2) 0.5815(7)
O4A O 1.0983(2) 0.46002(18) 0.6786(6)
C5A C 1.3152(13) 0.4574(11) 0.803(4)
H6A H 1.3694 0.4377 0.9314
H7A H 1.479(2) 0.123(2) 0.916(8)
H8A H 1.387(3) 0.068(4) 0.945(11)
C6A C 1.3568(13) 0.4766(11) 0.510(4)
H9A H 1.3869 0.4219 0.4346
H10A H 1.4062 0.5242 0.5239
H11A H 1.3039 0.4962 0.3843
Zn1B Zn 0.5000 1.0000 0.60433(8)
Zn1B_2 Zn 1.5000 0.0000 0.60433(8)
N2B N 1.0701(2) 0.59425(17) 0.1662(6)
N2C N 0.9299(2) 0.40575(17) 0.1662(6)
O5 O 0.5650(6) 0.3260(6) 1.137(2)
C7 C 0.5605(10) 0.2556(9) 0.950(3)
O6 O 0.6077(15) 0.3257(14) 0.898(5)
H12? H 0.7793 0.6383 0.9463
C8? C 0.6834(12) 0.5401(9) 0.700(3)
H13? H 0.7136 0.4845 0.7689
H14? H 0.6216 0.5504 0.8005
H15? H 0.6705 0.5348 0.4966
loop_
_geom_bond_atom_site_label_1
_geom_bond_atom_site_label_2
_geom_bond_site_symmetry_1
_geom_bond_site_symmetry_2
Zn1 O4 1_555 1_555
O1 C4 1_555 1_555
C1 H1 1_555 1_555
C2 N1 1_555 1_555
N1 C1 1_555 1_555
H2 N1 1_555 1_555
O2 C2 1_555 1_555
O3 H3 1_555 1_555
C3 C2 1_555 1_555
H4 C3 1_555 1_555
H5 C3 1_555 1_555
N2 C3 1_555 1_555
C4 C1 1_555 1_555
O4 C4 1_555 1_555
C5 C1 1_555 1_555
H6 C5 1_555 1_555
H7 N2 1_555 1_555
H8 N2 1_555 1_555
C6 C5 1_555 1_555
H9 C6 1_555 1_555
H10 C6 1_555 1_555
H11 C6 1_555 1_555
O5 C7 1_555 1_555
O1A C4A 1_555 1_555
C1A H1A 1_555 1_555
C2A N1A 1_555 1_555
N1A C1A 1_555 1_555
H2A N1A 1_555 1_555
O2A C2A 1_555 1_555
O3A H3A 1_555 1_555
C3A C2A 1_555 1_555
H4A C3A 1_555 1_555
H5A C3A 1_555 1_555
N2A C3A 1_555 1_555
C4A C1A 1_555 1_555
O4A Zn1 1_555 1_555
C5A C1A 1_555 1_555
H6A C5A 1_555 1_555
H7A N2A 1_555 1_555
H8A N2A 1_555 1_555
C6A C5A 1_555 1_555
H9A C6A 1_555 1_555
H10A C6A 1_555 1_555
H11A C6A 1_555 1_555
Zn1B N2 1_555 1_555
Zn1B_2 N2A 1_555 1_555
N2B Zn1 1_555 1_555
N2C Zn1 1_555 1_555
O3 C5 1_555 1_555
O3A C5A 1_555 1_555
C4A O4A 1_555 1_555

#END
