
#######################################################################
#
#                 Cambridge Crystallographic Data Centre
#                                CCDC 
#
#######################################################################
#
# If this CIF has been generated from an entry in the Cambridge 
# Structural Database, then it will include bibliographic, chemical, 
# crystal, experimental, refinement or atomic coordinate data resulting 
# from the CCDC's data processing and validation procedures.
#
#######################################################################

data_YOVPAC
_symmetry_cell_setting           monoclinic
_symmetry_space_group_name_H-M   'P 21/c'
_symmetry_Int_Tables_number      14
_space_group_name_Hall           '-P 2ybc'
loop_
_symmetry_equiv_pos_site_id
_symmetry_equiv_pos_as_xyz
1 x,y,z
2 -x,1/2+y,1/2-z
3 -x,-y,-z
4 x,1/2-y,1/2+z
_cell_length_a                   14.614(3)
_cell_length_b                   32.604(7)
_cell_length_c                   9.1030(18)
_cell_angle_alpha                90
_cell_angle_beta                 104.61(3)
_cell_angle_gamma                90
_cell_volume                     4197.1
loop_
_atom_site_label
_atom_site_type_symbol
_atom_site_fract_x
_atom_site_fract_y
_atom_site_fract_z
Co1 Co 0.76573(3) 0.124221(13) 1.10413(5)
C1 C 0.8807(2) 0.17964(10) 0.9359(4)
H1 H 0.9253 0.1584 0.9362
C2 C 0.8073(2) 0.23940(11) 0.8967(4)
H2 H 0.7906 0.2669 0.8673
C3 C 0.7611(2) 0.21338(10) 0.9706(4)
H3 H 0.7050 0.2199 1.0003
C4 C 0.9544(2) 0.23190(10) 0.8011(4)
C5 C 1.0031(2) 0.20440(10) 0.7337(4)
H4 H 0.9877 0.1761 0.7308
C6 C 1.0746(2) 0.21812(10) 0.6701(4)
H5 H 1.1076 0.1990 0.6238
C7 C 1.0988(2) 0.25984(10) 0.6732(4)
C8 C 1.0465(2) 0.28696(10) 0.7397(4)
H6 H 1.0606 0.3154 0.7416
C9 C 0.9753(2) 0.27363(10) 0.8021(4)
H7 H 0.9407 0.2927 0.8457
C10 C 1.1774(2) 0.27436(10) 0.6098(4)
C11 C 1.2490(2) 0.24743(10) 0.5909(4)
H8 H 1.2440 0.2191 0.6113
C12 C 1.3265(2) 0.26121(10) 0.5434(4)
C13 C 1.3338(2) 0.30306(10) 0.5127(4)
H9 H 1.3874 0.3128 0.4819
C14 C 1.2635(2) 0.33064(10) 0.5265(4)
C15 C 1.1857(2) 0.31613(10) 0.5738(4)
H10 H 1.1372 0.3348 0.5819
C16 C 1.4049(2) 0.23386(10) 0.5264(4)
C17 C 1.3909(2) 0.20200(10) 0.4212(4)
H11 H 1.3286 0.1955 0.3649
C18 C 1.4667(2) 0.17971(10) 0.3975(4)
H12 H 1.4562 0.1578 0.3264
C19 C 1.5584(2) 0.18958(10) 0.4781(4)
C20 C 1.5739(2) 0.21981(11) 0.5887(4)
H13 H 1.6361 0.2255 0.6477
C21 C 1.4976(2) 0.24156(11) 0.6118(4)
H14 H 1.5081 0.2623 0.6876
C22 C 1.6464(2) 0.16451(10) 0.2970(4)
H15 H 1.5984 0.1706 0.2079
C23 C 1.7226(3) 0.15830(11) 0.5384(4)
H16 H 1.7386 0.1591 0.6462
C24 C 1.7782(2) 0.14546(11) 0.4492(4)
H17 H 1.8407 0.1352 0.4852
C25 C 1.2725(2) 0.37469(10) 0.4883(4)
C26 C 1.3611(3) 0.39371(10) 0.5209(4)
H18 H 1.4154 0.3786 0.5716
C27 C 1.3716(3) 0.43417(10) 0.4811(4)
H19 H 1.4323 0.4466 0.5037
C28 C 1.2917(2) 0.45621(10) 0.4075(4)
C29 C 1.2028(3) 0.43861(10) 0.3743(4)
H20 H 1.1488 0.4540 0.3243
C30 C 1.1936(2) 0.39788(10) 0.4151(4)
H21 H 1.1327 0.3857 0.3928
C31 C 1.2470(3) 0.53002(10) 0.3854(4)
H22 H 1.1934 0.5276 0.4259
C32 C 1.3734(3) 0.51375(11) 0.3054(5)
H23 H 1.4231 0.4989 0.2799
C33 C 1.3571(3) 0.55477(11) 0.2909(5)
H24 H 1.3945 0.5737 0.2521
C34 C 0.6231(2) 0.11657(10) 0.8660(4)
C35 C 0.5288(2) 0.11247(10) 0.7525(4)
C36 C 0.4582(2) 0.14024(11) 0.7590(4)
H25 H 0.4720 0.1626 0.8279
C37 C 0.3674(3) 0.13571(11) 0.6658(4)
H26 H 0.3198 0.1549 0.6727
C38 C 0.3451(2) 0.10352(10) 0.5624(4)
C39 C 0.4172(3) 0.07630(11) 0.5534(4)
H27 H 0.4040 0.0544 0.4822
C40 C 0.5083(3) 0.08060(11) 0.6472(4)
H28 H 0.5565 0.0618 0.6391
C41 C 0.2462(2) 0.09924(10) 0.4658(4)
C42 C 0.1705(3) 0.11365(11) 0.5188(4)
H29 H 0.1824 0.1253 0.6175
C43 C 0.0780(3) 0.11139(12) 0.4307(5)
H30 H 0.0277 0.1216 0.4691
C44 C 0.0588(2) 0.09406(12) 0.2855(4)
C45 C 0.1339(3) 0.07897(13) 0.2338(4)
H31 H 0.1218 0.0664 0.1366
C46 C 0.2266(3) 0.08189(12) 0.3218(4)
H32 H 0.2769 0.0719 0.2830
C47 C -0.0410(3) 0.09323(16) 0.1855(5)
N1 N 0.80762(19) 0.17624(8) 0.9961(3)
N2 N 0.88385(19) 0.21744(8) 0.8732(3)
N3 N 1.7308(2) 0.14939(8) 0.2981(3)
N4 N 1.6380(2) 0.17007(9) 0.4415(3)
N5 N 1.2781(2) 0.56487(8) 0.3408(3)
N6 N 1.3026(2) 0.49822(8) 0.3649(3)
O1 O 0.62586(17) 0.13771(8) 0.9848(3)
O2 O 0.69468(17) 0.09861(8) 0.8456(3)
O3 O -0.09992(19) 0.11581(9) 0.2259(4)
O4 O -0.0608(4) 0.0602(8) 0.0765(8)
Co1_2 Co -0.23427(3) 0.124221(13) 0.10413(5)
Co1_3 Co 1.76573(3) 0.124221(13) 0.10413(5)
Co1A Co 1.23427(3) 0.624221(13) 0.39587(5)
N3_2 N 0.7308(2) 0.14939(8) 1.2981(3)
N5A N 0.7219(2) 0.06487(8) 1.1592(3)
O3_2 O 0.90008(19) 0.11581(9) 1.2259(4)
C48 C 0.8959(3) 0.08481(11) 0.7344(4)
H33 H 0.8579 0.0941 0.7984
C49 C 0.9253(4) 0.03311(15) 0.5597(7)
H34 H 0.8911 0.0352 0.4525
H35 H 0.9377 0.0042 0.5869
H36 H 0.9854 0.0479 0.5765
C50 C 0.7838(4) 0.02943(16) 0.6604(7)
H37 H 0.8004 0.0024 0.7066
H38 H 0.7431 0.0260 0.5576
H39 H 0.7502 0.0453 0.7219
N7 N 0.8688(2) 0.05088(9) 0.6531(4)
O5 O 0.9671(2) 0.10507(8) 0.7322(3)
O6 O 0.9628(5) 0.9991(2) 0.0545(8)
O7? O -0.0580(6) 0.0839(8) 0.0660(9)
loop_
_geom_bond_atom_site_label_1
_geom_bond_atom_site_label_2
_geom_bond_site_symmetry_1
_geom_bond_site_symmetry_2
Co1 N1 1_555 1_555
C1 H1 1_555 1_555
C2 H2 1_555 1_555
C3 C2 1_555 1_555
H3 C3 1_555 1_555
C4 C5 1_555 1_555
C5 H4 1_555 1_555
C6 C5 1_555 1_555
H5 C6 1_555 1_555
C7 C6 1_555 1_555
C8 C7 1_555 1_555
H6 C8 1_555 1_555
C9 C4 1_555 1_555
H7 C9 1_555 1_555
C10 C7 1_555 1_555
C11 C10 1_555 1_555
H8 C11 1_555 1_555
C12 C11 1_555 1_555
C13 C12 1_555 1_555
H9 C13 1_555 1_555
C14 C13 1_555 1_555
C15 C10 1_555 1_555
H10 C15 1_555 1_555
C16 C12 1_555 1_555
C17 C16 1_555 1_555
H11 C17 1_555 1_555
C18 C17 1_555 1_555
H12 C18 1_555 1_555
C19 C18 1_555 1_555
C20 C19 1_555 1_555
H13 C20 1_555 1_555
C21 C16 1_555 1_555
H14 C21 1_555 1_555
C22 H15 1_555 1_555
C23 H16 1_555 1_555
C24 C23 1_555 1_555
H17 C24 1_555 1_555
C25 C14 1_555 1_555
C26 C25 1_555 1_555
H18 C26 1_555 1_555
C27 C26 1_555 1_555
H19 C27 1_555 1_555
C28 C27 1_555 1_555
C29 C28 1_555 1_555
H20 C29 1_555 1_555
C30 C25 1_555 1_555
H21 C30 1_555 1_555
C31 H22 1_555 1_555
C32 H23 1_555 1_555
C33 C32 1_555 1_555
H24 C33 1_555 1_555
C34 C35 1_555 1_555
C35 C36 1_555 1_555
C36 H25 1_555 1_555
C37 C36 1_555 1_555
H26 C37 1_555 1_555
C38 C37 1_555 1_555
C39 C38 1_555 1_555
H27 C39 1_555 1_555
C40 C35 1_555 1_555
H28 C40 1_555 1_555
C41 C38 1_555 1_555
C42 C41 1_555 1_555
H29 C42 1_555 1_555
C43 C42 1_555 1_555
H30 C43 1_555 1_555
C44 C43 1_555 1_555
C45 C44 1_555 1_555
H31 C45 1_555 1_555
C46 C41 1_555 1_555
H32 C46 1_555 1_555
C47 C44 1_555 1_555
N1 C1 1_555 1_555
N2 C1 1_555 1_555
N3 C22 1_555 1_555
N4 C19 1_555 1_555
N5 C31 1_555 1_555
N6 C28 1_555 1_555
O1 Co1 1_555 1_555
O2 C34 1_555 1_555
O3 C47 1_555 1_555
O4 C47 1_555 1_555
C48 H33 1_555 1_555
C49 H34 1_555 1_555
H35 C49 1_555 1_555
H36 C49 1_555 1_555
C50 H37 1_555 1_555
H38 C50 1_555 1_555
H39 C50 1_555 1_555
N7 C48 1_555 1_555
O5 C48 1_555 1_555
Co1_2 O3 1_555 1_555
Co1_3 N3 1_555 1_555
Co1A N5 1_555 1_555
N3_2 Co1 1_555 1_555
N5A Co1 1_555 1_555
O3_2 Co1 1_555 1_555
C2 N2 1_555 1_555
C3 N1 1_555 1_555
C4 N2 1_555 1_555
C8 C9 1_555 1_555
C14 C15 1_555 1_555
C20 C21 1_555 1_555
C22 N4 1_555 1_555
C23 N4 1_555 1_555
C24 N3 1_555 1_555
C29 C30 1_555 1_555
C31 N6 1_555 1_555
C32 N6 1_555 1_555
C33 N5 1_555 1_555
C34 O1 1_555 1_555
C39 C40 1_555 1_555
C45 C46 1_555 1_555
C49 N7 1_555 1_555
C50 N7 1_555 1_555

#END
