
#######################################################################
#
#                 Cambridge Crystallographic Data Centre
#                                CCDC 
#
#######################################################################
#
# If this CIF has been generated from an entry in the Cambridge 
# Structural Database, then it will include bibliographic, chemical, 
# crystal, experimental, refinement or atomic coordinate data resulting 
# from the CCDC's data processing and validation procedures.
#
#######################################################################

data_YOVXAK
_symmetry_cell_setting           triclinic
_symmetry_space_group_name_H-M   'P -1'
_symmetry_Int_Tables_number      2
_space_group_name_Hall           '-P 1'
loop_
_symmetry_equiv_pos_site_id
_symmetry_equiv_pos_as_xyz
1 x,y,z
2 -x,-y,-z
_cell_length_a                   14.1110(5)
_cell_length_b                   15.3337(5)
_cell_length_c                   18.7087(6)
_cell_angle_alpha                78.679(3)
_cell_angle_beta                 84.134(2)
_cell_angle_gamma                71.745(3)
_cell_volume                     3765.94
loop_
_atom_site_label
_atom_site_type_symbol
_atom_site_fract_x
_atom_site_fract_y
_atom_site_fract_z
N11 N 0.7192(4) 0.4105(4) 0.1777(3)
C67 C 0.5513(7) 0.3739(8) 0.1861(8)
H49 H 0.5638 0.3082 0.1830
H50 H 0.5100 0.4134 0.1459
H51 H 0.5164 0.3863 0.2328
C68 C 0.6468(5) 0.3946(5) 0.1810(4)
N12 N 0.1458(5) 0.5875(4) 0.6364(3)
C69 C 0.0744(5) 0.5947(4) 0.6096(3)
C70 C -0.0152(5) 0.6003(5) 0.5741(4)
H52 H -0.0065 0.6195 0.5213
H53 H -0.0729 0.6460 0.5930
H54 H -0.0265 0.5390 0.5840
C71 C 0.2551(7) 0.3523(6) 0.2221(5)
H55 H 0.2360 0.4016 0.1778
Cl1 Cl 0.15192(16) 0.30957(15) 0.25105(11)
Cl2 Cl 0.3550(2) 0.2627(2) 0.1970(2)
Cl3 Cl 0.2803(3) 0.4032(2) 0.28873(18)
C72 C 0.5729(16) 0.0738(14) 0.4373(11)
H56 H 0.6424 0.0658 0.4503
Cl4 Cl 0.5732(8) -0.0135(7) 0.3963(4)
Cl5 Cl 0.4950(5) 0.0900(7) 0.5120(7)
Cl6 Cl 0.5265(17) 0.1806(14) 0.3886(8)
O15 O 0.6544(11) 0.1850(10) 0.3730(7)
Co1 Co -0.07201(5) 0.73256(5) 0.29486(4)
Co2 Co 0.56505(5) 0.28228(5) 0.84648(4)
P1 P -0.08335(9) 0.90361(8) 0.38784(7)
P2 P -0.31016(9) 0.11688(8) -0.01881(6)
C1 C 0.4360(3) 0.4210(3) 0.7276(3)
H1 H 0.3842 0.4035 0.7576
C2 C 0.4095(4) 0.4876(4) 0.6673(3)
H2 H 0.3411 0.5159 0.6566
C3 C 0.4839(3) 0.5140(3) 0.6212(2)
C4 C 0.5826(3) 0.4693(3) 0.6407(2)
H3 H 0.6360 0.4841 0.6109
C5 C 0.6023(4) 0.4036(3) 0.7034(2)
H4 H 0.6699 0.3748 0.7161
C6 C 0.4604(3) 0.5875(3) 0.5556(2)
C7 C 0.3630(3) 0.6341(3) 0.5356(3)
H5 H 0.3089 0.6176 0.5632
C8 C 0.3449(3) 0.7050(3) 0.4752(2)
C9 C 0.4273(3) 0.7243(3) 0.4357(2)
H6 H 0.4182 0.7722 0.3940
C10 C 0.5229(3) 0.6731(3) 0.4577(2)
C11 C 0.6161(3) 0.6870(3) 0.4186(2)
C12 C 0.6157(4) 0.7507(4) 0.3542(3)
H7 H 0.5544 0.7894 0.3338
C13 C 0.7053(4) 0.7568(4) 0.3206(3)
H8 H 0.7037 0.7999 0.2763
C14 C 0.7942(3) 0.6455(4) 0.4077(3)
H9 H 0.8566 0.6079 0.4270
C15 C 0.7084(4) 0.6343(3) 0.4450(3)
H10 H 0.7126 0.5904 0.4890
C16 C 0.2408(3) 0.7563(3) 0.4540(2)
C17 C 0.2173(3) 0.7863(3) 0.3812(3)
H11 H 0.2687 0.7747 0.3442
C18 C 0.1192(3) 0.8334(3) 0.3620(3)
H12 H 0.1042 0.8544 0.3120
C19 C 0.0434(3) 0.8496(3) 0.4154(2)
C20 C 0.0663(3) 0.8191(3) 0.4887(2)
H13 H 0.0146 0.8296 0.5257
C21 C 0.1640(3) 0.7736(3) 0.5079(3)
H14 H 0.1791 0.7540 0.5579
C22 C -0.0893(4) 1.0172(4) 0.3369(3)
C23 C -0.1485(6) 1.0520(5) 0.2770(4)
H15 H -0.1848 1.0155 0.2633
C24 C -0.1552(7) 1.1397(6) 0.2367(5)
H16 H -0.1940 1.1626 0.1946
C25 C -0.1041(6) 1.1942(5) 0.2586(4)
H17 H -0.1134 1.2566 0.2343
C26 C -0.0417(5) 1.1580(4) 0.3143(3)
H18 H -0.0045 1.1940 0.3272
C27 C -0.0315(4) 1.0692(4) 0.3525(3)
H19 H 0.0154 1.0433 0.3898
C28 C -0.1602(3) 0.9150(3) 0.4699(3)
C29 C -0.2011(4) 0.8434(4) 0.4994(3)
H20 H -0.1931 0.7936 0.4738
C30 C -0.2538(5) 0.8450(5) 0.5667(3)
H21 H -0.2800 0.7951 0.5873
C31 C -0.2684(5) 0.9175(5) 0.6037(3)
H22 H -0.3046 0.9179 0.6494
C32 C -0.2306(5) 0.9890(5) 0.5741(3)
H23 H -0.2418 1.0398 0.5991
C33 C -0.1762(4) 0.9888(4) 0.5083(3)
H24 H -0.1495 1.0387 0.4891
C34 C -0.0997(4) 0.5764(4) 0.2308(3)
H25 H -0.1575 0.5859 0.2626
C35 C -0.0837(4) 0.5121(4) 0.1853(3)
H26 H -0.1304 0.4786 0.1864
C36 C 0.0001(4) 0.4957(3) 0.1378(2)
C37 C 0.0652(4) 0.5480(3) 0.1397(3)
H27 H 0.1235 0.5399 0.1083
C38 C 0.0452(4) 0.6109(3) 0.1868(3)
H28 H 0.0911 0.6447 0.1874
C39 C 0.0207(3) 0.4270(3) 0.0895(2)
C40 C -0.0471(4) 0.3800(3) 0.0830(2)
H29 H -0.1100 0.3937 0.1090
C41 C -0.0225(3) 0.3132(3) 0.0385(2)
C42 C 0.0695(3) 0.2972(3) 0.0003(2)
H30 H 0.0887 0.2522 -0.0310
C43 C 0.1331(3) 0.3473(3) 0.0084(2)
C44 C 0.2316(4) 0.3339(3) -0.0316(2)
C45 C 0.2662(4) 0.2721(4) -0.0794(3)
H31 H 0.2264 0.2359 -0.0882
C46 C 0.3581(4) 0.2627(4) -0.1143(3)
H32 H 0.3804 0.2189 -0.1465
C47 C 0.3853(4) 0.3701(4) -0.0584(3)
H33 H 0.4271 0.4048 -0.0501
C48 C 0.2947(4) 0.3836(4) -0.0208(3)
H34 H 0.2752 0.4265 0.0122
C49 C -0.0917(3) 0.2605(3) 0.0311(2)
C50 C -0.1938(4) 0.3069(4) 0.0271(3)
H35 H -0.2191 0.3702 0.0335
C51 C -0.2581(4) 0.2605(4) 0.0140(3)
H36 H -0.3275 0.2923 0.0108
C52 C -0.2221(3) 0.1681(3) 0.0055(2)
C53 C -0.1216(4) 0.1204(3) 0.0132(3)
H37 H -0.0971 0.0561 0.0098
C54 C -0.0569(4) 0.1672(3) 0.0258(3)
H38 H 0.0121 0.1347 0.0310
C55 C -0.3640(4) 0.0675(4) 0.0647(3)
C56 C -0.3060(5) 0.0200(5) 0.1232(3)
H39 H -0.2359 0.0097 0.1190
C57 C -0.3501(5) -0.0130(5) 0.1884(3)
H40 H -0.3104 -0.0428 0.2294
C58 C -0.4484(5) -0.0029(5) 0.1938(3)
H41 H -0.4775 -0.0274 0.2381
C59 C -0.5059(5) 0.0418(6) 0.1366(4)
H42 H -0.5753 0.0481 0.1406
C60 C -0.4641(4) 0.0788(5) 0.0717(3)
H43 H -0.5054 0.1121 0.0321
C61 C -0.2425(4) 0.0264(4) -0.0682(3)
C62 C -0.2669(4) -0.0569(4) -0.0595(3)
H44 H -0.3139 -0.0696 -0.0220
C63 C -0.2231(5) -0.1208(4) -0.1050(3)
H45 H -0.2414 -0.1764 -0.0997
C64 C -0.1531(5) -0.1039(5) -0.1580(3)
H46 H -0.1231 -0.1481 -0.1892
C65 C -0.1256(5) -0.0224(4) -0.1665(3)
H47 H -0.0762 -0.0118 -0.2027
C66 C -0.1692(4) 0.0417(4) -0.1231(3)
H48 H -0.1507 0.0973 -0.1294
N1 N 0.5305(3) 0.3783(3) 0.7477(2)
N2 N 0.5394(3) 0.6057(3) 0.5174(2)
N3 N 0.7945(3) 0.7059(3) 0.3464(2)
N4 N -0.0367(3) 0.6264(3) 0.2320(2)
N5 N 0.1104(3) 0.4102(3) 0.0527(2)
N6 N 0.4183(3) 0.3120(3) -0.1053(2)
N7 N -0.0599(3) 0.8482(3) 0.1761(2)
N8 N 0.1035(3) 0.6153(3) 0.3758(2)
N9 N 0.6678(4) 0.4091(4) 0.8758(2)
N10 N 0.6240(4) 0.1544(3) 0.7664(2)
O1 O -0.1174(2) 0.8495(2) 0.34344(19)
O2 O -0.3925(2) 0.1888(2) -0.06130(16)
O3 O -0.1391(3) 0.8236(3) 0.19710(19)
O4 O -0.0577(3) 0.9050(3) 0.1207(2)
O5 O 0.0144(3) 0.8105(3) 0.21598(19)
O6 O 0.0067(2) 0.6511(2) 0.38339(18)
O7 O 0.1454(3) 0.6357(3) 0.3174(2)
O8 O 0.1475(3) 0.5618(3) 0.4280(2)
O9 O 0.5833(3) 0.3932(3) 0.88901(19)
O10 O 0.6779(4) 0.4774(3) 0.8957(3)
O11 O 0.7337(3) 0.3559(4) 0.8431(2)
O12 O 0.5392(3) 0.1798(2) 0.79374(18)
O13 O 0.6860(3) 0.1941(3) 0.7808(2)
O14 O 0.6459(4) 0.0962(3) 0.7269(2)
Co1_2 Co 0.92799(5) 0.73256(5) 0.29486(4)
Co2_2 Co -0.43495(5) 0.28228(5) -0.15352(4)
Co2_3 Co 0.56505(5) 0.28228(5) -0.15352(4)
N3_2 N -0.2055(3) 0.7059(3) 0.3464(2)
N6_2 N 0.4183(3) 0.3120(3) 0.8947(2)
O2_2 O 0.6075(2) 0.1888(2) 0.93870(16)
O16? O 0.5751(15) 0.0737(16) 0.3296(11)
loop_
_geom_bond_atom_site_label_1
_geom_bond_atom_site_label_2
_geom_bond_site_symmetry_1
_geom_bond_site_symmetry_2
Co1 N4 1_555 1_555
Co2 N1 1_555 1_555
P1 C19 1_555 1_555
P2 C52 1_555 1_555
C1 H1 1_555 1_555
C2 C1 1_555 1_555
H2 C2 1_555 1_555
C3 C2 1_555 1_555
C4 C3 1_555 1_555
H3 C4 1_555 1_555
C5 C4 1_555 1_555
H4 C5 1_555 1_555
C6 C3 1_555 1_555
C7 C6 1_555 1_555
H5 C7 1_555 1_555
C8 C7 1_555 1_555
C9 C8 1_555 1_555
H6 C9 1_555 1_555
C10 C9 1_555 1_555
C11 C10 1_555 1_555
C12 C11 1_555 1_555
H7 C12 1_555 1_555
C13 C12 1_555 1_555
H8 C13 1_555 1_555
C14 H9 1_555 1_555
C15 C11 1_555 1_555
H10 C15 1_555 1_555
C16 C8 1_555 1_555
C17 C16 1_555 1_555
H11 C17 1_555 1_555
C18 C17 1_555 1_555
H12 C18 1_555 1_555
C19 C18 1_555 1_555
C20 C19 1_555 1_555
H13 C20 1_555 1_555
C21 C16 1_555 1_555
H14 C21 1_555 1_555
C22 P1 1_555 1_555
C23 C22 1_555 1_555
H15 C23 1_555 1_555
C24 C23 1_555 1_555
H16 C24 1_555 1_555
C25 C24 1_555 1_555
H17 C25 1_555 1_555
C26 C25 1_555 1_555
H18 C26 1_555 1_555
C27 C22 1_555 1_555
H19 C27 1_555 1_555
C28 P1 1_555 1_555
C29 C28 1_555 1_555
H20 C29 1_555 1_555
C30 C29 1_555 1_555
H21 C30 1_555 1_555
C31 C30 1_555 1_555
H22 C31 1_555 1_555
C32 C31 1_555 1_555
H23 C32 1_555 1_555
C33 C28 1_555 1_555
H24 C33 1_555 1_555
C34 H25 1_555 1_555
C35 C34 1_555 1_555
H26 C35 1_555 1_555
C36 C35 1_555 1_555
C37 C36 1_555 1_555
H27 C37 1_555 1_555
C38 C37 1_555 1_555
H28 C38 1_555 1_555
C39 C36 1_555 1_555
C40 C39 1_555 1_555
H29 C40 1_555 1_555
C41 C40 1_555 1_555
C42 C41 1_555 1_555
H30 C42 1_555 1_555
C43 C42 1_555 1_555
C44 C43 1_555 1_555
C45 C44 1_555 1_555
H31 C45 1_555 1_555
C46 C45 1_555 1_555
H32 C46 1_555 1_555
C47 H33 1_555 1_555
C48 C44 1_555 1_555
H34 C48 1_555 1_555
C49 C41 1_555 1_555
C50 C49 1_555 1_555
H35 C50 1_555 1_555
C51 C50 1_555 1_555
H36 C51 1_555 1_555
C52 C51 1_555 1_555
C53 C52 1_555 1_555
H37 C53 1_555 1_555
C54 C49 1_555 1_555
H38 C54 1_555 1_555
C55 P2 1_555 1_555
C56 C55 1_555 1_555
H39 C56 1_555 1_555
C57 C56 1_555 1_555
H40 C57 1_555 1_555
C58 C57 1_555 1_555
H41 C58 1_555 1_555
C59 C58 1_555 1_555
H42 C59 1_555 1_555
C60 C55 1_555 1_555
H43 C60 1_555 1_555
C61 P2 1_555 1_555
C62 C61 1_555 1_555
H44 C62 1_555 1_555
C63 C62 1_555 1_555
H45 C63 1_555 1_555
C64 C63 1_555 1_555
H46 C64 1_555 1_555
C65 C64 1_555 1_555
H47 C65 1_555 1_555
C66 C61 1_555 1_555
H48 C66 1_555 1_555
N1 C1 1_555 1_555
N2 C6 1_555 1_555
N3 C13 1_555 1_555
N4 C34 1_555 1_555
N5 C39 1_555 1_555
N6 C46 1_555 1_555
N7 O3 1_555 1_555
N8 O6 1_555 1_555
N9 O9 1_555 1_555
N10 O12 1_555 1_555
O1 Co1 1_555 1_555
O2 P2 1_555 1_555
O3 Co1 1_555 1_555
O4 N7 1_555 1_555
O5 Co1 1_555 1_555
O6 Co1 1_555 1_555
O7 N8 1_555 1_555
O8 N8 1_555 1_555
O9 Co2 1_555 1_555
O10 N9 1_555 1_555
O11 N9 1_555 1_555
O12 Co2 1_555 1_555
O13 Co2 1_555 1_555
O14 N10 1_555 1_555
N11 C68 1_555 1_555
C67 H49 1_555 1_555
H50 C67 1_555 1_555
H51 C67 1_555 1_555
C68 C67 1_555 1_555
N12 C69 1_555 1_555
C69 C70 1_555 1_555
C70 H52 1_555 1_555
H53 C70 1_555 1_555
H54 C70 1_555 1_555
C71 H55 1_555 1_555
Cl1 C71 1_555 1_555
Cl2 C71 1_555 1_555
Cl3 C71 1_555 1_555
C72 H56 1_555 1_555
Cl4 C72 1_555 1_555
Cl5 C72 1_555 1_555
Cl6 C72 1_555 1_555
Co1_2 N3 1_555 1_555
Co2_2 O2 1_555 1_555
Co2_3 N6 1_555 1_555
N3_2 Co1 1_555 1_555
N6_2 Co2 1_555 1_555
O2_2 Co2 1_555 1_555
P1 O1 1_555 1_555
C5 N1 1_555 1_555
C10 N2 1_555 1_555
C14 C15 1_555 1_555
C14 N3 1_555 1_555
C20 C21 1_555 1_555
C26 C27 1_555 1_555
C32 C33 1_555 1_555
C38 N4 1_555 1_555
C43 N5 1_555 1_555
C47 C48 1_555 1_555
C47 N6 1_555 1_555
C53 C54 1_555 1_555
C59 C60 1_555 1_555
C65 C66 1_555 1_555
N7 O5 1_555 1_555
N10 O13 1_555 1_555

#END
