
#######################################################################
#
#                 Cambridge Crystallographic Data Centre
#                                CCDC 
#
#######################################################################
#
# If this CIF has been generated from an entry in the Cambridge 
# Structural Database, then it will include bibliographic, chemical, 
# crystal, experimental, refinement or atomic coordinate data resulting 
# from the CCDC's data processing and validation procedures.
#
#######################################################################

data_YOYBOF
_symmetry_cell_setting           monoclinic
_symmetry_space_group_name_H-M   'C 2/c'
_symmetry_Int_Tables_number      15
_space_group_name_Hall           '-C 2yn'
loop_
_symmetry_equiv_pos_site_id
_symmetry_equiv_pos_as_xyz
1 x,y,z
2 -x,y,1/2-z
3 1/2+x,1/2+y,z
4 1/2-x,1/2+y,1/2-z
5 -x,-y,-z
6 x,-y,1/2+z
7 1/2-x,1/2-y,-z
8 1/2+x,1/2-y,1/2+z
_cell_length_a                   25.1240(12)
_cell_length_b                   17.0584(5)
_cell_length_c                   30.6102(13)
_cell_angle_alpha                90
_cell_angle_beta                 113.725(5)
_cell_angle_gamma                90
_cell_volume                     12010.1
loop_
_atom_site_label
_atom_site_type_symbol
_atom_site_fract_x
_atom_site_fract_y
_atom_site_fract_z
Zn1 Zn 0.33861(2) 0.51669(2) 0.432192(16)
Zn2 Zn 0.66221(2) 0.56412(3) 0.820827(17)
O1 O 0.61700(13) 0.65595(14) 0.82940(10)
O2 O 0.68096(18) 0.73073(18) 0.81719(16)
O3 O 0.33480(16) -0.32963(18) 0.44857(14)
O4 O 0.37424(14) 0.41911(15) 0.42106(10)
O5 O 0.61549(14) 1.47284(15) 0.82570(10)
O6 O 0.38965(14) -0.39900(16) 0.42238(11)
O7 O 0.70702(15) 0.55711(18) 0.89915(11)
H1 H 0.7177(14) 0.5131(9) 0.9148(8)
O8 O 0.28657(15) 0.52643(16) 0.35614(10)
H2 H 0.2786(18) 0.5709(8) 0.3426(7)
C1 C 0.38276(19) 0.2099(2) 0.44266(15)
H3 H 0.3482 0.2026 0.4464
C2 C 0.49059(19) 0.4859(2) 0.56762(15)
H4 H 0.5264 0.4620 0.5751
C3 C 0.5487(2) 0.7868(2) 0.83041(16)
H5 H 0.5391 0.7390 0.8399
C4 C 0.48007(19) 0.5294(2) 0.60183(14)
N1 N 0.24251(15) 1.06429(18) 0.81692(12)
C5 C 0.43886(19) 1.1349(2) 0.81240(14)
H6 H 0.4205 1.1827 0.8113
O9 O 0.32063(16) 0.34400(18) 0.44705(13)
N2 N 0.47737(16) 0.01482(17) 0.43727(12)
C6 C 0.4101(2) -0.2624(2) 0.43508(15)
C7 C 0.5137(2) 0.5816(3) 0.68424(17)
H7 H 0.4766 0.6014 0.6772
C8 C 0.41610(19) 0.1457(2) 0.44371(14)
H8 H 0.4037 0.0959 0.4478
C9 C 0.5395(2) 1.3455(2) 0.81386(16)
H9 H 0.5257 1.3952 0.8161
N3 N 0.76119(15) 0.02217(18) 0.44238(12)
C10 C 0.4513(2) 0.2939(2) 0.43097(16)
H10 H 0.4631 0.3437 0.4263
N4 N 0.52178(16) 1.06513(18) 0.81308(12)
C11 C 0.59678(19) 0.7920(2) 0.81863(14)
N5 N 0.61020(16) 0.56538(19) 0.74344(12)
C12 C 0.41111(19) 1.0651(2) 0.81399(14)
C13 C 0.3904(2) -0.1898(2) 0.44175(16)
H11 H 0.3556 -0.1861 0.4457
C14 C 0.4610(2) -0.2660(2) 0.42801(16)
H12 H 0.4745 -0.3144 0.4227
C15 C 0.5571(2) 0.5935(3) 0.72868(17)
H13 H 0.5482 0.6239 0.7501
O10 O 0.66905(15) 1.40254(17) 0.79764(13)
C16 C 0.56291(19) -0.0521(2) 0.44143(14)
H14 H 0.5821 -0.0990 0.4421
C17 C 0.4251(2) 0.5635(3) 0.58746(16)
H15 H 0.4155 0.5921 0.6091
C18 C 0.56083(19) 0.0879(2) 0.44287(14)
H16 H 0.5785 0.1364 0.4444
C19 C 0.57619(19) 0.9301(2) 0.80271(15)
H17 H 0.5859 0.9781 0.7935
C20 C 0.31169(19) 1.1216(2) 0.79204(14)
H18 H 0.3206 1.1618 0.7755
C21 C 0.5248(2) 0.5408(2) 0.65026(15)
C22 C 0.6097(2) 0.8638(2) 0.80417(15)
H19 H 0.6410 0.8681 0.7953
C23 C 0.25767(19) 1.1192(2) 0.79362(15)
H20 H 0.2307 1.1578 0.7776
C24 C 0.4860(2) 0.2302(2) 0.43258(16)
H21 H 0.5210 0.2378 0.4296
C25 C 0.59079(18) 0.0191(2) 0.44355(14)
C26 C 0.39888(19) 0.2852(2) 0.43620(14)
C27 C 0.6350(2) 0.7223(2) 0.82241(16)
C28 C 0.5817(2) 0.5114(3) 0.66499(17)
H22 H 0.5924 0.4833 0.6437
C29 C 0.5062(2) 1.2803(2) 0.81388(15)
H23 H 0.4701 1.2867 0.8152
C30 C 0.5924(2) 1.3383(2) 0.81058(15)
C31 C 0.65070(18) 0.0214(2) 0.44504(14)
C32 C 0.4470(2) 0.4788(2) 0.52236(15)
H24 H 0.4545 0.4480 0.5004
C33 C 0.6678(2) 0.0808(2) 0.42237(15)
H25 H 0.6425 0.1216 0.4074
C34 C 0.35317(19) 1.0643(2) 0.81499(14)
C35 C 0.6127(2) 1.2640(2) 0.80740(17)
H26 H 0.6480 1.2579 0.8046
N6 N 0.39527(16) 0.51298(19) 0.50800(12)
C36 C 0.49479(19) 1.1328(2) 0.81245(14)
C37 C 0.46900(19) 0.1547(2) 0.43867(14)
C38 C 0.3850(2) 0.5547(3) 0.54085(16)
H27 H 0.3490 0.5789 0.5319
C39 C 0.5155(2) 0.8522(2) 0.82798(16)
H28 H 0.4831 0.8478 0.8353
C40 C 0.5803(2) 1.1986(2) 0.80834(16)
H29 H 0.5946 1.1490 0.8066
C41 C 0.3368(2) 1.0071(2) 0.83944(16)
H30 H 0.3629 0.9677 0.8556
C42 C 0.4921(2) -0.1993(2) 0.42872(16)
H31 H 0.5264 -0.2031 0.4242
C43 C 0.52731(19) 1.2049(2) 0.81187(14)
C44 C 0.7226(2) 0.0789(2) 0.42222(16)
H32 H 0.7332 0.1196 0.4071
C45 C 0.50432(19) 0.0835(2) 0.43991(14)
C46 C 0.50590(19) -0.0526(2) 0.43821(13)
C47 C 0.52968(19) 0.9253(2) 0.81463(14)
C48 C 0.44023(19) 0.9949(2) 0.81460(14)
H33 H 0.4230 0.9471 0.8156
C49 C 0.4211(2) -0.1229(2) 0.44273(16)
H34 H 0.4072 -0.0749 0.4479
C50 C 0.6218(2) 0.5243(3) 0.71110(16)
H35 H 0.6589 0.5033 0.7201
C51 C 0.3748(2) -0.3345(2) 0.43532(16)
C52 C 0.2823(2) 1.0080(2) 0.84007(15)
H36 H 0.2725 0.9691 0.8568
C53 C 0.2562(3) 0.4670(4) 0.3231(2)
H37 H 0.2842 0.4301 0.3205
H38 H 0.2359 0.4907 0.2919
C54 C 0.6917(2) -0.0342(2) 0.46860(15)
H39 H 0.6835 -0.0726 0.4865
C55 C 0.49469(19) 0.9970(2) 0.81375(14)
C56 C 0.3618(2) 0.3533(2) 0.43452(15)
C57 C 0.47244(18) -0.1254(2) 0.43620(14)
C58 C 0.7454(2) -0.0333(2) 0.46577(15)
H40 H 0.7717 -0.0731 0.4808
C59 C 0.6282(2) 1.4080(2) 0.81050(15)
C60 C 0.2151(3) 0.4251(4) 0.3357(2)
H41 H 0.2004 0.3811 0.3147
H42 H 0.1835 0.4592 0.3328
H43 H 0.2337 0.4069 0.3680
C61 C 0.7387(3) 0.6912(5) 0.9400(3)
H44 H 0.7410 0.7309 0.9186
H45 H 0.7658 0.7028 0.9718
H46 H 0.7000 0.6898 0.9389
C62 C 0.7540(4) 0.6086(5) 0.9243(4)
H47 H 0.7752 0.6178 0.9044
H48 H 0.7801 0.5817 0.9527
Zn1_2 Zn 0.33861(2) -0.48331(2) 0.432192(16)
Zn1B Zn 0.83861(2) 0.01669(2) 0.432192(16)
Zn2_2 Zn 0.66221(2) 1.56412(3) 0.820827(17)
Zn2B Zn 0.16221(2) 1.06412(3) 0.820827(17)
O5_2 O 0.61549(14) 0.47284(15) 0.82570(10)
O6_2 O 0.38965(14) 0.60100(16) 0.42238(11)
N1B N 0.74251(15) 0.56429(18) 0.81692(12)
N3B N 0.26119(15) 0.52217(18) 0.44238(12)
loop_
_geom_bond_atom_site_label_1
_geom_bond_atom_site_label_2
_geom_bond_site_symmetry_1
_geom_bond_site_symmetry_2
Zn1 O4 1_555 1_555
Zn2 O1 1_555 1_555
O1 C27 1_555 1_555
O2 C27 1_555 1_555
O3 C51 1_555 1_555
O4 C56 1_555 1_555
O5 C59 1_555 1_555
O6 C51 1_555 1_555
O7 Zn2 1_555 1_555
H1 O7 1_555 1_555
O8 Zn1 1_555 1_555
H2 O8 1_555 1_555
C1 H3 1_555 1_555
C2 H4 1_555 1_555
C3 H5 1_555 1_555
C4 C2 1_555 1_555
N1 C23 1_555 1_555
C5 H6 1_555 1_555
O9 C56 1_555 1_555
N2 C45 1_555 1_555
C6 C13 1_555 1_555
C7 H7 1_555 1_555
C8 C1 1_555 1_555
H8 C8 1_555 1_555
C9 H9 1_555 1_555
N3 C44 1_555 1_555
C10 H10 1_555 1_555
N4 C36 1_555 1_555
C11 C3 1_555 1_555
N5 Zn2 1_555 1_555
C12 C5 1_555 1_555
C13 H11 1_555 1_555
C14 C6 1_555 1_555
H12 C14 1_555 1_555
C15 C7 1_555 1_555
H13 C15 1_555 1_555
O10 C59 1_555 1_555
C16 H14 1_555 1_555
C17 C4 1_555 1_555
H15 C17 1_555 1_555
C18 H16 1_555 1_555
C19 H17 1_555 1_555
C20 H18 1_555 1_555
C21 C4 1_555 1_555
C22 C11 1_555 1_555
H19 C22 1_555 1_555
C23 C20 1_555 1_555
H20 C23 1_555 1_555
C24 C10 1_555 1_555
H21 C24 1_555 1_555
C25 C16 1_555 1_555
C26 C1 1_555 1_555
C27 C11 1_555 1_555
C28 C21 1_555 1_555
H22 C28 1_555 1_555
C29 C9 1_555 1_555
H23 C29 1_555 1_555
C30 C9 1_555 1_555
C31 C25 1_555 1_555
C32 C2 1_555 1_555
H24 C32 1_555 1_555
C33 C31 1_555 1_555
H25 C33 1_555 1_555
C34 C12 1_555 1_555
C35 C30 1_555 1_555
H26 C35 1_555 1_555
N6 Zn1 1_555 1_555
C36 C5 1_555 1_555
C37 C8 1_555 1_555
C38 C17 1_555 1_555
H27 C38 1_555 1_555
C39 C3 1_555 1_555
H28 C39 1_555 1_555
C40 C35 1_555 1_555
H29 C40 1_555 1_555
C41 C34 1_555 1_555
H30 C41 1_555 1_555
C42 C14 1_555 1_555
H31 C42 1_555 1_555
C43 C29 1_555 1_555
C44 C33 1_555 1_555
H32 C44 1_555 1_555
C45 C18 1_555 1_555
C46 N2 1_555 1_555
C47 C19 1_555 1_555
C48 C12 1_555 1_555
H33 C48 1_555 1_555
C49 C13 1_555 1_555
H34 C49 1_555 1_555
C50 N5 1_555 1_555
H35 C50 1_555 1_555
C51 C6 1_555 1_555
C52 N1 1_555 1_555
H36 C52 1_555 1_555
C53 O8 1_555 1_555
H37 C53 1_555 1_555
H38 C53 1_555 1_555
C54 C31 1_555 1_555
H39 C54 1_555 1_555
C55 N4 1_555 1_555
C56 C26 1_555 1_555
C57 C42 1_555 1_555
C58 N3 1_555 1_555
H40 C58 1_555 1_555
C59 C30 1_555 1_555
C60 C53 1_555 1_555
H41 C60 1_555 1_555
H42 C60 1_555 1_555
H43 C60 1_555 1_555
C61 H44 1_555 1_555
H45 C61 1_555 1_555
H46 C61 1_555 1_555
C62 O7 1_555 1_555
H47 C62 1_555 1_555
H48 C62 1_555 1_555
Zn1_2 O6 1_555 1_555
Zn1B N3 1_555 1_555
Zn2_2 O5 1_555 1_555
Zn2B N1 1_555 1_555
O5_2 Zn2 1_555 1_555
O6_2 Zn1 1_555 1_555
N1B Zn2 1_555 1_555
N3B Zn1 1_555 1_555
C7 C21 1_555 1_555
C10 C26 1_555 1_555
N5 C15 1_555 1_555
C16 C46 1_555 1_555
C18 C25 1_555 1_555
C19 C22 1_555 1_555
C20 C34 1_555 1_555
C24 C37 1_555 1_555
C28 C50 1_555 1_555
C32 N6 1_555 1_555
N6 C38 1_555 1_555
C36 C43 1_555 1_555
C37 C45 1_555 1_555
C39 C47 1_555 1_555
C40 C43 1_555 1_555
C41 C52 1_555 1_555
C46 C57 1_555 1_555
C47 C55 1_555 1_555
C48 C55 1_555 1_555
C49 C57 1_555 1_555
C54 C58 1_555 1_555
C61 C62 1_555 1_555

#END
