
#######################################################################
#
#                 Cambridge Crystallographic Data Centre
#                                CCDC 
#
#######################################################################
#
# If this CIF has been generated from an entry in the Cambridge 
# Structural Database, then it will include bibliographic, chemical, 
# crystal, experimental, refinement or atomic coordinate data resulting 
# from the CCDC's data processing and validation procedures.
#
#######################################################################

data_YOYVEP
_symmetry_cell_setting           rhombohedral
_symmetry_space_group_name_H-M   'R -3 m'
_symmetry_Int_Tables_number      166
_space_group_name_Hall           '-R 3 2"'
loop_
_symmetry_equiv_pos_site_id
_symmetry_equiv_pos_as_xyz
1 x,y,z
2 -y,x-y,z
3 -x+y,-x,z
4 x-y,-y,-z
5 -x,-x+y,-z
6 y,x,-z
7 2/3+x,1/3+y,1/3+z
8 2/3-y,1/3+x-y,1/3+z
9 2/3-x+y,1/3-x,1/3+z
10 2/3+x-y,1/3-y,1/3-z
11 2/3-x,1/3-x+y,1/3-z
12 2/3+y,1/3+x,1/3-z
13 1/3+x,2/3+y,2/3+z
14 1/3-y,2/3+x-y,2/3+z
15 1/3-x+y,2/3-x,2/3+z
16 1/3+x-y,2/3-y,2/3-z
17 1/3-x,2/3-x+y,2/3-z
18 1/3+y,2/3+x,2/3-z
19 -x,-y,-z
20 y,-x+y,-z
21 x-y,x,-z
22 -x+y,y,z
23 x,x-y,z
24 -y,-x,z
25 1/3-x,2/3-y,2/3-z
26 1/3+y,2/3-x+y,2/3-z
27 1/3+x-y,2/3+x,2/3-z
28 1/3-x+y,2/3+y,2/3+z
29 1/3+x,2/3+x-y,2/3+z
30 1/3-y,2/3-x,2/3+z
31 2/3-x,1/3-y,1/3-z
32 2/3+y,1/3-x+y,1/3-z
33 2/3+x-y,1/3+x,1/3-z
34 2/3-x+y,1/3+y,1/3+z
35 2/3+x,1/3+x-y,1/3+z
36 2/3-y,1/3-x,1/3+z
_cell_length_a                   26.4590(10)
_cell_length_b                   26.4590(10)
_cell_length_c                   9.5783(5)
_cell_angle_alpha                90
_cell_angle_beta                 90
_cell_angle_gamma                120
_cell_volume                     5807.19
loop_
_atom_site_label
_atom_site_type_symbol
_atom_site_fract_x
_atom_site_fract_y
_atom_site_fract_z
Au1 Au 0.373651(17) 0.3333 0.8333
Fe1 Fe 0.5000 0.5000 0.5000
N1 N 0.4548(2) 0.5452(2) 0.5027(10)
N2 N 0.4449(3) 0.4438(3) 0.6464(7)
N3 N 0.3924(3) 0.69619(17) 0.5024(9)
C1 C 0.4833(3) 0.6040(3) 0.5027(9)
H1 H 0.5238 0.6243 0.5024
C2 C 0.4546(3) 0.6351(3) 0.5029(9)
H2 H 0.4757 0.6757 0.5039
C3 C 0.3940(2) 0.6060(2) 0.5018(13)
C4 C 0.3619(2) 0.6381(2) 0.4996(12)
C5 C 0.4153(4) 0.4047(4) 0.7160(9)
N1A N 0.4548(2) 0.9096(3) 0.5027(10)
N3A N 0.30381(17) 0.69621(34) 0.5024(9)
C1A C 0.3960(3) 0.8793(4) 0.5027(9)
H1A H 0.3757 0.8995 0.5024
C2A C 0.3649(3) 0.8195(4) 0.5029(9)
H2A H 0.3243 0.8000 0.5039
C3A C 0.3940(2) 0.7880(3) 0.5018(13)
C4A C 0.3619(2) 0.7238(3) 0.4996(12)
N1B N 0.0904(3) 0.5452(2) 0.5027(10)
N3B N 0.30379(34) 0.6076(3) 0.5024(9)
C1B C 0.1207(4) 0.5167(3) 0.5027(9)
H1B H 0.1005 0.4762 0.5024
C2B C 0.1805(4) 0.5454(3) 0.5029(9)
H2B H 0.2000 0.5243 0.5039
C3B C 0.2120(3) 0.6060(2) 0.5018(13)
C4B C 0.2762(3) 0.6381(2) 0.4996(12)
C1U C 0.1207(4) 0.6040(3) 0.5027(9)
H1U H 0.1005 0.6243 0.5024
C2U C 0.1805(4) 0.6351(3) 0.5029(9)
H2U H 0.2000 0.6757 0.5039
C1V C 0.4833(3) 0.8793(4) 0.5027(9)
H1V H 0.5238 0.8995 0.5024
C2V C 0.4546(3) 0.8195(4) 0.5029(9)
H2V H 0.4757 0.8000 0.5039
C1W C 0.3960(3) 0.5167(3) 0.5027(9)
H1W H 0.3757 0.4762 0.5024
C2W C 0.3649(3) 0.5454(3) 0.5029(9)
H2W H 0.3243 0.5243 0.5039
Fe1A Fe 0.5000 1.0000 0.5000
N2A N 0.5562(3) 1.0011(4) 0.6464(7)
C5A C 0.5953(4) 1.0106(6) 0.7160(9)
Fe1B Fe 0.0000 0.5000 0.5000
N2B N -0.0011(4) 0.5551(3) 0.6464(7)
C5B C -0.0106(6) 0.5847(4) 0.7160(9)
N1E N 0.5452(2) 0.4548(2) 0.4973(10)
N2E N 0.4438(3) 0.4449(3) 0.3536(7)
N3E N 0.69619(17) 0.3924(3) 0.4976(9)
C1E C 0.6040(3) 0.4833(3) 0.4973(9)
H1E H 0.6243 0.5238 0.4976
C2E C 0.6351(3) 0.4546(3) 0.4971(9)
H2E H 0.6757 0.4757 0.4961
C3E C 0.6060(2) 0.3940(2) 0.4982(13)
C4E C 0.6381(2) 0.3619(2) 0.5004(12)
C5E C 0.4047(4) 0.4153(4) 0.2840(9)
N1C N 0.9096(3) 0.4548(2) 0.4973(10)
N3C N 0.69621(34) 0.30381(17) 0.4976(9)
C1C C 0.8793(4) 0.3960(3) 0.4973(9)
H1C H 0.8995 0.3757 0.4976
C2C C 0.8195(4) 0.3649(3) 0.4971(9)
H2C H 0.8000 0.3243 0.4961
C3C C 0.7880(3) 0.3940(2) 0.4982(13)
C4C C 0.7238(3) 0.3619(2) 0.5004(12)
N1D N 0.5452(2) 0.0904(3) 0.4973(10)
N3D N 0.6076(3) 0.30379(34) 0.4976(9)
C1D C 0.5167(3) 0.1207(4) 0.4973(9)
H1D H 0.4762 0.1005 0.4976
C2D C 0.5454(3) 0.1805(4) 0.4971(9)
H2D H 0.5243 0.2000 0.4961
C3D C 0.6060(2) 0.2120(3) 0.4982(13)
C4D C 0.6381(2) 0.2762(3) 0.5004(12)
C1S C 0.6040(3) 0.1207(4) 0.4973(9)
H1S H 0.6243 0.1005 0.4976
C2S C 0.6351(3) 0.1805(4) 0.4971(9)
H2S H 0.6757 0.2000 0.4961
C1T C 0.8793(4) 0.4833(3) 0.4973(9)
H1T H 0.8995 0.5238 0.4976
C2T C 0.8195(4) 0.4546(3) 0.4971(9)
H2T H 0.8000 0.4757 0.4961
C1R C 0.5167(3) 0.3960(3) 0.4973(9)
H1R H 0.4762 0.3757 0.4976
C2R C 0.5454(3) 0.3649(3) 0.4971(9)
H2R H 0.5243 0.3243 0.4961
N2O N 0.3344(4) 0.2229(3) 1.0203(7)
C5O C 0.3439(6) 0.2620(4) 0.9507(9)
N2R N 0.5551(3) 0.5562(3) 0.3536(7)
C5R C 0.5847(4) 0.5953(4) 0.2840(9)
N2S N 0.4438(3) 0.9989(4) 0.3536(7)
C5S C 0.4047(4) 0.9894(6) 0.2840(9)
N2T N 0.0011(4) 0.4449(3) 0.3536(7)
C5T C 0.0106(6) 0.4153(4) 0.2840(9)
Au1U Au -0.040351(17) 0.3333 0.8333
N2U N -0.0011(4) 0.4438(3) 0.6464(7)
C5U C -0.0106(6) 0.4047(4) 0.7160(9)
Au1V Au 0.373651(17) 1.040351(17) 0.8333
N2V N 0.4449(3) 1.0011(4) 0.6464(7)
C5V C 0.4153(4) 1.0106(6) 0.7160(9)
N2W N 0.5562(3) 0.5551(3) 0.6464(7)
C5W C 0.5953(4) 0.5847(4) 0.7160(9)
N2D N 0.5551(3) 0.9989(4) 0.3536(7)
C5D C 0.5847(4) 0.9894(6) 0.2840(9)
Au1A Au 0.6667 1.040351(17) 0.8333
Au1B Au -0.040351(17) 0.626349(17) 0.8333
Au1E Au 0.3333 0.373651(17) 0.1667
Au1D Au 0.626349(17) 0.959649(17) 0.1667
Au1R Au 0.626349(17) 0.6667 0.1667
Au1S Au 0.3333 0.959649(17) 0.1667
Au1T Au 0.040351(17) 0.373651(17) 0.1667
Au1W Au 0.6667 0.626349(17) 0.8333
Fe1A_2 Fe 0.5000 0.0000 0.5000
Fe1B_2 Fe 1.0000 0.5000 0.5000
Fe1N Fe 0.3333 0.1667 1.1667
N1C_2 N -0.0904(3) 0.4548(2) 0.4973(10)
N1D_2 N 0.5452(2) 1.0904(3) 0.4973(10)
N2C N 0.0011(4) 0.5562(3) 0.3536(7)
C5G C 0.2620(4) 0.3439(6) 0.0493(9)
C5P C -0.0820(4) 0.6561(6) 0.9507(9)
C5Q C 0.7380(4) 1.0820(4) 0.9507(9)
C5X C -0.0820(4) 0.2620(4) 0.9507(9)
C5Z C 0.3439(6) 1.0820(4) 0.9507(9)
N4 N 0.6042(7) 0.8021(4) 0.4283(18)
C6 C 0.5854(7) 0.7526(6) 0.3622(15)
H3 H 0.5941 0.7236 0.3852
C7 C 0.5509(6) 0.7505(6) 0.2536(16)
H4 H 0.5311 0.7197 0.1914
C6V C 0.5854(7) 0.8328(9) 0.3622(15)
H3V H 0.5941 0.8705 0.3852
C7V C 0.5509(6) 0.8004(8) 0.2536(16)
H4V H 0.5311 0.8114 0.1914
loop_
_geom_bond_atom_site_label_1
_geom_bond_atom_site_label_2
_geom_bond_site_symmetry_1
_geom_bond_site_symmetry_2
Au1 C5 1_555 1_555
Fe1 N1 1_555 1_555
N1 C1 1_555 1_555
N2 Fe1 1_555 1_555
N3 C4 1_555 1_555
C1 H1 1_555 1_555
C2 C1 1_555 1_555
H2 C2 1_555 1_555
C3 C2 1_555 1_555
C4 C3 1_555 1_555
C5 N2 1_555 1_555
N4 C6 1_555 1_555
C6 H3 1_555 1_555
C7 C6 1_555 1_555
H4 C7 1_555 1_555
N1A C1A 1_555 1_555
N3A C4A 1_555 1_555
C1A H1A 1_555 1_555
C2A C1A 1_555 1_555
H2A C2A 1_555 1_555
C3A C2A 1_555 1_555
C4A N3 1_555 1_555
N1B C1B 1_555 1_555
N3B C4 1_555 1_555
C1B H1B 1_555 1_555
C2B C1B 1_555 1_555
H2B C2B 1_555 1_555
C3B C2B 1_555 1_555
C4B N3A 1_555 1_555
C1U N1B 1_555 1_555
H1U C1U 1_555 1_555
C2U C3B 1_555 1_555
H2U C2U 1_555 1_555
C1V N1A 1_555 1_555
H1V C1V 1_555 1_555
C2V C3A 1_555 1_555
H2V C2V 1_555 1_555
C1W N1 1_555 1_555
H1W C1W 1_555 1_555
C2W C3 1_555 1_555
H2W C2W 1_555 1_555
Fe1A N1A 1_555 1_555
N2A Fe1A 1_555 1_555
C5A N2A 1_555 1_555
Fe1B N1B 1_555 1_555
N2B Fe1B 1_555 1_555
C5B N2B 1_555 1_555
N1E Fe1 1_555 1_555
N2E Fe1 1_555 1_555
N3E C4E 1_555 1_555
C1E N1E 1_555 1_555
H1E C1E 1_555 1_555
C2E C1E 1_555 1_555
H2E C2E 1_555 1_555
C3E C2E 1_555 1_555
C4E C3E 1_555 1_555
C5E N2E 1_555 1_555
N1C C1C 1_555 1_555
N3C C4C 1_555 1_555
C1C H1C 1_555 1_555
C2C C1C 1_555 1_555
H2C C2C 1_555 1_555
C3C C2C 1_555 1_555
C4C N3E 1_555 1_555
N1D C1D 1_555 1_555
N3D C4E 1_555 1_555
C1D H1D 1_555 1_555
C2D C1D 1_555 1_555
H2D C2D 1_555 1_555
C3D C2D 1_555 1_555
C4D N3C 1_555 1_555
C1S N1D 1_555 1_555
H1S C1S 1_555 1_555
C2S C3D 1_555 1_555
H2S C2S 1_555 1_555
C1T N1C 1_555 1_555
H1T C1T 1_555 1_555
C2T C3C 1_555 1_555
H2T C2T 1_555 1_555
C1R N1E 1_555 1_555
H1R C1R 1_555 1_555
C2R C3E 1_555 1_555
H2R C2R 1_555 1_555
N2O C5O 1_555 1_555
C5O Au1 1_555 1_555
N2R Fe1 1_555 1_555
C5R N2R 1_555 1_555
N2S Fe1A 1_555 1_555
C5S N2S 1_555 1_555
N2T Fe1B 1_555 1_555
C5T N2T 1_555 1_555
Au1U C5U 1_555 1_555
N2U Fe1B 1_555 1_555
C5U N2U 1_555 1_555
Au1V C5V 1_555 1_555
N2V Fe1A 1_555 1_555
C5V N2V 1_555 1_555
N2W Fe1 1_555 1_555
C5W N2W 1_555 1_555
N2D Fe1A 1_555 1_555
C5D N2D 1_555 1_555
Au1A C5A 1_555 1_555
Au1B C5B 1_555 1_555
Au1E C5E 1_555 1_555
Au1D C5D 1_555 1_555
Au1R C5R 1_555 1_555
Au1S C5S 1_555 1_555
Au1T C5T 1_555 1_555
Au1W C5W 1_555 1_555
Fe1A_2 N1D 1_555 1_555
Fe1B_2 N1C 1_555 1_555
Fe1N N2O 1_555 1_555
N1C_2 Fe1B 1_555 1_555
N1D_2 Fe1A 1_555 1_555
N2C Fe1B 1_555 1_555
C5G Au1E 1_555 1_555
C5P Au1B 1_555 1_555
C5Q Au1A 1_555 1_555
C5X Au1U 1_555 1_555
C5Z Au1V 1_555 1_555
C6V N4 1_555 1_555
H3V C6V 1_555 1_555
C7V C7 1_555 1_555
H4V C7V 1_555 1_555
C3A C4A 1_555 1_555
N3B C4B 1_555 1_555
C3B C4B 1_555 1_555
C1U C2U 1_555 1_555
C1V C2V 1_555 1_555
C1W C2W 1_555 1_555
C3C C4C 1_555 1_555
N3D C4D 1_555 1_555
C3D C4D 1_555 1_555
C1S C2S 1_555 1_555
C1T C2T 1_555 1_555
C1R C2R 1_555 1_555
C6V C7V 1_555 1_555

#END
