
#######################################################################
#
#                 Cambridge Crystallographic Data Centre
#                                CCDC 
#
#######################################################################
#
# If this CIF has been generated from an entry in the Cambridge 
# Structural Database, then it will include bibliographic, chemical, 
# crystal, experimental, refinement or atomic coordinate data resulting 
# from the CCDC's data processing and validation procedures.
#
#######################################################################

data_YUKKAR
_symmetry_cell_setting           monoclinic
_symmetry_space_group_name_H-M   'C 2/m'
_symmetry_Int_Tables_number      12
_space_group_name_Hall           '-C 2y'
loop_
_symmetry_equiv_pos_site_id
_symmetry_equiv_pos_as_xyz
1 x,y,z
2 -x,y,-z
3 1/2+x,1/2+y,z
4 1/2-x,1/2+y,-z
5 -x,-y,-z
6 x,-y,z
7 1/2-x,1/2-y,-z
8 1/2+x,1/2-y,z
_cell_length_a                   9.4700(16)
_cell_length_b                   17.125(3)
_cell_length_c                   12.7425(18)
_cell_angle_alpha                90
_cell_angle_beta                 95.697(13)
_cell_angle_gamma                90
_cell_volume                     2056.29
loop_
_atom_site_label
_atom_site_type_symbol
_atom_site_fract_x
_atom_site_fract_y
_atom_site_fract_z
Mn1 Mn 0.0000 0.34574(5) 0.0000
O1 O 0.0592(3) 0.43537(16) 0.1123(3)
O4 O 0.1795(3) 0.31870(17) -0.0915(3)
O7 O 0.3695(3) 0.24265(17) -0.0946(3)
N1 N 0.8132(5) 0.5000 0.2491(4)
C1 C 0.9598(7) 0.5000 0.4472(5)
C2 C 0.9230(8) 0.5681(3) 0.3936(4)
H1 H 0.9475 0.6169 0.4258
C3 C 0.8521(7) 0.5666(3) 0.2951(4)
H2 H 0.8303 0.6143 0.2590
C4 C 0.7355(6) 0.5000 0.1404(4)
C5 C 0.5767(5) 0.5000 0.1442(4)
C6 C 0.5038(4) 0.4303(2) 0.1425(4)
H3 H 0.5544 0.3823 0.1443
C7 C 0.3561(4) 0.4299(2) 0.1381(4)
H4 H 0.3065 0.3818 0.1387
C8 C 0.2813(5) 0.5000 0.1328(4)
C9 C 0.1225(5) 0.5000 0.1175(4)
C10 C 0.2641(4) 0.2677(2) -0.0531(4)
H5 H 0.766(5) 0.550(3) 0.108(4)
Mn1D Mn 0.0000 0.65426(5) 0.0000
Mn1F Mn 0.5000 0.15426(5) 0.0000
Mn1_2 Mn 2.0000 0.34574(5) 1.0000
Mn1D_2 Mn 2.0000 0.65426(5) 1.0000
Mn1B Mn 0.5000 0.84574(5) 0.0000
O1E O 0.0592(3) 0.56463(16) 0.1123(3)
O1A O 1.9408(3) 0.43537(16) 0.8877(3)
O1D O 1.9408(3) 0.56463(16) 0.8877(3)
O1A_2 O -0.0592(3) 0.43537(16) -0.1123(3)
O1D_2 O -0.0592(3) 0.56463(16) -0.1123(3)
O4F O 0.3205(3) 0.18130(17) 0.0915(3)
O4A O -0.1795(3) 0.31870(17) 0.0915(3)
O4E O 0.1795(3) 0.68130(17) -0.0915(3)
O4D O -0.1795(3) 0.68130(17) 0.0915(3)
O4C O 0.3205(3) 0.81870(17) 0.0915(3)
O7F O 0.1305(3) 0.25735(17) 0.0946(3)
O7G O -0.1305(3) 0.25735(17) -0.0946(3)
O7B O -0.1305(3) 0.74265(17) -0.0946(3)
O7C O 0.1305(3) 0.74265(17) 0.0946(3)
O7E O 0.3695(3) 0.75735(17) -0.0946(3)
N1A N 1.1868(5) 0.5000 0.7509(4)
C1A C 1.0402(7) 0.5000 0.5528(5)
C2A C 1.0770(8) 0.5681(3) 0.6064(4)
C2D C 1.0770(8) 0.4319(3) 0.6064(4)
C2E C 0.9230(8) 0.4319(3) 0.3936(4)
H1D H 1.0525 0.3831 0.5742
H1A H 1.0525 0.6169 0.5742
H1E H 0.9475 0.3831 0.4258
C3A C 1.1479(7) 0.5666(3) 0.7049(4)
C3D C 1.1479(7) 0.4334(3) 0.7049(4)
C3E C 0.8521(7) 0.4334(3) 0.2951(4)
H2D H 1.1697 0.3857 0.7410
H2A H 1.1697 0.6143 0.7410
H2E H 0.8303 0.3857 0.2590
C4A C 1.2645(6) 0.5000 0.8596(4)
C5A C 1.4233(5) 0.5000 0.8558(4)
C6A C 1.4962(4) 0.4303(2) 0.8575(4)
C6D C 1.4962(4) 0.5697(2) 0.8575(4)
C6E C 0.5038(4) 0.5697(2) 0.1425(4)
H3D H 1.4456 0.6177 0.8557
H3A H 1.4456 0.3823 0.8557
H3E H 0.5544 0.6177 0.1443
C7A C 1.6439(4) 0.4299(2) 0.8619(4)
C7D C 1.6439(4) 0.5701(2) 0.8619(4)
C7E C 0.3561(4) 0.5701(2) 0.1381(4)
H4D H 1.6935 0.6182 0.8613
H4A H 1.6935 0.3818 0.8613
H4E H 0.3065 0.6182 0.1387
C8A C 1.7187(5) 0.5000 0.8672(4)
C9A C 1.8775(5) 0.5000 0.8825(4)
C10F C 0.2359(4) 0.2323(2) 0.0531(4)
C10E C 0.2641(4) 0.7323(2) -0.0531(4)
C10C C 0.2359(4) 0.7677(2) 0.0531(4)
H5A H 1.234(5) 0.550(3) 0.892(4)
H5D H 1.234(5) 0.450(3) 0.892(4)
H5E H 0.766(5) 0.450(3) 0.108(4)
O2 O 0.456(3) 0.2533(16) -0.305(2)
O3 O 0.368(7) 0.724(4) 0.419(5)
O6 O 0.396(5) 0.5000 0.416(3)
O5? O 0.547(2) 0.5366(11) 0.4471(15)
O8? O 0.343(4) 0.248(2) -0.325(3)
loop_
_geom_bond_atom_site_label_1
_geom_bond_atom_site_label_2
_geom_bond_site_symmetry_1
_geom_bond_site_symmetry_2
Mn1 O1 1_555 1_555
O1 C9 1_555 1_555
O4 Mn1 1_555 1_555
O7 C10 1_555 1_555
N1 C3 1_555 1_555
C1 C2 1_555 1_555
C2 H1 1_555 1_555
C3 C2 1_555 1_555
H2 C3 1_555 1_555
C4 N1 1_555 1_555
C5 C4 1_555 1_555
C6 C5 1_555 1_555
H3 C6 1_555 1_555
C7 C6 1_555 1_555
H4 C7 1_555 1_555
C8 C7 1_555 1_555
C9 C8 1_555 1_555
C10 O4 1_555 1_555
H5 C4 1_555 1_555
Mn1D O1E 1_555 1_555
Mn1F O7 1_555 1_555
Mn1_2 O1A 1_555 1_555
Mn1D_2 O1D 1_555 1_555
Mn1B O4C 1_555 1_555
O1E C9 1_555 1_555
O1A C9A 1_555 1_555
O1D C9A 1_555 1_555
O1A_2 Mn1 1_555 1_555
O1D_2 Mn1D 1_555 1_555
O4F Mn1F 1_555 1_555
O4A Mn1 1_555 1_555
O4E Mn1D 1_555 1_555
O4D Mn1D 1_555 1_555
O4C C10C 1_555 1_555
O7F Mn1 1_555 1_555
O7G Mn1 1_555 1_555
O7B Mn1D 1_555 1_555
O7C Mn1D 1_555 1_555
O7E Mn1B 1_555 1_555
N1A C3A 1_555 1_555
C1A C1 1_555 1_555
C2A C1A 1_555 1_555
C2D C1A 1_555 1_555
C2E C1 1_555 1_555
H1D C2D 1_555 1_555
H1A C2A 1_555 1_555
H1E C2E 1_555 1_555
C3A C2A 1_555 1_555
C3D N1A 1_555 1_555
C3E N1 1_555 1_555
H2D C3D 1_555 1_555
H2A C3A 1_555 1_555
H2E C3E 1_555 1_555
C4A N1A 1_555 1_555
C5A C4A 1_555 1_555
C6A C5A 1_555 1_555
C6D C5A 1_555 1_555
C6E C5 1_555 1_555
H3D C6D 1_555 1_555
H3A C6A 1_555 1_555
H3E C6E 1_555 1_555
C7A C6A 1_555 1_555
C7D C6D 1_555 1_555
C7E C8 1_555 1_555
H4D C7D 1_555 1_555
H4A C7A 1_555 1_555
H4E C7E 1_555 1_555
C8A C7A 1_555 1_555
C9A C8A 1_555 1_555
C10F C10 1_555 1_555
C10E O4E 1_555 1_555
C10C O7C 1_555 1_555
H5A C4A 1_555 1_555
H5D C4A 1_555 1_555
H5E C4 1_555 1_555
O4F C10F 1_555 1_555
O7F C10F 1_555 1_555
O7E C10E 1_555 1_555
C2D C3D 1_555 1_555
C2E C3E 1_555 1_555
C6E C7E 1_555 1_555
C7D C8A 1_555 1_555
C10E C10C 1_555 1_555

#END
