
#######################################################################
#
#                 Cambridge Crystallographic Data Centre
#                                CCDC 
#
#######################################################################
#
# If this CIF has been generated from an entry in the Cambridge 
# Structural Database, then it will include bibliographic, chemical, 
# crystal, experimental, refinement or atomic coordinate data resulting 
# from the CCDC's data processing and validation procedures.
#
#######################################################################

data_YURKIG
_symmetry_cell_setting           monoclinic
_symmetry_space_group_name_H-M   'C 2/c'
_symmetry_Int_Tables_number      15
_space_group_name_Hall           '-C 2yn'
loop_
_symmetry_equiv_pos_site_id
_symmetry_equiv_pos_as_xyz
1 x,y,z
2 -x,y,1/2-z
3 1/2+x,1/2+y,z
4 1/2-x,1/2+y,1/2-z
5 -x,-y,-z
6 x,-y,1/2+z
7 1/2-x,1/2-y,-z
8 1/2+x,1/2-y,1/2+z
_cell_length_a                   35.0141(19)
_cell_length_b                   14.9351(8)
_cell_length_c                   30.3411(17)
_cell_angle_alpha                90
_cell_angle_beta                 97.4220(10)
_cell_angle_gamma                90
_cell_volume                     15733.6
loop_
_atom_site_label
_atom_site_type_symbol
_atom_site_fract_x
_atom_site_fract_y
_atom_site_fract_z
Pr1 Pr 0.085195(4) 0.460951(10) 0.841651(5)
Pr2 Pr 0.206790(4) 0.585270(10) 0.355500(5)
S1 S -0.09839(2) 0.18526(7) 0.90009(3)
S2 S 0.20262(3) 0.95190(6) 0.85589(4)
S3 S 0.09261(3) 0.52383(8) 0.59127(3)
O1 O 0.02156(7) 0.41516(16) 0.80337(8)
O2 O 0.10938(8) 0.4385(2) 0.77003(8)
O3 O 0.06085(8) 0.58497(18) 0.79007(11)
O4 O 0.11742(7) 0.5637(2) 0.41628(8)
O5 O 0.18131(7) 0.5387(2) 0.42283(8)
O6 O 0.02905(7) 0.38722(19) 0.87576(8)
O7 O -0.22638(7) -0.02769(18) 0.87686(9)
O8 O 0.17244(9) 0.4062(2) 0.78237(9)
O9 O 0.14381(7) 0.54534(15) 0.84540(9)
O10 O -0.24613(8) -0.0258(2) 0.80457(10)
O11 O -0.11378(9) 0.2491(3) 0.92848(10)
O12 O 0.09389(9) 1.29944(18) 0.83696(10)
O13 O 0.06027(9) 0.5779(2) 0.88771(11)
O14 O 0.20479(7) 0.58427(16) 0.85415(10)
O15 O 0.15718(10) 1.30600(19) 0.85948(11)
O16 O -0.07503(9) 0.1153(3) 0.92146(12)
O17 O 0.22634(11) 0.9637(2) 0.89773(16)
O18 O 0.09341(13) 0.6182(3) 0.59860(12)
O19 O 0.05531(9) 0.4829(4) 0.58193(11)
O20 O 0.22163(12) 0.9550(2) 0.81688(16)
O21 O 0.23683(9) 0.6782(2) 0.41873(11)
O22 O 0.23780(9) 0.7213(2) 0.32678(12)
N1 N 0.04593(17) 0.6309(4) 0.95344(15)
N2 N 0.04189(12) 0.6426(2) 0.72116(15)
N3 N 0.28030(19) 0.7810(4) 0.4449(3)
N4 N 0.27142(13) 0.8071(4) 0.2832(2)
C1 C -0.04436(8) 0.3099(2) 0.78779(10)
H1 H -0.0341 0.3341 0.7636
C2 C 0.01053(8) 0.3795(2) 0.83763(10)
C3 C -0.16452(10) 0.0861(3) 0.86734(13)
H2 H -0.1679 0.0692 0.8961
C4 C 0.15376(9) 0.4289(2) 0.61895(11)
C5 C 0.15460(9) 0.4442(2) 0.57086(11)
C6 C -0.09303(8) 0.2228(2) 0.81684(10)
C7 C 0.16348(10) 1.1187(2) 0.85118(13)
H3 H 0.1868 1.1493 0.8543
C8 C -0.02572(8) 0.3255(2) 0.83095(10)
C9 C 0.15851(10) 0.7009(2) 0.85205(14)
C10 C -0.04100(9) 0.2900(2) 0.86787(11)
H4 H -0.0292 0.3000 0.8967
C11 C 0.14904(9) 0.5016(2) 0.48280(10)
C12 C 0.14432(10) 0.4242(2) 0.70861(10)
C13 C 0.14152(10) 0.4226(2) 0.75760(10)
C14 C -0.22301(9) -0.0033(2) 0.83727(12)
C15 C 0.14908(9) 0.5372(2) 0.43685(10)
C16 C -0.15311(10) 0.1370(3) 0.78028(12)
H5 H -0.1493 0.1533 0.7516
C17 C -0.07431(9) 0.2397(2) 0.85960(11)
C18 C 0.12616(10) 1.2645(2) 0.84736(11)
C19 C 0.12894(10) 1.1643(2) 0.84646(12)
C20 C -0.07774(8) 0.2591(2) 0.78047(11)
H6 H -0.0898 0.2494 0.7517
C21 C 0.18052(11) 0.4504(3) 0.50225(12)
H7 H 0.2001 0.4368 0.4854
C22 C 0.11643(10) 0.4657(2) 0.67903(11)
H8 H 0.0947 0.4913 0.6886
C23 C -0.18980(9) 0.0567(2) 0.83050(12)
C24 C 0.12319(9) 0.4943(3) 0.55152(11)
C25 C 0.16247(10) 1.0250(2) 0.85118(14)
C26 C 0.17322(10) 0.8559(2) 0.85525(13)
C27 C 0.16987(9) 0.60454(19) 0.85091(11)
C28 C 0.12204(9) 0.4678(2) 0.63468(11)
C29 C 0.11908(10) 0.5218(3) 0.50727(11)
H9 H 0.0972 0.5523 0.4946
C30 C -0.18408(10) 0.0828(3) 0.78734(13)
H10 H -0.2012 0.0635 0.7632
C31 C 0.04613(10) 0.5771(2) 0.75052(13)
H11 H 0.0375 0.5206 0.7410
C32 C 0.3207(7) 0.8039(18) 0.4550(9)
H12 H 0.3296 0.7884 0.4852
H13 H 0.3353 0.7715 0.4355
H14 H 0.3239 0.8670 0.4508
C33 C 0.18329(11) 0.4196(3) 0.54569(12)
H15 H 0.2037 0.3836 0.5576
C34 C -0.12790(9) 0.1667(2) 0.81656(11)
C35 C -0.13437(9) 0.1409(2) 0.85939(11)
C36 C 0.18640(11) 0.7675(2) 0.85710(13)
H16 H 0.2125 0.7540 0.8615
C37 C 0.17626(10) 0.3845(3) 0.69291(12)
H17 H 0.1949 0.3572 0.7132
C38 C 0.13441(11) 0.8791(3) 0.84919(19)
C39 C 0.18109(11) 0.3844(3) 0.64820(12)
H18 H 0.2019 0.3556 0.6382
C40 C 0.12793(11) 0.9775(2) 0.84669(19)
C41 C 0.11865(12) 0.7239(3) 0.8474(2)
H19 H 0.1002 0.6787 0.8449
C42 C 0.03963(13) 0.5767(3) 0.91903(15)
H20 H 0.0193 0.5362 0.9177
C43 C 0.2537(3) 0.8408(4) 0.4585(2)
H21 H 0.2392 0.8116 0.4791
H22 H 0.2670 0.8914 0.4727
H23 H 0.2365 0.8606 0.4332
C44 C 0.10694(13) 0.8125(3) 0.8464(3)
H24 H 0.0809 0.8269 0.8439
C45 C 0.25131(14) 0.7366(5) 0.29284(19)
H25 H 0.2470 0.6932 0.2708
C46 C 0.09356(14) 1.1153(3) 0.8412(2)
H26 H 0.0703 1.1461 0.8375
C47 C 0.02412(12) 0.6310(3) 0.67581(15)
H27 H 0.0240 0.6871 0.6604
H28 H -0.0019 0.6103 0.6757
H29 H 0.0385 0.5878 0.6612
C48 C 0.09343(13) 1.0230(3) 0.8415(3)
H30 H 0.0703 0.9917 0.8382
C49 C 0.0774(4) 0.6951(6) 0.9586(3)
H31 H 0.0768 0.7281 0.9856
H32 H 0.0745 0.7357 0.9338
H33 H 0.1014 0.6639 0.9596
C50 C 0.26963(17) 0.7035(4) 0.4264(2)
H34 H 0.2888 0.6657 0.4189
C51 C 0.2814(3) 0.8737(4) 0.3167(5)
H35 H 0.2958 0.9206 0.3048
H36 H 0.2584 0.8982 0.3259
H37 H 0.2968 0.8470 0.3417
C52 C 0.0182(4) 0.6297(10) 0.9866(3)
H38 H 0.0262 0.6723 1.0097
H39 H 0.0176 0.5709 0.9993
H40 H -0.0070 0.6453 0.9723
C53 C 0.0572(4) 0.7311(8) 0.7339(4)
H41 H 0.0519 0.7715 0.7093
H42 H 0.0846 0.7270 0.7423
H43 H 0.0453 0.7530 0.7586
C54 C 0.2851(4) 0.8105(9) 0.2393(4)
H44 H 0.2991 0.8651 0.2367
H45 H 0.3017 0.7603 0.2362
H46 H 0.2634 0.8083 0.2165
Pr1E Pr 0.085195(4) 0.539049(10) 0.341651(5)
Pr1_2 Pr 0.085195(4) 1.460951(10) 0.841651(5)
Pr2G Pr -0.293210(4) -0.085270(10) 0.855500(5)
Pr2E Pr 0.206790(4) 0.414730(10) 0.855500(5)
Pr2E_2 Pr 0.206790(4) 1.414730(10) 0.855500(5)
O4E O 0.11742(7) 0.4363(2) 0.91628(8)
O7G O 0.27362(7) 0.52769(18) 0.37686(9)
O8E O 0.17244(9) 0.5938(2) 0.28237(9)
O9E O 0.14381(7) 0.45466(15) 0.34540(9)
O10G O 0.25387(8) 0.5258(2) 0.30457(10)
O12_2 O 0.09389(9) 0.29944(18) 0.83696(10)
O14E O 0.20479(7) 0.41573(16) 0.35415(10)
O15E O 0.15718(10) 0.69400(19) 0.35948(11)
O23 O 0.26708(18) 0.7437(4) 0.9226(3)
N5 N 0.2871(2) 0.6327(4) 0.9726(2)
C55 C 0.26688(19) 0.6679(5) 0.9346(3)
H47 H 0.2515 0.6284 0.9165
C56 C 0.2838(4) 0.5410(6) 0.9821(3)
H48 H 0.2996 0.5272 1.0095
H49 H 0.2920 0.5061 0.9585
H50 H 0.2574 0.5272 0.9849
C57 C 0.3112(4) 0.6901(8) 1.0033(4)
H51 H 0.3232 0.6550 1.0277
H52 H 0.2956 0.7359 1.0142
H53 H 0.3307 0.7173 0.9882
O24 O 0.1314(4) 0.1241(18) 1.0490(5)
N6 N 0.1081(8) 0.2136(18) 0.9883(10)
C58 C 0.1114(10) 0.1832(16) 1.0269(8)
H54 H 0.0947 0.2116 1.0439
C59 C 0.1418(8) 0.194(2) 0.9660(10)
H55 H 0.1382 0.2192 0.9366
H56 H 0.1450 0.1304 0.9641
H57 H 0.1643 0.2198 0.9827
C60 C 0.0768(8) 0.2563(11) 0.9651(11)
H58 H 0.0828 0.2732 0.9362
H59 H 0.0707 0.3088 0.9811
H60 H 0.0550 0.2165 0.9619
loop_
_geom_bond_atom_site_label_1
_geom_bond_atom_site_label_2
_geom_bond_site_symmetry_1
_geom_bond_site_symmetry_2
Pr1 O1 1_555 1_555
Pr2 O5 1_555 1_555
S1 O11 1_555 1_555
S2 O17 1_555 1_555
S3 O18 1_555 1_555
O1 C2 1_555 1_555
O2 Pr1 1_555 1_555
O3 Pr1 1_555 1_555
O4 C15 1_555 1_555
O5 C15 1_555 1_555
O6 Pr1 1_555 1_555
O7 C14 1_555 1_555
O8 C13 1_555 1_555
O9 Pr1 1_555 1_555
O10 C14 1_555 1_555
O12 C18 1_555 1_555
O13 Pr1 1_555 1_555
O14 C27 1_555 1_555
O15 C18 1_555 1_555
O16 S1 1_555 1_555
O19 S3 1_555 1_555
O20 S2 1_555 1_555
O21 Pr2 1_555 1_555
O22 Pr2 1_555 1_555
N1 C42 1_555 1_555
N2 C31 1_555 1_555
N3 C32 1_555 1_555
N4 C45 1_555 1_555
C1 H1 1_555 1_555
C2 O6 1_555 1_555
C3 H2 1_555 1_555
C4 C5 1_555 1_555
C5 C24 1_555 1_555
C6 C17 1_555 1_555
C7 H3 1_555 1_555
C8 C1 1_555 1_555
C9 C27 1_555 1_555
C10 C8 1_555 1_555
H4 C10 1_555 1_555
C11 C15 1_555 1_555
C12 C13 1_555 1_555
C13 O2 1_555 1_555
C14 C23 1_555 1_555
C16 H5 1_555 1_555
C17 S1 1_555 1_555
C18 C19 1_555 1_555
C19 C7 1_555 1_555
C20 C1 1_555 1_555
H6 C20 1_555 1_555
C21 C11 1_555 1_555
H7 C21 1_555 1_555
C22 C12 1_555 1_555
H8 C22 1_555 1_555
C23 C3 1_555 1_555
C24 S3 1_555 1_555
C25 S2 1_555 1_555
C26 S2 1_555 1_555
C27 O9 1_555 1_555
C28 S3 1_555 1_555
C29 C11 1_555 1_555
H9 C29 1_555 1_555
C30 C16 1_555 1_555
H10 C30 1_555 1_555
C31 O3 1_555 1_555
H11 C31 1_555 1_555
C32 H12 1_555 1_555
H13 C32 1_555 1_555
H14 C32 1_555 1_555
C33 C5 1_555 1_555
H15 C33 1_555 1_555
C34 C6 1_555 1_555
C35 S1 1_555 1_555
C36 C9 1_555 1_555
H16 C36 1_555 1_555
C37 C12 1_555 1_555
H17 C37 1_555 1_555
C38 C26 1_555 1_555
C39 C4 1_555 1_555
H18 C39 1_555 1_555
C40 C25 1_555 1_555
C41 C9 1_555 1_555
H19 C41 1_555 1_555
C42 O13 1_555 1_555
H20 C42 1_555 1_555
C43 N3 1_555 1_555
H21 C43 1_555 1_555
H22 C43 1_555 1_555
H23 C43 1_555 1_555
C44 C38 1_555 1_555
H24 C44 1_555 1_555
C45 O22 1_555 1_555
H25 C45 1_555 1_555
C46 C19 1_555 1_555
H26 C46 1_555 1_555
C47 N2 1_555 1_555
H27 C47 1_555 1_555
H28 C47 1_555 1_555
H29 C47 1_555 1_555
C48 C40 1_555 1_555
H30 C48 1_555 1_555
C49 N1 1_555 1_555
H31 C49 1_555 1_555
H32 C49 1_555 1_555
H33 C49 1_555 1_555
C50 O21 1_555 1_555
H34 C50 1_555 1_555
C51 N4 1_555 1_555
H35 C51 1_555 1_555
H36 C51 1_555 1_555
H37 C51 1_555 1_555
C52 N1 1_555 1_555
H38 C52 1_555 1_555
H39 C52 1_555 1_555
H40 C52 1_555 1_555
C53 N2 1_555 1_555
H41 C53 1_555 1_555
H42 C53 1_555 1_555
H43 C53 1_555 1_555
C54 N4 1_555 1_555
H44 C54 1_555 1_555
H45 C54 1_555 1_555
H46 C54 1_555 1_555
O23 C55 1_555 1_555
N5 C55 1_555 1_555
C55 H47 1_555 1_555
C56 N5 1_555 1_555
H48 C56 1_555 1_555
H49 C56 1_555 1_555
H50 C56 1_555 1_555
C57 N5 1_555 1_555
H51 C57 1_555 1_555
H52 C57 1_555 1_555
H53 C57 1_555 1_555
O24 C58 1_555 1_555
N6 C58 1_555 1_555
C58 H54 1_555 1_555
C59 N6 1_555 1_555
H55 C59 1_555 1_555
H56 C59 1_555 1_555
H57 C59 1_555 1_555
C60 N6 1_555 1_555
H58 C60 1_555 1_555
H59 C60 1_555 1_555
H60 C60 1_555 1_555
Pr1E O4 1_555 1_555
Pr1_2 O12 1_555 1_555
Pr2G O7 1_555 1_555
Pr2E O8 1_555 1_555
Pr2E_2 O15 1_555 1_555
O4E Pr1 1_555 1_555
O7G Pr2 1_555 1_555
O8E Pr2 1_555 1_555
O9E Pr2 1_555 1_555
O10G Pr2 1_555 1_555
O12_2 Pr1 1_555 1_555
O14E Pr2 1_555 1_555
O15E Pr2 1_555 1_555
O9 Pr2E 1_555 1_555
O10 Pr2G 1_555 1_555
O14 Pr2E 1_555 1_555
N3 C50 1_555 1_555
C2 C8 1_555 1_555
C3 C35 1_555 1_555
C4 C28 1_555 1_555
C6 C20 1_555 1_555
C7 C25 1_555 1_555
C10 C17 1_555 1_555
C16 C34 1_555 1_555
C21 C33 1_555 1_555
C22 C28 1_555 1_555
C23 C30 1_555 1_555
C24 C29 1_555 1_555
C26 C36 1_555 1_555
C34 C35 1_555 1_555
C37 C39 1_555 1_555
C38 C40 1_555 1_555
C41 C44 1_555 1_555
C46 C48 1_555 1_555
Pr1E O9E 1_555 1_555

#END
