
#######################################################################
#
#                 Cambridge Crystallographic Data Centre
#                                CCDC 
#
#######################################################################
#
# If this CIF has been generated from an entry in the Cambridge 
# Structural Database, then it will include bibliographic, chemical, 
# crystal, experimental, refinement or atomic coordinate data resulting 
# from the CCDC's data processing and validation procedures.
#
#######################################################################

data_YUSGID
_symmetry_cell_setting           triclinic
_symmetry_space_group_name_H-M   'P -1'
_symmetry_Int_Tables_number      2
_space_group_name_Hall           '-P 1'
loop_
_symmetry_equiv_pos_site_id
_symmetry_equiv_pos_as_xyz
1 x,y,z
2 -x,-y,-z
_cell_length_a                   9.4093(19)
_cell_length_b                   9.876(2)
_cell_length_c                   18.307(4)
_cell_angle_alpha                79.35(3)
_cell_angle_beta                 87.30(3)
_cell_angle_gamma                68.20(3)
_cell_volume                     1551.9
loop_
_atom_site_label
_atom_site_type_symbol
_atom_site_fract_x
_atom_site_fract_y
_atom_site_fract_z
Zn1 Zn 1.19076(4) 0.89969(4) 0.143353(19)
Zn2 Zn 0.90570(4) 0.90552(4) 0.031452(19)
S1 S 1.75953(10) 0.82446(9) -0.18820(5)
C1 C 1.0641(4) 0.8401(5) 0.2886(2)
H1 H 1.0638 0.9324 0.2932
C2 C 0.9961(5) 0.7679(5) 0.3428(2)
H2 H 0.9528 0.8114 0.3835
C3 C 0.9924(4) 0.6334(5) 0.3370(2)
C4 C 1.0650(4) 0.5703(5) 0.2793(2)
H3 H 1.0683 0.4769 0.2748
C5 C 1.1335(4) 0.6437(4) 0.2275(2)
H4 H 1.1848 0.5974 0.1889
C6 C 0.9138(5) 0.5523(6) 0.3913(2)
H5 H 0.9214 0.4590 0.3842
C7 C 0.8381(5) 0.6013(6) 0.4459(3)
H6 H 0.8345 0.6938 0.4522
C8 C 0.7539(5) 0.5314(6) 0.5016(3)
C9 C 0.6905(5) 0.6057(7) 0.5585(3)
H7 H 0.7031 0.6941 0.5603
C10 C 0.6095(5) 0.5537(7) 0.6125(3)
H8 H 0.5666 0.6086 0.6495
C11 C 0.5896(5) 0.4251(7) 0.6138(3)
C12 C 0.6519(5) 0.3493(7) 0.5564(3)
H9 H 0.6396 0.2606 0.5551
C13 C 0.7331(5) 0.4040(6) 0.5004(3)
H10 H 0.7732 0.3520 0.4620
C14 C 0.4985(5) 0.3940(6) 0.6775(3)
H11 H 0.4637 0.4658 0.7074
C15 C 0.4624(5) 0.2847(6) 0.6963(3)
H12 H 0.5004 0.2095 0.6685
C16 C 0.3644(5) 0.2628(6) 0.7591(3)
C17 C 0.2904(4) 0.3552(6) 0.8108(2)
H13 H 0.2980 0.4474 0.8073
C18 C 0.2062(4) 0.3068(5) 0.8670(2)
H14 H 0.1585 0.3683 0.9009
C19 C 0.2603(4) 0.0911(5) 0.8242(2)
H15 H 0.2507 -0.0004 0.8281
C20 C 0.3454(5) 0.1328(6) 0.7669(2)
H16 H 0.3902 0.0697 0.7333
C21 C 1.5270(3) 0.7402(3) -0.00633(17)
C22 C 1.6087(3) 0.5896(3) 0.02016(18)
H17 H 1.5744 0.5398 0.0610
C23 C 1.7419(3) 0.5145(3) -0.01510(17)
C24 C 1.7915(3) 0.5893(3) -0.07602(18)
H18 H 1.8811 0.5399 -0.0991
C25 C 1.7079(3) 0.7383(3) -0.10286(18)
C26 C 1.5767(3) 0.8136(3) -0.06795(17)
H19 H 1.5217 0.9135 -0.0858
C27 C 1.3866(3) 0.8249(3) 0.03141(18)
C28 C 1.8352(3) 0.3527(3) 0.01323(18)
O1 O 1.3144(2) 0.9579(2) 0.00142(12)
O2 O 1.3505(2) 0.7616(2) 0.09143(12)
O3 O 1.9530(3) 0.2989(2) -0.02500(14)
O4 O 1.7933(3) 0.2842(2) 0.06806(12)
O5 O 1.7124(3) 0.9832(2) -0.18301(13)
O6 O 1.6686(4) 0.8073(3) -0.24455(15)
O7 O 1.9224(3) 0.7538(3) -0.19452(18)
O8 O 1.0186(2) 1.0125(2) 0.07418(11)
H20 H 0.985(5) 1.0963(8) 0.0809(13)
N1 N 1.1294(3) 0.7815(3) 0.23048(14)
N2 N 0.1911(3) 0.1762(3) 0.87424(15)
Zn1A Zn 1.80924(4) 1.10031(4) -0.143353(19)
Zn2A Zn 1.09430(4) 1.09448(4) -0.031452(19)
Zn2A_2 Zn 2.09430(4) 0.09448(4) -0.031452(19)
Zn2A_3 Zn 0.09430(4) 0.09448(4) 0.968548(19)
O1A O 0.6856(2) 1.0421(2) -0.00142(12)
O3A O 1.0470(3) 0.7011(2) 0.02500(14)
O5A O 1.2876(3) 1.0168(2) 0.18301(13)
O8A O 0.9814(2) 0.9875(2) -0.07418(11)
H20A H 1.015(5) 0.9037(8) -0.0809(13)
N2A N 0.8089(3) 0.8238(3) 0.12576(15)
O9 O 0.4004(4) 0.6946(4) 0.7996(2)
H21 H 0.4798(9) 0.7077(18) 0.796(3)
H22 H 0.3489(13) 0.6799(19) 0.7704(9)
O10 O 0.1507(6) 0.7608(8) 0.6987(4)
H23 H 0.2157(11) 0.7904(19) 0.680(2)
H24 H 0.0836(12) 0.763(3) 0.6720(11)
loop_
_geom_bond_atom_site_label_1
_geom_bond_atom_site_label_2
_geom_bond_site_symmetry_1
_geom_bond_site_symmetry_2
Zn1 O2 1_555 1_555
Zn2 O8 1_555 1_555
S1 C25 1_555 1_555
C1 H1 1_555 1_555
C2 C1 1_555 1_555
H2 C2 1_555 1_555
C3 C2 1_555 1_555
C4 C3 1_555 1_555
H3 C4 1_555 1_555
C5 C4 1_555 1_555
H4 C5 1_555 1_555
C6 C3 1_555 1_555
H5 C6 1_555 1_555
C7 C6 1_555 1_555
H6 C7 1_555 1_555
C8 C7 1_555 1_555
C9 C8 1_555 1_555
H7 C9 1_555 1_555
C10 C9 1_555 1_555
H8 C10 1_555 1_555
C11 C10 1_555 1_555
C12 C11 1_555 1_555
H9 C12 1_555 1_555
C13 C8 1_555 1_555
H10 C13 1_555 1_555
C14 C11 1_555 1_555
H11 C14 1_555 1_555
C15 C14 1_555 1_555
H12 C15 1_555 1_555
C16 C15 1_555 1_555
C17 C16 1_555 1_555
H13 C17 1_555 1_555
C18 C17 1_555 1_555
H14 C18 1_555 1_555
C19 H15 1_555 1_555
C20 C16 1_555 1_555
H16 C20 1_555 1_555
C21 C22 1_555 1_555
C22 H17 1_555 1_555
C23 C22 1_555 1_555
C24 C23 1_555 1_555
H18 C24 1_555 1_555
C25 C24 1_555 1_555
C26 C21 1_555 1_555
H19 C26 1_555 1_555
C27 C21 1_555 1_555
C28 C23 1_555 1_555
O1 C27 1_555 1_555
O2 C27 1_555 1_555
O3 C28 1_555 1_555
O4 C28 1_555 1_555
O5 S1 1_555 1_555
O6 S1 1_555 1_555
O7 S1 1_555 1_555
O8 Zn1 1_555 1_555
H20 O8 1_555 1_555
N1 Zn1 1_555 1_555
N2 C18 1_555 1_555
O9 H21 1_555 1_555
O10 H23 1_555 1_555
H22 O9 1_555 1_555
H24 O10 1_555 1_555
Zn1A O5 1_555 1_555
Zn2A O1 1_555 1_555
Zn2A_2 O3 1_555 1_555
Zn2A_3 N2 1_555 1_555
O1A Zn2 1_555 1_555
O3A Zn2 1_555 1_555
O5A Zn1 1_555 1_555
O8A Zn2 1_555 1_555
H20A O8A 1_555 1_555
N2A Zn2 1_555 1_555
C1 N1 1_555 1_555
C5 N1 1_555 1_555
C12 C13 1_555 1_555
C19 C20 1_555 1_555
C19 N2 1_555 1_555
C25 C26 1_555 1_555
O8 Zn2A 1_555 1_555
Zn2A O8A 1_555 1_555

#END
