
#######################################################################
#
#                 Cambridge Crystallographic Data Centre
#                                CCDC 
#
#######################################################################
#
# If this CIF has been generated from an entry in the Cambridge 
# Structural Database, then it will include bibliographic, chemical, 
# crystal, experimental, refinement or atomic coordinate data resulting 
# from the CCDC's data processing and validation procedures.
#
#######################################################################

data_YUSHUQ
_symmetry_cell_setting           triclinic
_symmetry_space_group_name_H-M   'P -1'
_symmetry_Int_Tables_number      2
_space_group_name_Hall           '-P 1'
loop_
_symmetry_equiv_pos_site_id
_symmetry_equiv_pos_as_xyz
1 x,y,z
2 -x,-y,-z
_cell_length_a                   7.73846
_cell_length_b                   10.07887
_cell_length_c                   11.35324
_cell_angle_alpha                107.04652
_cell_angle_beta                 96.52997
_cell_angle_gamma                96.93579
_cell_volume                     829.959
loop_
_atom_site_label
_atom_site_type_symbol
_atom_site_fract_x
_atom_site_fract_y
_atom_site_fract_z
Zn1 Zn 1.166300 0.867390 0.550900
N1 N 1.210700 0.837350 0.362520
C1 C 1.092050 0.747150 0.267130
C2 C 1.070800 0.750100 0.142410
C3 C 1.178720 0.852540 0.114850
C4 C 1.171180 0.851960 -0.017400
C5 C 1.302810 0.947190 0.212720
C6 C 1.313410 0.935090 0.334270
C7 C 1.234110 0.975250 -0.041010
C8 C 1.212600 0.982330 -0.163950
N2 N 1.132830 0.872230 -0.259220
C9 C 1.070830 0.752190 -0.242480
C10 C 1.087860 0.738790 -0.120760
H1 H 1.008050 0.667060 0.291500
H2 H 0.970980 0.670980 0.069220
H3 H 1.391150 1.031920 0.197980
H4 H 1.410760 1.008940 0.413630
H5 H 1.298040 1.064070 0.033540
H6 H 1.260250 1.076450 -0.181770
H7 H 1.007400 0.665370 -0.324820
H8 H 1.038140 0.642610 -0.107890
O1 O 0.892900 0.874030 0.517970
C11 C 0.765030 0.839940 0.431470
O2 O 0.709270 0.932280 0.389380
C12 C 0.682060 0.687820 0.374020
C13 C 0.562060 0.650000 0.268190
C14 C 0.725420 0.584140 0.426890
C15 C 0.647980 0.441860 0.372360
C16 C 0.693470 0.331420 0.429100
C17 C 0.529150 0.402040 0.265900
O3 O 0.846570 0.346800 0.493710
O4 O 0.581680 0.218700 0.409650
C18 C 0.486630 0.507230 0.215170
N3 N 0.362510 0.467850 0.105790
O5 O 0.308160 0.345740 0.052060
O6 O 0.313090 0.556180 0.064790
H9 H 0.525810 0.730580 0.225450
H10 H 0.818850 0.613040 0.510830
H11 H 0.469990 0.289350 0.220810
Zn1_2 Zn 1.166300 0.867390 -0.449100
Zn1A Zn 0.833700 1.132610 0.449100
Zn1A_2 Zn 0.833700 0.132610 0.449100
N2_2 N 1.132830 0.872230 0.740780
O2A O 1.290730 1.067720 0.610620
O3A O 1.153430 0.653200 0.506290
O4A O 1.418320 0.781300 0.590350
loop_
_geom_bond_atom_site_label_1
_geom_bond_atom_site_label_2
_geom_bond_site_symmetry_1
_geom_bond_site_symmetry_2
Zn1 N1 1_555 1_555
N1 C1 1_555 1_555
C1 C2 1_555 1_555
C2 C3 1_555 1_555
C3 C4 1_555 1_555
C4 C7 1_555 1_555
C5 C3 1_555 1_555
C6 N1 1_555 1_555
C7 C8 1_555 1_555
C8 N2 1_555 1_555
N2 C9 1_555 1_555
C9 C10 1_555 1_555
C10 C4 1_555 1_555
H1 C1 1_555 1_555
H2 C2 1_555 1_555
H3 C5 1_555 1_555
H4 C6 1_555 1_555
H5 C7 1_555 1_555
H6 C8 1_555 1_555
H7 C9 1_555 1_555
H8 C10 1_555 1_555
O1 Zn1 1_555 1_555
C11 O1 1_555 1_555
O2 C11 1_555 1_555
C12 C11 1_555 1_555
C13 C12 1_555 1_555
C14 C12 1_555 1_555
C15 C14 1_555 1_555
C16 C15 1_555 1_555
C17 C15 1_555 1_555
O3 C16 1_555 1_555
O4 C16 1_555 1_555
C18 C13 1_555 1_555
N3 C18 1_555 1_555
O5 N3 1_555 1_555
O6 N3 1_555 1_555
H9 C13 1_555 1_555
H10 C14 1_555 1_555
H11 C17 1_555 1_555
Zn1_2 N2 1_555 1_555
Zn1A O2 1_555 1_555
Zn1A_2 O3 1_555 1_555
N2_2 Zn1 1_555 1_555
O2A Zn1 1_555 1_555
O3A Zn1 1_555 1_555
O4A Zn1 1_555 1_555
C5 C6 1_555 1_555
C17 C18 1_555 1_555
O4 Zn1A_2 1_555 1_555

#END
