
#######################################################################
#
#                 Cambridge Crystallographic Data Centre
#                                CCDC 
#
#######################################################################
#
# If this CIF has been generated from an entry in the Cambridge 
# Structural Database, then it will include bibliographic, chemical, 
# crystal, experimental, refinement or atomic coordinate data resulting 
# from the CCDC's data processing and validation procedures.
#
#######################################################################

data_YUSJIG
_symmetry_cell_setting           triclinic
_symmetry_space_group_name_H-M   'P -1'
_symmetry_Int_Tables_number      2
_space_group_name_Hall           '-P 1'
loop_
_symmetry_equiv_pos_site_id
_symmetry_equiv_pos_as_xyz
1 x,y,z
2 -x,-y,-z
_cell_length_a                   10.0729(3)
_cell_length_b                   10.2016(4)
_cell_length_c                   10.5259(5)
_cell_angle_alpha                66.53(2)
_cell_angle_beta                 75.03(2)
_cell_angle_gamma                77.06(2)
_cell_volume                     949.495
loop_
_atom_site_label
_atom_site_type_symbol
_atom_site_fract_x
_atom_site_fract_y
_atom_site_fract_z
Zn1 Zn 0.11120(3) 0.06657(4) 0.09229(3)
O1 O -0.0907(2) 0.1325(3) 0.1717(2)
O2 O -0.1602(2) 0.0609(3) 0.0296(2)
C1 C -0.1838(3) 0.1043(3) 0.1294(3)
C2 C -0.3310(3) 0.1272(3) 0.2037(3)
C3 C -0.4395(3) 0.1076(4) 0.1568(3)
H1 H -0.4212 0.0770 0.0799
C4 C -0.5767(3) 0.1339(4) 0.2250(3)
C5 C -0.6030(4) 0.1738(4) 0.3414(4)
H2 H -0.6948 0.1891 0.3882
C6 C -0.4938(4) 0.1914(5) 0.3892(4)
C7 C -0.3580(3) 0.1685(4) 0.3203(4)
H3 H -0.2843 0.1807 0.3524
O3 O -0.5316(3) 0.2271(4) 0.5062(3)
C8 C -0.4258(5) 0.2544(7) 0.5554(5)
H4 H -0.3586 0.1683 0.5807
H5 H -0.4665 0.2809 0.6375
H6 H -0.3799 0.3327 0.4816
C9 C -0.6965(3) 0.1173(4) 0.1748(3)
O4 O -0.6724(2) 0.0525(3) 0.0904(3)
O5 O -0.8168(2) 0.1666(3) 0.2172(3)
N1 N 0.0961(3) -0.1289(3) 0.2764(3)
C10 C 0.0282(4) -0.1215(4) 0.4005(4)
H7 H -0.0226 -0.0329 0.4028
C11 C 0.0289(4) -0.2386(4) 0.5265(3)
H8 H -0.0189 -0.2275 0.6118
C12 C 0.0999(3) -0.3717(4) 0.5269(3)
C13 C 0.1668(4) -0.3790(4) 0.3954(4)
H9 H 0.2150 -0.4670 0.3889
C14 C 0.1621(4) -0.2572(4) 0.2751(3)
H10 H 0.2076 -0.2651 0.1880
C15 C 0.1065(3) -0.4987(4) 0.6592(3)
C16 C 0.0187(4) -0.5000(4) 0.7858(4)
H11 H -0.0447 -0.4182 0.7903
C17 C 0.0262(4) -0.6237(4) 0.9047(4)
H12 H -0.0346 -0.6235 0.9891
N2 N 0.1139(3) -0.7425(3) 0.9071(3)
C18 C 0.1994(4) -0.7405(4) 0.7863(4)
H13 H 0.2634 -0.8231 0.7860
C19 C 0.1984(4) -0.6236(4) 0.6626(4)
H14 H 0.2600 -0.6279 0.5799
Zn1A Zn -0.11120(3) -0.06657(4) -0.09229(3)
Zn1_2 Zn -0.88880(3) 0.06657(4) 0.09229(3)
Zn1_3 Zn 0.11120(3) -0.93343(4) 1.09229(3)
O2A O 0.1602(2) -0.0609(3) -0.0296(2)
O4_2 O 0.3276(2) 0.0525(3) 0.0904(3)
O5_2 O 0.1832(2) 0.1666(3) 0.2172(3)
N2_2 N 0.1139(3) 0.2575(3) -0.0929(3)
loop_
_geom_bond_atom_site_label_1
_geom_bond_atom_site_label_2
_geom_bond_site_symmetry_1
_geom_bond_site_symmetry_2
Zn1 O1 1_555 1_555
O1 C1 1_555 1_555
O2 C1 1_555 1_555
C1 C2 1_555 1_555
C2 C3 1_555 1_555
C3 H1 1_555 1_555
C4 C3 1_555 1_555
C5 C4 1_555 1_555
H2 C5 1_555 1_555
C6 C5 1_555 1_555
C7 C2 1_555 1_555
H3 C7 1_555 1_555
O3 C6 1_555 1_555
C8 O3 1_555 1_555
H4 C8 1_555 1_555
H5 C8 1_555 1_555
H6 C8 1_555 1_555
C9 C4 1_555 1_555
O4 C9 1_555 1_555
O5 C9 1_555 1_555
N1 Zn1 1_555 1_555
C10 N1 1_555 1_555
H7 C10 1_555 1_555
C11 C10 1_555 1_555
H8 C11 1_555 1_555
C12 C11 1_555 1_555
C13 C12 1_555 1_555
H9 C13 1_555 1_555
C14 N1 1_555 1_555
H10 C14 1_555 1_555
C15 C12 1_555 1_555
C16 C15 1_555 1_555
H11 C16 1_555 1_555
C17 C16 1_555 1_555
H12 C17 1_555 1_555
N2 C17 1_555 1_555
C18 N2 1_555 1_555
H13 C18 1_555 1_555
C19 C15 1_555 1_555
H14 C19 1_555 1_555
Zn1A O2 1_555 1_555
Zn1_2 O4 1_555 1_555
Zn1_3 N2 1_555 1_555
O2A Zn1 1_555 1_555
O4_2 Zn1 1_555 1_555
O5_2 Zn1 1_555 1_555
N2_2 Zn1 1_555 1_555
C6 C7 1_555 1_555
O5 Zn1_2 1_555 1_555
C13 C14 1_555 1_555
C18 C19 1_555 1_555

#END
