
#######################################################################
#
#                 Cambridge Crystallographic Data Centre
#                                CCDC 
#
#######################################################################
#
# If this CIF has been generated from an entry in the Cambridge 
# Structural Database, then it will include bibliographic, chemical, 
# crystal, experimental, refinement or atomic coordinate data resulting 
# from the CCDC's data processing and validation procedures.
#
#######################################################################

data_YUSJEC
_symmetry_cell_setting           triclinic
_symmetry_space_group_name_H-M   'P -1'
_symmetry_Int_Tables_number      2
_space_group_name_Hall           '-P 1'
loop_
_symmetry_equiv_pos_site_id
_symmetry_equiv_pos_as_xyz
1 x,y,z
2 -x,-y,-z
_cell_length_a                   9.936(2)
_cell_length_b                   10.078(2)
_cell_length_c                   10.757(2)
_cell_angle_alpha                74.856(11)
_cell_angle_beta                 66.637(10)
_cell_angle_gamma                75.831(12)
_cell_volume                     942.305
loop_
_atom_site_label
_atom_site_type_symbol
_atom_site_fract_x
_atom_site_fract_y
_atom_site_fract_z
Zn1 Zn 0.06045(6) 0.11337(5) 0.59632(5)
O1 O 0.1715(5) 0.1803(4) 0.7154(4)
N1 N 0.2530(5) 0.1124(4) 0.4118(4)
O2 O 0.0536(5) 0.3275(4) 0.5900(4)
O3 O 0.1251(4) -0.0907(3) 0.6691(3)
N2 N -0.1377(5) 0.1029(4) 0.7810(4)
O4 O -0.0797(4) 0.1626(4) 0.4862(4)
C1 C 0.3776(6) 0.0199(6) 0.4033(5)
C2 C 0.2491(6) 0.2022(6) 0.2973(6)
C3 C 0.1126(5) -0.1845(5) 0.6188(5)
H1 H 0.3825 -0.0428 0.4826
C4 C 0.4979(6) 0.0133(6) 0.2840(5)
C5 C 0.3657(6) 0.2005(6) 0.1725(6)
H2 H 0.1646 0.2686 0.3015
C6 C 0.1428(6) -0.3319(5) 0.6891(5)
H3 H 0.5821 -0.0523 0.2835
C7 C 0.4938(5) 0.1053(5) 0.1629(5)
H4 H 0.3576 0.2639 0.0946
C8 C 0.1836(8) -0.3589(6) 0.8045(7)
C9 C 0.1228(6) -0.4419(5) 0.6447(5)
C10 C 0.6201(6) 0.1016(5) 0.0298(5)
C11 C 0.2065(9) -0.4950(6) 0.8731(7)
H5 H 0.1953 -0.2860 0.8354
C12 C 0.1480(6) -0.5789(5) 0.7145(6)
H6 H 0.0930 -0.4244 0.5694
C13 C 0.7605(6) 0.0277(6) 0.0242(5)
C14 C 0.6067(6) 0.1746(6) -0.0954(5)
C15 C 0.1877(9) -0.6038(6) 0.8296(8)
O5 O 0.2411(7) -0.5317(7) 0.9899(7)
C16 C 0.1239(6) -0.6979(5) 0.6700(5)
H7 H 0.7758 -0.0228 0.1045
C17 C 0.8758(6) 0.0300(6) -0.1005(5)
C18 C 0.7294(6) 0.1741(6) -0.2141(5)
H8 H 0.5152 0.2233 -0.0984
H9 H 0.2016 -0.6943 0.8774
C19 C 0.2557(11) -0.4227(10) 1.0450(10)
H10 H 0.9677 -0.0217 -0.1023
H11 H 0.7189 0.2266 -0.2958
H12 H 0.3492 -0.3914 0.9905
H13 H 0.2513 -0.4576 1.1383
H14 H 0.1764 -0.3464 1.0431
O4A O 0.0797(4) -0.1626(4) 0.5138(4)
Zn1A Zn -0.06045(6) -0.11337(5) 0.40368(5)
O1_2 O 0.1715(5) -0.8197(4) 0.7154(4)
O2_2 O 0.0536(5) -0.6725(4) 0.5900(4)
N2_2 N 0.8623(5) 0.1029(4) -0.2190(4)
Zn1_2 Zn 0.06045(6) -0.88663(5) 0.59632(5)
Zn1_3 Zn 1.06045(6) 0.11337(5) -0.40368(5)
loop_
_geom_bond_atom_site_label_1
_geom_bond_atom_site_label_2
_geom_bond_site_symmetry_1
_geom_bond_site_symmetry_2
Zn1 O1 1_555 1_555
N1 Zn1 1_555 1_555
O2 Zn1 1_555 1_555
O3 Zn1 1_555 1_555
N2 Zn1 1_555 1_555
O4 Zn1 1_555 1_555
C1 N1 1_555 1_555
C2 N1 1_555 1_555
C3 O3 1_555 1_555
H1 C1 1_555 1_555
C4 C1 1_555 1_555
C5 C2 1_555 1_555
H2 C2 1_555 1_555
C6 C3 1_555 1_555
H3 C4 1_555 1_555
C7 C4 1_555 1_555
H4 C5 1_555 1_555
C8 C6 1_555 1_555
C9 C6 1_555 1_555
C10 C7 1_555 1_555
C11 C8 1_555 1_555
H5 C8 1_555 1_555
C12 C9 1_555 1_555
H6 C9 1_555 1_555
C13 C10 1_555 1_555
C14 C10 1_555 1_555
C15 C11 1_555 1_555
O5 C11 1_555 1_555
C16 C12 1_555 1_555
H7 C13 1_555 1_555
C17 C13 1_555 1_555
C18 C14 1_555 1_555
H8 C14 1_555 1_555
H9 C15 1_555 1_555
C19 O5 1_555 1_555
H10 C17 1_555 1_555
H11 C18 1_555 1_555
H12 C19 1_555 1_555
H13 C19 1_555 1_555
H14 C19 1_555 1_555
O4A C3 1_555 1_555
Zn1A O4A 1_555 1_555
O1_2 C16 1_555 1_555
O2_2 C16 1_555 1_555
N2_2 C17 1_555 1_555
Zn1_2 O1_2 1_555 1_555
Zn1_3 N2_2 1_555 1_555
C5 C7 1_555 1_555
C12 C15 1_555 1_555
C18 N2_2 1_555 1_555
O2_2 Zn1_2 1_555 1_555

#END
