
#######################################################################
#
#                 Cambridge Crystallographic Data Centre
#                                CCDC 
#
#######################################################################
#
# If this CIF has been generated from an entry in the Cambridge 
# Structural Database, then it will include bibliographic, chemical, 
# crystal, experimental, refinement or atomic coordinate data resulting 
# from the CCDC's data processing and validation procedures.
#
#######################################################################

data_ZASJAG
_symmetry_cell_setting           monoclinic
_symmetry_space_group_name_H-M   'C c'
_symmetry_Int_Tables_number      9
_space_group_name_Hall           'C -2yc'
loop_
_symmetry_equiv_pos_site_id
_symmetry_equiv_pos_as_xyz
1 x,y,z
2 x,-y,1/2+z
3 1/2+x,1/2+y,z
4 1/2+x,1/2-y,1/2+z
_cell_length_a                   25.107(5)
_cell_length_b                   15.411(5)
_cell_length_c                   7.544(5)
_cell_angle_alpha                90
_cell_angle_beta                 106.999(5)
_cell_angle_gamma                90
_cell_volume                     2791.42
loop_
_atom_site_label
_atom_site_type_symbol
_atom_site_fract_x
_atom_site_fract_y
_atom_site_fract_z
Cd1 Cd 0.89314(6) 0.02576(3) 0.24843(8)
O1 O 0.8733(4) -0.1125(4) 0.1943(9)
O2 O 0.8269(4) -0.0584(5) -0.0827(11)
O3 O 0.4494(3) -0.4899(5) -0.9578(11)
O4 O 0.4666(4) -0.6207(6) -1.0533(12)
N1 N 0.7146(4) -0.4761(5) -0.3269(11)
N2 N 0.8544(4) -0.8580(6) 0.0884(10)
C1 C 0.8418(5) -0.1212(7) 0.0357(16)
C2 C 0.8227(5) -0.2118(6) -0.0281(16)
C3 C 0.8545(6) -0.2815(8) 0.0478(17)
H1 H 0.8882 -0.2729 0.1386
C4 C 0.8369(5) -0.3670(6) -0.0095(14)
H2 H 0.8596 -0.4139 0.0413
C5 C 0.7860(5) -0.3809(7) -0.1410(14)
C6 C 0.7706(5) -0.2255(6) -0.1627(15)
H3 H 0.7482 -0.1785 -0.2141
C7 C 0.7536(5) -0.3083(7) -0.2168(15)
H4 H 0.7195 -0.3167 -0.3063
C8 C 0.7653(5) -0.4705(6) -0.1994(12)
C9 C 0.7942(5) -0.5445(7) -0.1202(14)
H5 H 0.8286 -0.5392 -0.0310
C10 C 0.7721(4) -0.6257(6) -0.1729(12)
C11 C 0.8008(4) -0.7058(6) -0.0863(13)
C12 C 0.8539(5) -0.7036(7) 0.0360(18)
H6 H 0.8730 -0.6513 0.0624
C13 C 0.8789(5) -0.7808(6) 0.1206(15)
H7 H 0.9146 -0.7776 0.2033
C14 C 0.8039(6) -0.8594(8) -0.032(2)
H8 H 0.7857 -0.9125 -0.0585
C15 C 0.7771(5) -0.7873(6) -0.1198(16)
H9 H 0.7419 -0.7932 -0.2042
C16 C 0.7205(4) -0.6296(6) -0.3028(12)
H10 H 0.7038 -0.6833 -0.3378
C17 C 0.6934(5) -0.5551(7) -0.3816(13)
C18 C 0.6386(4) -0.5563(7) -0.5266(13)
C19 C 0.6175(6) -0.6356(7) -0.6085(17)
H11 H 0.6378 -0.6867 -0.5771
C20 C 0.5638(6) -0.6352(7) -0.7418(16)
H12 H 0.5483 -0.6872 -0.7955
C21 C 0.5341(5) -0.5581(7) -0.7928(14)
C22 C 0.5575(5) -0.4815(6) -0.7151(14)
H13 H 0.5383 -0.4296 -0.7498
C23 C 0.6107(5) -0.4809(6) -0.5824(16)
H14 H 0.6266 -0.4284 -0.5330
C24 C 0.4797(5) -0.5576(8) -0.9435(17)
Cd1A Cd 0.89314(6) -0.02576(3) -0.25157(8)
Cd1B Cd 0.39314(6) -0.47424(3) -0.75157(8)
Cd1C Cd 0.39314(6) -0.52576(3) -1.25157(8)
Cd1_2 Cd 0.89314(6) -0.97424(3) 0.24843(8)
O2A O 0.8269(4) 0.0584(5) 0.4173(11)
O3B O 0.9494(3) 0.0101(5) 0.0422(11)
O3C O 0.9494(3) -0.0101(5) 0.5422(11)
O4C O 0.9666(4) 0.1207(6) 0.4467(12)
N2_2 N 0.8544(4) 0.1420(6) 0.0884(10)
O5 O 0.954(3) -0.518(3) 0.132(8)
O6 O 1.1427(17) -0.657(3) 0.100(5)
O7 O 1.093(3) -0.728(4) 0.297(9)
O8 O 1.203(3) -0.497(3) 0.083(7)
O9 O 1.012(2) -0.712(3) 0.046(7)
O10 O 0.991(4) -0.662(6) 0.529(12)
loop_
_geom_bond_atom_site_label_1
_geom_bond_atom_site_label_2
_geom_bond_site_symmetry_1
_geom_bond_site_symmetry_2
Cd1 O1 1_555 1_555
O1 C1 1_555 1_555
O2 C1 1_555 1_555
O3 C24 1_555 1_555
O4 C24 1_555 1_555
N1 C8 1_555 1_555
N2 C13 1_555 1_555
C1 C2 1_555 1_555
C2 C3 1_555 1_555
C3 H1 1_555 1_555
C4 C3 1_555 1_555
H2 C4 1_555 1_555
C5 C4 1_555 1_555
C6 C2 1_555 1_555
H3 C6 1_555 1_555
C7 C5 1_555 1_555
H4 C7 1_555 1_555
C8 C5 1_555 1_555
C9 C8 1_555 1_555
H5 C9 1_555 1_555
C10 C9 1_555 1_555
C11 C10 1_555 1_555
C12 C11 1_555 1_555
H6 C12 1_555 1_555
C13 C12 1_555 1_555
H7 C13 1_555 1_555
C14 N2 1_555 1_555
H8 C14 1_555 1_555
C15 C11 1_555 1_555
H9 C15 1_555 1_555
C16 C10 1_555 1_555
H10 C16 1_555 1_555
C17 N1 1_555 1_555
C18 C17 1_555 1_555
C19 C18 1_555 1_555
H11 C19 1_555 1_555
C20 C19 1_555 1_555
H12 C20 1_555 1_555
C21 C20 1_555 1_555
C22 C21 1_555 1_555
H13 C22 1_555 1_555
C23 C18 1_555 1_555
H14 C23 1_555 1_555
C24 C21 1_555 1_555
Cd1A O2 1_555 1_555
Cd1B O3 1_555 1_555
Cd1C O3 1_555 1_555
Cd1_2 N2 1_555 1_555
O2A Cd1 1_555 1_555
O3B Cd1 1_555 1_555
O3C Cd1 1_555 1_555
O4C Cd1 1_555 1_555
N2_2 Cd1 1_555 1_555
O4 Cd1C 1_555 1_555
C6 C7 1_555 1_555
C14 C15 1_555 1_555
C16 C17 1_555 1_555
C22 C23 1_555 1_555
Cd1A O3B 1_555 1_555

#END
