
#######################################################################
#
#                 Cambridge Crystallographic Data Centre
#                                CCDC 
#
#######################################################################
#
# If this CIF has been generated from an entry in the Cambridge 
# Structural Database, then it will include bibliographic, chemical, 
# crystal, experimental, refinement or atomic coordinate data resulting 
# from the CCDC's data processing and validation procedures.
#
#######################################################################

data_ZAXSUO
_symmetry_cell_setting           triclinic
_symmetry_space_group_name_H-M   'P -1'
_symmetry_Int_Tables_number      2
_space_group_name_Hall           '-P 1'
loop_
_symmetry_equiv_pos_site_id
_symmetry_equiv_pos_as_xyz
1 x,y,z
2 -x,-y,-z
_cell_length_a                   11.6915(4)
_cell_length_b                   14.5628(7)
_cell_length_c                   17.3643(8)
_cell_angle_alpha                104.113(4)
_cell_angle_beta                 104.147(4)
_cell_angle_gamma                95.717(4)
_cell_volume                     2740.13
loop_
_atom_site_label
_atom_site_type_symbol
_atom_site_fract_x
_atom_site_fract_y
_atom_site_fract_z
Cl1 Cl 0.9378(3) 0.24660(18) 0.61747(16)
Cl2 Cl 0.8689(3) 0.4223(2) 0.58872(17)
Cl3 Cl 0.7677(2) 0.3343(2) 0.69527(16)
C20 C 0.8958(8) 0.3560(7) 0.6607(6)
H10 H 0.9618 0.3932 0.7084
Cl4 Cl 0.3933(3) 0.2005(2) 0.36281(18)
Cl5 Cl 0.5592(4) 0.3535(4) 0.4937(3)
Cl6 Cl 0.3778(9) 0.2362(3) 0.5288(3)
C41 C 0.4172(13) 0.2828(10) 0.4566(8)
H25 H 0.3619 0.3276 0.4464
C1 C 0.0806(7) 0.9585(6) 0.3137(5)
C2 C 0.5779(8) 0.7715(6) 0.2574(5)
C3 C -0.1166(8) 1.3202(6) 0.3720(5)
H1 H -0.0577 1.3684 0.3725
C6 C -0.0418(8) 0.9802(6) 0.3105(5)
C10 C 0.0402(8) 0.0947(7) 0.0153(6)
C11 C 0.5036(7) 0.6842(6) 0.2251(5)
H5 H 0.4270 0.6797 0.1912
C12 C -0.1661(7) 1.1658(6) 0.3914(5)
C13 C 0.4434(8) 0.9421(6) 0.3481(5)
C14 C 0.3184(8) 0.9525(6) 0.3498(5)
C15 C 0.1547(8) 1.0081(6) 0.3913(5)
C16 C 0.2769(8) 1.0046(6) 0.4129(5)
H6 H 0.3270 1.0349 0.4656
C17 C 0.5421(8) 0.6031(6) 0.2428(5)
H7 H 0.4898 0.5448 0.2202
C18 C 0.4605(8) 0.3323(6) 0.2143(6)
H8 H 0.5114 0.3043 0.1854
C19 C -0.0817(8) 1.2377(6) 0.3893(6)
H9 H -0.0016 1.2307 0.3995
C22 C 0.2414(8) 0.9026(6) 0.2723(5)
C23 C 0.3131(9) 0.4135(7) 0.2975(6)
H12 H 0.2637 0.4429 0.3270
C24 C 0.0217(8) 0.0389(7) -0.0645(6)
H13 H 0.0356 0.0644 -0.1062
C25 C 0.4349(8) 0.4418(6) 0.3262(6)
H14 H 0.4671 0.4900 0.3755
C27 C 0.6917(8) 0.7740(7) 0.3062(6)
H15 H 0.7456 0.8315 0.3279
C28 C -0.2820(8) 1.1794(7) 0.3737(7)
H16 H -0.3421 1.1323 0.3735
C29 C 0.3411(8) 0.3008(7) 0.1825(6)
H17 H 0.3108 0.2527 0.1329
C32 C 0.5363(8) 0.8609(6) 0.2385(5)
H20 H 0.6014 0.9149 0.2642
H21 H 0.5156 0.8518 0.1793
C33 C 0.2647(8) 0.3422(6) 0.2258(6)
C35 C 0.7245(8) 0.6923(7) 0.3224(6)
H22 H 0.8008 0.6965 0.3566
C36 C 0.3149(8) 0.8571(6) 0.2204(5)
C37 C 0.1211(8) 0.9027(6) 0.2525(5)
H23 H 0.0699 0.8677 0.2014
C38 C 0.0826(8) 0.2010(7) 0.0521(6)
C39 C 0.0833(8) 1.0578(6) 0.4406(5)
C42 C 0.0189(7) 0.0576(7) 0.0781(5)
C43 C -0.1347(8) 1.0762(6) 0.4137(5)
H26 H -0.1176 1.0884 0.4732
H27 H -0.2041 1.0257 0.3886
C44 C 0.1300(9) 0.3141(8) 0.1941(7)
H28 H 0.0978 0.3157 0.2408
H29 H 0.0981 0.3615 0.1680
C45 C -0.3098(9) 1.2625(7) 0.3563(8)
H30 H -0.3898 1.2698 0.3448
C46 C 0.0527(8) 0.1372(7) 0.1570(6)
O1 O -0.1330(5) 0.9516(4) 0.2548(4)
O2 O 0.8677(6) 0.4802(5) 0.2595(5)
O3 O 0.5371(6) 0.9762(5) 0.4001(4)
O4 O 0.1055(6) 0.2607(5) 0.0174(4)
O5 O 0.2829(6) 0.8048(5) 0.1494(4)
O6 O 0.1103(6) 1.1048(4) 0.5131(4)
O8 O 0.8601(6) 0.5712(6) 0.4455(5)
O9 O 0.6839(6) 0.5358(5) 0.4617(4)
O10 O 0.8252(7) 0.6331(6) 0.5629(5)
O11 O 0.0460(6) 0.1339(5) 0.2238(4)
O13 O 0.8656(8) 0.4064(6) 0.1329(5)
O14 O 0.7060(6) 0.3967(6) 0.1754(4)
N1 N 0.7904(7) 0.5818(6) 0.4915(5)
N2 N 0.5085(6) 0.4014(5) 0.2848(5)
N3 N 0.6530(6) 0.6046(5) 0.2917(4)
N4 N -0.0330(6) 1.0412(5) 0.3885(4)
N6 N -0.2300(6) 1.3342(5) 0.3545(5)
N8 N 0.4330(6) 0.8831(5) 0.2682(4)
N9 N 0.0889(7) 0.2189(6) 0.1348(5)
N10 N 0.8104(8) 0.4272(6) 0.1877(6)
Cd2 Cd 0.71109(5) 0.46920(4) 0.32596(4)
C1_2 C 1.0806(7) -0.0415(6) 0.3137(5)
C2_2 C 1.5779(8) -0.2285(6) 0.2574(5)
C3_2 C 0.8834(8) 0.3202(6) 0.3720(5)
H1_2 H 0.9423 0.3684 0.3725
C6_2 C 0.9582(8) -0.0198(6) 0.3105(5)
C10A C -0.0402(8) -0.0947(7) -0.0153(6)
C11_2 C 1.5036(7) -0.3158(6) 0.2251(5)
H5_2 H 1.4270 -0.3203 0.1912
C12_2 C 0.8339(7) 0.1658(6) 0.3914(5)
C13_2 C 1.4434(8) -0.0579(6) 0.3481(5)
C14_2 C 1.3184(8) -0.0475(6) 0.3498(5)
C15_2 C 1.1547(8) 0.0081(6) 0.3913(5)
C16_2 C 1.2769(8) 0.0046(6) 0.4129(5)
H6_2 H 1.3270 0.0349 0.4656
C17_2 C 1.5421(8) -0.3969(6) 0.2428(5)
H7_2 H 1.4898 -0.4552 0.2202
C18A C -0.4605(8) -0.3323(6) -0.2143(6)
H8A H -0.5114 -0.3043 -0.1854
C19_2 C 0.9183(8) 0.2377(6) 0.3893(6)
H9_2 H 0.9984 0.2307 0.3995
C22_2 C 1.2414(8) -0.0974(6) 0.2723(5)
C23A C -0.3131(9) -0.4135(7) -0.2975(6)
H12A H -0.2637 -0.4429 -0.3270
C24A C -0.0217(8) -0.0389(7) 0.0645(6)
H13A H -0.0356 -0.0644 0.1062
C25A C -0.4349(8) -0.4418(6) -0.3262(6)
H14A H -0.4671 -0.4900 -0.3755
C27_2 C 1.6917(8) -0.2260(7) 0.3062(6)
H15_2 H 1.7456 -0.1685 0.3279
C28_2 C 0.7180(8) 0.1794(7) 0.3737(7)
H16_2 H 0.6579 0.1323 0.3735
C29A C -0.3411(8) -0.3008(7) -0.1825(6)
H17A H -0.3108 -0.2527 -0.1329
C32_2 C 1.5363(8) -0.1391(6) 0.2385(5)
H20_2 H 1.6014 -0.0851 0.2642
H21_2 H 1.5156 -0.1482 0.1793
C33A C -0.2647(8) -0.3422(6) -0.2258(6)
C35_2 C 1.7245(8) -0.3077(7) 0.3224(6)
H22_2 H 1.8008 -0.3035 0.3566
C36_2 C 1.3149(8) -0.1429(6) 0.2204(5)
C37_2 C 1.1211(8) -0.0973(6) 0.2525(5)
H23_2 H 1.0699 -0.1323 0.2014
C38A C -0.0826(8) -0.2010(7) -0.0521(6)
C39_2 C 1.0833(8) 0.0578(6) 0.4406(5)
C42A C -0.0189(7) -0.0576(7) -0.0781(5)
C43_2 C 0.8653(8) 0.0762(6) 0.4137(5)
H26_2 H 0.8824 0.0884 0.4732
H27_2 H 0.7959 0.0257 0.3886
C44A C -0.1300(9) -0.3141(8) -0.1941(7)
H28A H -0.0978 -0.3157 -0.2408
H29A H -0.0981 -0.3615 -0.1680
C45_2 C 0.6902(9) 0.2625(7) 0.3563(8)
H30_2 H 0.6102 0.2698 0.3448
C46A C -0.0527(8) -0.1372(7) -0.1570(6)
O1_2 O 0.8670(5) -0.0484(4) 0.2548(4)
O2_2 O 1.8677(6) -0.5198(5) 0.2595(5)
O3_2 O 1.5371(6) -0.0238(5) 0.4001(4)
O4A O -0.1055(6) -0.2607(5) -0.0174(4)
O5_2 O 1.2829(6) -0.1952(5) 0.1494(4)
O6_2 O 1.1103(6) 0.1048(4) 0.5131(4)
O8_2 O 1.8601(6) -0.4288(6) 0.4455(5)
O9_2 O 1.6839(6) -0.4642(5) 0.4617(4)
O10_2 O 1.8252(7) -0.3669(6) 0.5629(5)
O11A O -0.0460(6) -0.1339(5) -0.2238(4)
O13_2 O 1.8656(8) -0.5936(6) 0.1329(5)
O14_2 O 1.7060(6) -0.6033(6) 0.1754(4)
N1_2 N 1.7904(7) -0.4182(6) 0.4915(5)
N2A N -0.5085(6) -0.4014(5) -0.2848(5)
N2_2 N 1.5085(6) -0.5986(5) 0.2848(5)
N3_2 N 1.6530(6) -0.3954(5) 0.2917(4)
N4_2 N 0.9670(6) 0.0412(5) 0.3885(4)
N6_2 N 0.7700(6) 0.3342(5) 0.3545(5)
N6_3 N 1.7700(6) -0.6658(5) 0.3545(5)
N8_2 N 1.4330(6) -0.1169(5) 0.2682(4)
N9A N -0.0889(7) -0.2189(6) -0.1348(5)
N10_2 N 1.8104(8) -0.5728(6) 0.1877(6)
Cd2_2 Cd 1.71109(5) -0.53080(4) 0.32596(4)
Cd2_3 Cd -0.28891(5) 1.46920(4) 0.32596(4)
Cd2A Cd -0.71109(5) -0.46920(4) -0.32596(4)
C4 C 0.8804(7) -0.4998(6) -0.0149(5)
C5 C 0.7055(8) -0.2129(6) 0.0931(6)
H2 H 0.7820 -0.2071 0.1277
C7 C 0.8899(8) -0.3865(6) 0.1062(5)
C8 C 0.9606(8) -0.4398(6) 0.0559(5)
C9 C 0.6698(8) -0.3856(6) 0.0905(5)
H3 H 0.6029 -0.4385 0.0695
H4 H 0.6919 -0.3696 0.1504
C21 C 0.9178(8) -0.5638(6) -0.0743(5)
H11 H 0.8649 -0.6051 -0.1221
C26 C 0.7572(8) -0.4855(6) -0.0133(5)
C30 C 0.6680(8) -0.1343(6) 0.0708(6)
H18 H 0.7217 -0.0767 0.0896
C31 C 0.4874(9) -0.2248(7) -0.0059(6)
H19 H 0.4120 -0.2306 -0.0418
C34 C 0.6303(7) -0.3006(6) 0.0643(5)
C40 C 0.5187(9) -0.3055(6) 0.0134(6)
H24 H 0.4652 -0.3631 -0.0076
C47 C 0.7304(14) 0.1358(9) 0.1675(7)
H31 H 0.8127 0.1637 0.1782
H32 H 0.7252 0.0917 0.2000
H33 H 0.6852 0.1857 0.1819
O7 O 0.9243(6) -0.3262(5) 0.1741(4)
O12 O 0.6852(8) 0.0881(5) 0.0857(5)
H34 H 0.7420 0.0913 0.0567
O15 O 0.6636(5) -0.5232(5) -0.0635(4)
N5 N 0.7706(6) -0.4170(5) 0.0620(4)
N7 N 0.5565(6) -0.1365(5) 0.0226(5)
Cd1 Cd 0.5000 0.0000 0.0000
N11 N 0.3677(17) 0.0367(13) 0.1333(11)
O17 O 0.4723(11) 0.0311(11) 0.1422(8)
O18 O 0.3191(12) 0.0508(10) 0.1916(8)
O19 O 0.3053(12) 0.0207(10) 0.0634(8)
C4A C 1.1196(7) -0.5002(6) 0.0149(5)
C5A C 1.2945(8) -0.7871(6) -0.0931(6)
H2A H 1.2180 -0.7929 -0.1277
C7A C 1.1101(8) -0.6135(6) -0.1062(5)
C8A C 1.0394(8) -0.5602(6) -0.0559(5)
C9A C 1.3302(8) -0.6144(6) -0.0905(5)
H3A H 1.3971 -0.5615 -0.0695
H4A H 1.3081 -0.6304 -0.1504
C21A C 1.0822(8) -0.4362(6) 0.0743(5)
H11A H 1.1351 -0.3949 0.1221
C26A C 1.2428(8) -0.5145(6) 0.0133(5)
C30A C 1.3320(8) -0.8657(6) -0.0708(6)
H18A H 1.2783 -0.9233 -0.0896
C31A C 1.5126(9) -0.7752(7) 0.0059(6)
H19A H 1.5880 -0.7694 0.0418
C34A C 1.3697(7) -0.6994(6) -0.0643(5)
C40A C 1.4813(9) -0.6945(6) -0.0134(6)
H24A H 1.5348 -0.6369 0.0076
C47A C 0.2696(14) -0.1358(9) -0.1675(7)
H31A H 0.1873 -0.1637 -0.1782
H32A H 0.2748 -0.0917 -0.2000
H33A H 0.3148 -0.1857 -0.1819
O7A O 1.0757(6) -0.6738(5) -0.1741(4)
O12A O 0.3148(8) -0.0881(5) -0.0857(5)
H34A H 0.2580 -0.0913 -0.0567
O15A O 1.3364(5) -0.4768(5) 0.0635(4)
N5A N 1.2294(6) -0.5830(5) -0.0620(4)
N7A N 1.4435(6) -0.8635(5) -0.0226(5)
N7A_2 N 0.4435(6) 0.1365(5) -0.0226(5)
Cd1_2 Cd 1.5000 -1.0000 0.0000
N11A N 0.6323(17) -0.0367(13) -0.1333(11)
O17A O 0.5277(11) -0.0311(11) -0.1422(8)
O18A O 0.6809(12) -0.0508(10) -0.1916(8)
O19A O 0.6947(12) -0.0207(10) -0.0634(8)
O16 O 0.8161(9) 0.2087(7) 0.0230(6)
H35 H 0.8695 0.1651 0.0380
H36 H 0.8482 0.2740 0.0569
loop_
_geom_bond_atom_site_label_1
_geom_bond_atom_site_label_2
_geom_bond_site_symmetry_1
_geom_bond_site_symmetry_2
Cl1 C20 1_555 1_555
Cl2 C20 1_555 1_555
Cl3 C20 1_555 1_555
Cl4 C41 1_555 1_555
Cl5 C41 1_555 1_555
Cl6 C41 1_555 1_555
C1 C6 1_555 1_555
C2 C11 1_555 1_555
C3 H1 1_555 1_555
C4 C8 1_555 1_555
C5 H2 1_555 1_555
C6 O1 1_555 1_555
C7 C8 1_555 1_555
C8 C21A 1_555 1_555
C9 H3 1_555 1_555
H4 C9 1_555 1_555
C10 C24 1_555 1_555
C11 H5 1_555 1_555
C12 C19 1_555 1_555
C13 C14 1_555 1_555
C14 C16 1_555 1_555
C15 C1 1_555 1_555
C16 C15 1_555 1_555
H6 C16 1_555 1_555
C17 C11 1_555 1_555
H7 C17 1_555 1_555
C18 H8 1_555 1_555
C19 C3 1_555 1_555
H9 C19 1_555 1_555
C20 H10 1_555 1_555
C21 C4 1_555 1_555
H11 C21 1_555 1_555
C22 C14 1_555 1_555
C23 H12 1_555 1_555
C24 H13 1_555 1_555
C25 C23 1_555 1_555
H14 C25 1_555 1_555
C26 C4 1_555 1_555
C27 C2 1_555 1_555
H15 C27 1_555 1_555
C28 C12 1_555 1_555
H16 C28 1_555 1_555
C29 C18 1_555 1_555
H17 C29 1_555 1_555
C30 C5 1_555 1_555
H18 C30 1_555 1_555
C31 H19 1_555 1_555
C32 C2 1_555 1_555
H20 C32 1_555 1_555
H21 C32 1_555 1_555
C33 C23 1_555 1_555
C34 C5 1_555 1_555
C35 C27 1_555 1_555
H22 C35 1_555 1_555
C36 C22 1_555 1_555
C37 C1 1_555 1_555
H23 C37 1_555 1_555
C38 C10 1_555 1_555
C39 C15 1_555 1_555
C40 C31 1_555 1_555
H24 C40 1_555 1_555
C41 H25 1_555 1_555
C42 C10 1_555 1_555
C43 C12 1_555 1_555
H26 C43 1_555 1_555
H27 C43 1_555 1_555
C44 C33 1_555 1_555
H28 C44 1_555 1_555
H29 C44 1_555 1_555
C45 C28 1_555 1_555
H30 C45 1_555 1_555
C46 C42 1_555 1_555
C47 H31 1_555 1_555
H32 C47 1_555 1_555
H33 C47 1_555 1_555
O2 N10 1_555 1_555
O3 C13 1_555 1_555
O4 C38 1_555 1_555
O5 C36 1_555 1_555
O6 C39 1_555 1_555
O7 C7 1_555 1_555
O8 N1 1_555 1_555
O9 N1 1_555 1_555
O10 N1 1_555 1_555
O11 C46 1_555 1_555
O12 C47 1_555 1_555
H34 O12 1_555 1_555
O13 N10 1_555 1_555
O14 N10 1_555 1_555
O15 C26 1_555 1_555
O16 H35 1_555 1_555
H36 O16 1_555 1_555
N2 C18 1_555 1_555
N3 C17 1_555 1_555
N4 C6 1_555 1_555
N5 C7 1_555 1_555
N6 C3 1_555 1_555
N7 C30 1_555 1_555
N8 C13 1_555 1_555
N9 C38 1_555 1_555
Cd1 O12 1_555 1_555
Cd2 O2 1_555 1_555
N11 O17 1_555 1_555
O17 Cd1 1_555 1_555
O18 N11 1_555 1_555
O19 N11 1_555 1_555
C1_2 C6_2 1_555 1_555
C2_2 C11_2 1_555 1_555
C3_2 H1_2 1_555 1_555
C4A C8A 1_555 1_555
C5A H2A 1_555 1_555
C6_2 O1_2 1_555 1_555
C7A C8A 1_555 1_555
C8A C21 1_555 1_555
C9A H3A 1_555 1_555
H4A C9A 1_555 1_555
C10A C24A 1_555 1_555
C11_2 H5_2 1_555 1_555
C12_2 C19_2 1_555 1_555
C13_2 C14_2 1_555 1_555
C14_2 C16_2 1_555 1_555
C15_2 C1_2 1_555 1_555
C16_2 C15_2 1_555 1_555
H6_2 C16_2 1_555 1_555
C17_2 C11_2 1_555 1_555
H7_2 C17_2 1_555 1_555
C18A H8A 1_555 1_555
C19_2 C3_2 1_555 1_555
H9_2 C19_2 1_555 1_555
C21A C4A 1_555 1_555
H11A C21A 1_555 1_555
C22_2 C14_2 1_555 1_555
C23A H12A 1_555 1_555
C24A C42 1_555 1_555
H13A C24A 1_555 1_555
C25A C23A 1_555 1_555
H14A C25A 1_555 1_555
C26A C4A 1_555 1_555
C27_2 C2_2 1_555 1_555
H15_2 C27_2 1_555 1_555
C28_2 C12_2 1_555 1_555
H16_2 C28_2 1_555 1_555
C29A C18A 1_555 1_555
H17A C29A 1_555 1_555
C30A C5A 1_555 1_555
H18A C30A 1_555 1_555
C31A H19A 1_555 1_555
C32_2 C2_2 1_555 1_555
H20_2 C32_2 1_555 1_555
H21_2 C32_2 1_555 1_555
C33A C23A 1_555 1_555
C34A C5A 1_555 1_555
C35_2 C27_2 1_555 1_555
H22_2 C35_2 1_555 1_555
C36_2 C22_2 1_555 1_555
C37_2 C1_2 1_555 1_555
H23_2 C37_2 1_555 1_555
C38A C10A 1_555 1_555
C39_2 C15_2 1_555 1_555
C40A C31A 1_555 1_555
H24A C40A 1_555 1_555
C42A C24 1_555 1_555
C43_2 C12_2 1_555 1_555
H26_2 C43_2 1_555 1_555
H27_2 C43_2 1_555 1_555
C44A C33A 1_555 1_555
H28A C44A 1_555 1_555
H29A C44A 1_555 1_555
C45_2 C28_2 1_555 1_555
H30_2 C45_2 1_555 1_555
C46A C42A 1_555 1_555
C47A H31A 1_555 1_555
H32A C47A 1_555 1_555
H33A C47A 1_555 1_555
O2_2 N10_2 1_555 1_555
O3_2 C13_2 1_555 1_555
O4A C38A 1_555 1_555
O5_2 C36_2 1_555 1_555
O6_2 C39_2 1_555 1_555
O7A C7A 1_555 1_555
O8_2 N1_2 1_555 1_555
O9_2 N1_2 1_555 1_555
O10_2 N1_2 1_555 1_555
O11A C46A 1_555 1_555
O12A Cd1 1_555 1_555
H34A O12A 1_555 1_555
O13_2 N10_2 1_555 1_555
O14_2 N10_2 1_555 1_555
O15A C26A 1_555 1_555
N2A C18A 1_555 1_555
N2_2 Cd2_2 1_555 1_555
N3_2 C17_2 1_555 1_555
N4_2 C6_2 1_555 1_555
N5A C7A 1_555 1_555
N6_2 Cd2 1_555 1_555
N6_3 Cd2_2 1_555 1_555
N7A C30A 1_555 1_555
N7A_2 Cd1 1_555 1_555
N8_2 C13_2 1_555 1_555
N9A C38A 1_555 1_555
Cd1_2 N7A 1_555 1_555
Cd2_2 O2_2 1_555 1_555
Cd2_3 N6 1_555 1_555
Cd2A N2A 1_555 1_555
N11A O17A 1_555 1_555
O17A Cd1 1_555 1_555
O18A N11A 1_555 1_555
O19A N11A 1_555 1_555
C9 C34 1_555 1_555
C9 N5 1_555 1_555
C22 C37 1_555 1_555
C25 N2 1_555 1_555
C26 N5 1_555 1_555
C29 C33 1_555 1_555
C31 N7 1_555 1_555
C32 N8 1_555 1_555
C34 C40 1_555 1_555
C35 N3 1_555 1_555
C36 N8 1_555 1_555
C39 N4 1_555 1_555
C43 N4 1_555 1_555
C44 N9 1_555 1_555
C45 N6 1_555 1_555
C46 N9 1_555 1_555
O8 Cd2 1_555 1_555
O9 Cd2 1_555 1_555
O14 Cd2 1_555 1_555
N2 Cd2 1_555 1_555
N3 Cd2 1_555 1_555
N7 Cd1 1_555 1_555
C3_2 N6_2 1_555 1_555
C9A C34A 1_555 1_555
C9A N5A 1_555 1_555
C10A C42A 1_555 1_555
C22_2 C37_2 1_555 1_555
C25A N2A 1_555 1_555
C26A N5A 1_555 1_555
C29A C33A 1_555 1_555
C31A N7A 1_555 1_555
C32_2 N8_2 1_555 1_555
C34A C40A 1_555 1_555
C35_2 N3_2 1_555 1_555
C36_2 N8_2 1_555 1_555
C39_2 N4_2 1_555 1_555
C43_2 N4_2 1_555 1_555
C44A N9A 1_555 1_555
C45_2 N6_2 1_555 1_555
C46A N9A 1_555 1_555
C47A O12A 1_555 1_555
O8_2 Cd2_2 1_555 1_555
O9_2 Cd2_2 1_555 1_555
O14_2 Cd2_2 1_555 1_555
N3_2 Cd2_2 1_555 1_555

#END
