
#######################################################################
#
#                 Cambridge Crystallographic Data Centre
#                                CCDC 
#
#######################################################################
#
# If this CIF has been generated from an entry in the Cambridge 
# Structural Database, then it will include bibliographic, chemical, 
# crystal, experimental, refinement or atomic coordinate data resulting 
# from the CCDC's data processing and validation procedures.
#
#######################################################################

data_ZEBMAW
_symmetry_cell_setting           monoclinic
_symmetry_space_group_name_H-M   'C 2/c'
_symmetry_Int_Tables_number      15
_space_group_name_Hall           '-C 2yn'
loop_
_symmetry_equiv_pos_site_id
_symmetry_equiv_pos_as_xyz
1 x,y,z
2 -x,y,1/2-z
3 1/2+x,1/2+y,z
4 1/2-x,1/2+y,1/2-z
5 -x,-y,-z
6 x,-y,1/2+z
7 1/2-x,1/2-y,-z
8 1/2+x,1/2-y,1/2+z
_cell_length_a                   24.2895(4)
_cell_length_b                   15.9697(3)
_cell_length_c                   21.9356(5)
_cell_angle_alpha                90
_cell_angle_beta                 99.271(2)
_cell_angle_gamma                90
_cell_volume                     8397.59
loop_
_atom_site_label
_atom_site_type_symbol
_atom_site_fract_x
_atom_site_fract_y
_atom_site_fract_z
C1 C 0.29457(19) 0.9878(3) 0.65864(18)
C2 C 0.31631(15) 1.0551(2) 0.62103(15)
C3 C 0.29942(15) 1.0590(3) 0.55823(17)
H1 H 0.2754 1.0184 0.5385
C4 C 0.31805(14) 1.1232(2) 0.52406(16)
H2 H 0.3059 1.1252 0.4817
C5 C 0.35399(13) 1.1841(2) 0.55118(14)
C6 C 0.3697(2) 1.1791(3) 0.61488(18)
H3 H 0.3937 1.2194 0.6350
C7 C 0.3509(2) 1.1166(3) 0.64877(17)
H4 H 0.3618 1.1158 0.6914
C8 C 0.45839(12) 1.2723(2) 0.52754(14)
C9 C 0.48965(14) 1.2002(2) 0.52092(17)
H5 H 0.4715 1.1518 0.5049
C10 C 0.54668(14) 1.1994(2) 0.53762(17)
H6 H 0.5667 1.1511 0.5321
C11 C 0.57458(12) 1.2704(2) 0.56274(14)
C12 C 0.63676(12) 1.2708(2) 0.58029(14)
C13 C 0.54463(13) 1.3418(2) 0.57057(17)
H7 H 0.5629 1.3896 0.5877
C14 C 0.48689(13) 1.3422(2) 0.55270(17)
H8 H 0.4670 1.3908 0.5578
C15 C 0.28995(12) 1.6187(2) 0.55913(14)
C16 C 0.30091(13) 1.2283(2) 0.22556(15)
C17 C 0.32142(13) 1.2357(2) 0.29327(14)
C18 C 0.28410(13) 1.2553(2) 0.33315(15)
H9 H 0.2464 1.2618 0.3175
C19 C 0.30244(13) 1.2652(2) 0.39560(15)
H10 H 0.2771 1.2803 0.4213
C20 C 0.35842(12) 1.2529(2) 0.42100(14)
C21 C 0.39517(13) 1.2324(3) 0.38068(16)
H11 H 0.4327 1.2243 0.3962
C22 C 0.37666(14) 1.2239(3) 0.31762(16)
H12 H 0.4019 1.2100 0.2916
C23 C 0.35206(11) 1.3743(2) 0.52429(13)
C24 C 0.32282(15) 1.3882(2) 0.57316(16)
H13 H 0.3163 1.3437 0.5984
C25 C 0.30333(15) 1.4670(2) 0.58472(16)
H14 H 0.2847 1.4753 0.6181
C26 C 0.31151(12) 1.53390(19) 0.54664(14)
C27 C 0.34046(13) 1.5208(2) 0.49773(15)
H15 H 0.3462 1.5650 0.4719
C28 C 0.36051(13) 1.4426(2) 0.48766(16)
H16 H 0.3804 1.4351 0.4553
O1 O 0.3058(2) 0.9891(3) 0.71458(16)
H17 H 0.3253 1.0299 0.7255
O2 O 0.26270(10) 0.93296(16) 0.62962(12)
O3 O 0.65997(8) 1.33374(14) 0.60800(10)
O4 O 0.66513(9) 1.20930(14) 0.56580(10)
O5 O 0.28360(11) 1.63714(16) 0.61277(11)
O6 O 0.33553(9) 1.21544(17) 0.18915(11)
O7 O 0.24941(9) 1.23561(17) 0.20542(10)
O8 O 0.34230(10) 0.83679(19) 0.55405(12)
O9 O 0.27939(9) 1.67204(14) 0.51493(10)
Si1 Si 0.38069(3) 1.26999(5) 0.50609(4)
Ce1 Ce 0.258044(6) 0.790109(11) 0.595730(7)
O3B O 0.15997(8) 0.83374(14) 0.60800(10)
O4B O 0.16513(9) 0.70930(14) 0.56580(10)
O5_2 O 0.28360(11) 0.63714(16) 0.61277(11)
O6E O 0.33553(9) 0.78456(17) 0.68915(11)
O7E O 0.24941(9) 0.76439(17) 0.70542(10)
O9_2 O 0.27939(9) 0.67204(14) 0.51493(10)
O9F O 0.22061(9) 0.82796(14) 0.48507(10)
Ce1B Ce 0.758044(6) 1.290109(11) 0.595730(7)
Ce1_2 Ce 0.258044(6) 1.790109(11) 0.595730(7)
Ce1E Ce 0.258044(6) 1.209891(11) 0.095730(7)
Ce1F Ce 0.241956(6) 1.709891(11) 0.404270(7)
loop_
_geom_bond_atom_site_label_1
_geom_bond_atom_site_label_2
_geom_bond_site_symmetry_1
_geom_bond_site_symmetry_2
C1 C2 1_555 1_555
C2 C3 1_555 1_555
C3 H1 1_555 1_555
C4 C3 1_555 1_555
H2 C4 1_555 1_555
C5 C4 1_555 1_555
C6 C5 1_555 1_555
H3 C6 1_555 1_555
C7 C2 1_555 1_555
H4 C7 1_555 1_555
C8 C9 1_555 1_555
C9 H5 1_555 1_555
C10 C9 1_555 1_555
H6 C10 1_555 1_555
C11 C10 1_555 1_555
C12 C11 1_555 1_555
C13 C11 1_555 1_555
H7 C13 1_555 1_555
C14 C8 1_555 1_555
H8 C14 1_555 1_555
C15 C26 1_555 1_555
C16 C17 1_555 1_555
C17 C18 1_555 1_555
C18 H9 1_555 1_555
C19 C18 1_555 1_555
H10 C19 1_555 1_555
C20 C19 1_555 1_555
C21 C20 1_555 1_555
H11 C21 1_555 1_555
C22 C17 1_555 1_555
H12 C22 1_555 1_555
C23 C24 1_555 1_555
C24 H13 1_555 1_555
C25 C24 1_555 1_555
H14 C25 1_555 1_555
C26 C25 1_555 1_555
C27 C26 1_555 1_555
H15 C27 1_555 1_555
C28 C23 1_555 1_555
H16 C28 1_555 1_555
O1 C1 1_555 1_555
H17 O1 1_555 1_555
O2 C1 1_555 1_555
O3 C12 1_555 1_555
O4 C12 1_555 1_555
O5 C15 1_555 1_555
O6 C16 1_555 1_555
O7 C16 1_555 1_555
O8 Ce1 1_555 1_555
O9 C15 1_555 1_555
Si1 C5 1_555 1_555
Ce1 O2 1_555 1_555
O3B Ce1 1_555 1_555
O4B Ce1 1_555 1_555
O5_2 Ce1 1_555 1_555
O6E Ce1 1_555 1_555
O7E Ce1 1_555 1_555
O9_2 Ce1 1_555 1_555
O9F Ce1 1_555 1_555
Ce1B O3 1_555 1_555
Ce1_2 O5 1_555 1_555
Ce1E O6 1_555 1_555
Ce1F O9 1_555 1_555
C6 C7 1_555 1_555
C8 Si1 1_555 1_555
C13 C14 1_555 1_555
C20 Si1 1_555 1_555
C21 C22 1_555 1_555
C23 Si1 1_555 1_555
C27 C28 1_555 1_555
O4 Ce1B 1_555 1_555
O7 Ce1E 1_555 1_555
O9 Ce1_2 1_555 1_555

#END
