
#######################################################################
#
#                 Cambridge Crystallographic Data Centre
#                                CCDC 
#
#######################################################################
#
# If this CIF has been generated from an entry in the Cambridge 
# Structural Database, then it will include bibliographic, chemical, 
# crystal, experimental, refinement or atomic coordinate data resulting 
# from the CCDC's data processing and validation procedures.
#
#######################################################################

data_ZERNIV
_symmetry_cell_setting           triclinic
_symmetry_space_group_name_H-M   'P -1'
_symmetry_Int_Tables_number      2
_space_group_name_Hall           '-P 1'
loop_
_symmetry_equiv_pos_site_id
_symmetry_equiv_pos_as_xyz
1 x,y,z
2 -x,-y,-z
_cell_length_a                   12.788(2)
_cell_length_b                   13.670(2)
_cell_length_c                   14.211(2)
_cell_angle_alpha                66.1690(10)
_cell_angle_beta                 66.9470(10)
_cell_angle_gamma                77.0190(10)
_cell_volume                     2084.46
loop_
_atom_site_label
_atom_site_type_symbol
_atom_site_fract_x
_atom_site_fract_y
_atom_site_fract_z
Tb1 Tb 0.428512(16) 0.881346(16) 1.011432(16)
Tb2 Tb 0.431715(17) 0.820217(17) 0.664844(16)
O1 O 0.5259(3) 0.7848(3) 0.9033(3)
O2 O 0.5486(3) 0.7274(2) 0.7705(3)
O3 O 0.7418(3) 0.2541(3) 1.3114(3)
O4 O 0.6215(3) 0.3633(3) 1.2345(3)
O5 O 0.2567(3) 0.9390(3) 1.1350(3)
O6 O 0.3902(3) 1.0473(3) 1.0607(3)
O7 O -0.2777(3) 1.1401(3) 1.0277(3)
O8 O -0.2994(3) 1.1404(3) 1.1897(3)
O9 O 0.6127(3) 0.8592(3) 0.5220(3)
O10 O 0.6445(3) 1.0316(3) 0.4492(3)
O11 O 0.5676(3) 0.9678(3) 0.1489(3)
O12 O 0.5065(3) 0.8246(3) 0.1528(3)
O13 O 0.3684(3) 0.7080(3) 1.1345(3)
H1 H 0.3470 0.6746 1.1066
H2 H 0.4108 0.7435 1.1402
O14 O 0.4984(3) 0.9680(3) 0.6710(3)
H3 H 0.4856 0.9889 0.7235
H4 H 0.5301 1.0087 0.6076
O15 O 0.4755(4) 0.7398(4) 0.5294(3)
H5 H 0.4460 0.6943 0.5228
H6 H 0.5204 0.7788 0.5270
N1 N 0.6859(4) 0.4328(3) 0.9315(4)
N2 N 0.0716(3) 1.1297(4) 0.9293(3)
N3 N 0.6876(4) 0.6213(3) 0.3546(4)
C1 C 0.5609(4) 0.7175(4) 0.8575(4)
C2 C 0.6256(4) 0.6168(4) 0.9089(4)
C3 C 0.6776(4) 0.6126(4) 0.9795(4)
H7 H 0.6728 0.6726 0.9969
C4 C 0.7374(4) 0.5174(4) 1.0245(4)
C5 C 0.7379(4) 0.4314(4) 0.9978(4)
H8 H 0.7771 0.3675 1.0278
C6 C 0.6308(4) 0.5257(4) 0.8879(4)
H9 H 0.5945 0.5287 0.8414
C7 C 0.8024(4) 0.5122(4) 1.0946(4)
C8 C 0.8772(5) 0.5909(4) 1.0538(5)
H10 H 0.8822 0.6454 0.9869
C9 C 0.9438(5) 0.5899(4) 1.1098(5)
H11 H 0.9929 0.6437 1.0807
C10 C 0.9386(5) 0.5107(4) 1.2079(5)
H12 H 0.9841 0.5102 1.2456
C11 C 0.8652(4) 0.4313(4) 1.2507(4)
H13 H 0.8620 0.3768 1.3172
C12 C 0.7959(4) 0.4318(4) 1.1954(4)
C13 C 0.7149(4) 0.3451(4) 1.2495(4)
C14 C 0.2896(4) 1.0231(4) 1.1227(4)
C15 C 0.2154(4) 1.0959(4) 1.1823(3)
C16 C 0.2567(4) 1.1121(4) 1.2512(4)
H14 H 0.3279 1.0805 1.2553
C17 C 0.1940(4) 1.1743(4) 1.3135(4)
H15 H 0.2228 1.1846 1.3593
C18 C 0.0897(4) 1.2206(4) 1.3076(4)
H16 H 0.0473 1.2634 1.3489
C19 C 0.0467(4) 1.2039(4) 1.2401(4)
H17 H -0.0249 1.2357 1.2372
C20 C 0.1069(4) 1.1413(4) 1.1768(4)
C21 C 0.0547(4) 1.1313(3) 1.1040(4)
C22 C 0.1162(4) 1.1311(4) 0.9994(4)
H18 H 0.1949 1.1320 0.9760
C23 C -0.0416(4) 1.1301(4) 0.9632(4)
H19 H -0.0744 1.1289 0.9158
C24 C -0.1130(4) 1.1322(4) 1.0653(4)
C25 C -0.0630(4) 1.1309(3) 1.1373(4)
H20 H -0.1083 1.1299 1.2072
C26 C -0.2393(4) 1.1373(3) 1.0969(3)
C27 C 0.6762(4) 0.9338(4) 0.4625(3)
C28 C 0.8003(4) 0.9044(4) 0.4102(4)
C29 C 0.8783(4) 0.9555(5) 0.4162(4)
H21 H 0.8532 1.0119 0.4424
C30 C 0.9935(5) 0.9229(5) 0.3835(5)
H22 H 1.0455 0.9560 0.3896
C31 C 1.0306(5) 0.8415(6) 0.3419(5)
H23 H 1.1078 0.8194 0.3200
C32 C 0.9543(4) 0.7924(5) 0.3325(4)
H24 H 0.9807 0.7384 0.3028
C33 C 0.8377(4) 0.8225(4) 0.3668(4)
C34 C 0.7606(4) 0.7754(4) 0.3432(4)
C35 C 0.7526(4) 0.6654(4) 0.3790(4)
H25 H 0.7951 0.6197 0.4226
C36 C 0.6280(4) 0.6864(4) 0.2909(4)
H26 H 0.5832 0.6565 0.2729
C37 C 0.6303(4) 0.7972(4) 0.2504(4)
C38 C 0.6977(4) 0.8418(4) 0.2766(3)
H27 H 0.7008 0.9158 0.2499
C39 C 0.5627(4) 0.8677(4) 0.1790(3)
Tb1_2 Tb 0.428512(16) 0.881346(16) 0.011432(16)
Tb1A Tb -0.428512(16) 1.118654(16) 0.988568(16)
Tb1A_2 Tb 0.571488(16) 1.118654(16) -0.011432(16)
Tb1A_3 Tb 0.571488(16) 1.118654(16) 0.988568(16)
Tb2A Tb -0.431715(17) 1.179783(17) 1.335156(16)
Tb2A_2 Tb 0.568285(17) 0.179783(17) 1.335156(16)
Tb2A_3 Tb 0.568285(17) 1.179783(17) 0.335156(16)
O3A O 0.2582(3) 0.7459(3) 0.6886(3)
O4A O 0.3785(3) 0.6367(3) 0.7655(3)
O6A O 0.6098(3) 0.9527(3) 0.9393(3)
O7A O 0.2777(3) 0.8599(3) 0.9723(3)
O8A O 0.2994(3) 0.8596(3) 0.8103(3)
O10A O 0.3555(3) 0.9684(3) 0.5508(3)
O11A O 0.4324(3) 1.0322(3) 0.8511(3)
O12_2 O 0.5065(3) 0.8246(3) 1.1528(3)
O16 O 0.6111(4) 0.4159(4) 0.4874(4)
H28 H 0.6341 0.4780 0.4473
H29 H 0.6048 0.4431 0.5314
O17 O 0.4593(5) 0.5316(4) 0.2850(5)
H30 H 0.5076 0.4813 0.2703
H31 H 0.4326 0.5839 0.2406
O18 O 0.7358(14) 0.6146(10) 0.6237(7)
H32 H 0.6820 0.5743 0.6489
H33 H 0.6841 0.6457 0.6642
O19 O 0.7476(19) 0.1651(14) 0.5436(18)
H34 H 0.7451 0.1887 0.4792
H35 H 0.6890 0.1901 0.5244
loop_
_geom_bond_atom_site_label_1
_geom_bond_atom_site_label_2
_geom_bond_site_symmetry_1
_geom_bond_site_symmetry_2
Tb1 O1 1_555 1_555
Tb2 O2 1_555 1_555
O1 C1 1_555 1_555
O2 C1 1_555 1_555
O3 C13 1_555 1_555
O4 C13 1_555 1_555
O5 Tb1 1_555 1_555
O6 Tb1 1_555 1_555
O7 C26 1_555 1_555
O8 C26 1_555 1_555
O9 Tb2 1_555 1_555
O10 C27 1_555 1_555
O11 C39 1_555 1_555
O12 C39 1_555 1_555
O13 Tb1 1_555 1_555
H1 O13 1_555 1_555
H2 O13 1_555 1_555
O14 Tb2 1_555 1_555
H3 O14 1_555 1_555
H4 O14 1_555 1_555
O15 Tb2 1_555 1_555
H5 O15 1_555 1_555
H6 O15 1_555 1_555
N1 C5 1_555 1_555
N2 C22 1_555 1_555
N3 C35 1_555 1_555
C1 C2 1_555 1_555
C2 C3 1_555 1_555
C3 H7 1_555 1_555
C4 C3 1_555 1_555
C5 C4 1_555 1_555
H8 C5 1_555 1_555
C6 N1 1_555 1_555
H9 C6 1_555 1_555
C7 C4 1_555 1_555
C8 C7 1_555 1_555
H10 C8 1_555 1_555
C9 C8 1_555 1_555
H11 C9 1_555 1_555
C10 C9 1_555 1_555
H12 C10 1_555 1_555
C11 C10 1_555 1_555
H13 C11 1_555 1_555
C12 C7 1_555 1_555
C13 C12 1_555 1_555
C14 O5 1_555 1_555
C15 C14 1_555 1_555
C16 C15 1_555 1_555
H14 C16 1_555 1_555
C17 C16 1_555 1_555
H15 C17 1_555 1_555
C18 C17 1_555 1_555
H16 C18 1_555 1_555
C19 C18 1_555 1_555
H17 C19 1_555 1_555
C20 C15 1_555 1_555
C21 C20 1_555 1_555
C22 C21 1_555 1_555
H18 C22 1_555 1_555
C23 N2 1_555 1_555
H19 C23 1_555 1_555
C24 C23 1_555 1_555
C25 C21 1_555 1_555
H20 C25 1_555 1_555
C26 C24 1_555 1_555
C27 O9 1_555 1_555
C28 C27 1_555 1_555
C29 C28 1_555 1_555
H21 C29 1_555 1_555
C30 C29 1_555 1_555
H22 C30 1_555 1_555
C31 C30 1_555 1_555
H23 C31 1_555 1_555
C32 C31 1_555 1_555
H24 C32 1_555 1_555
C33 C28 1_555 1_555
C34 C33 1_555 1_555
C35 C34 1_555 1_555
H25 C35 1_555 1_555
C36 N3 1_555 1_555
H26 C36 1_555 1_555
C37 C36 1_555 1_555
C38 C34 1_555 1_555
H27 C38 1_555 1_555
C39 C37 1_555 1_555
O16 H28 1_555 1_555
H29 O16 1_555 1_555
O17 H30 1_555 1_555
H31 O17 1_555 1_555
O18 H32 1_555 1_555
H33 O18 1_555 1_555
O19 H34 1_555 1_555
H35 O19 1_555 1_555
Tb1_2 O12 1_555 1_555
Tb1A O7 1_555 1_555
Tb1A_2 O11 1_555 1_555
Tb1A_3 O6 1_555 1_555
Tb2A O8 1_555 1_555
Tb2A_2 O3 1_555 1_555
Tb2A_3 O10 1_555 1_555
O3A Tb2 1_555 1_555
O4A Tb2 1_555 1_555
O6A Tb1 1_555 1_555
O7A Tb1 1_555 1_555
O8A Tb2 1_555 1_555
O10A Tb2 1_555 1_555
O11A Tb1 1_555 1_555
O12_2 Tb1 1_555 1_555
O4 Tb2A_2 1_555 1_555
O6 C14 1_555 1_555
C2 C6 1_555 1_555
C11 C12 1_555 1_555
C19 C20 1_555 1_555
C24 C25 1_555 1_555
C32 C33 1_555 1_555
C37 C38 1_555 1_555
Tb1A_3 O6A 1_555 1_555

#END
