
#######################################################################
#
#                 Cambridge Crystallographic Data Centre
#                                CCDC 
#
#######################################################################
#
# If this CIF has been generated from an entry in the Cambridge 
# Structural Database, then it will include bibliographic, chemical, 
# crystal, experimental, refinement or atomic coordinate data resulting 
# from the CCDC's data processing and validation procedures.
#
#######################################################################

data_ZERNUH
_symmetry_cell_setting           triclinic
_symmetry_space_group_name_H-M   'P -1'
_symmetry_Int_Tables_number      2
_space_group_name_Hall           '-P 1'
loop_
_symmetry_equiv_pos_site_id
_symmetry_equiv_pos_as_xyz
1 x,y,z
2 -x,-y,-z
_cell_length_a                   12.825(9)
_cell_length_b                   13.672(10)
_cell_length_c                   14.227(10)
_cell_angle_alpha                66.182(6)
_cell_angle_beta                 66.800(6)
_cell_angle_gamma                77.064(6)
_cell_volume                     2091.37
loop_
_atom_site_label
_atom_site_type_symbol
_atom_site_fract_x
_atom_site_fract_y
_atom_site_fract_z
Dy1 Dy 0.571386(19) 0.618506(19) 0.488510(19)
Dy2 Dy 0.56810(2) 0.67959(2) 0.83505(2)
O1 O 0.4744(3) 0.7138(3) 0.5965(3)
O2 O 0.4517(3) 0.7723(3) 0.7293(3)
O3 O 0.3789(4) 1.1372(3) 0.2650(4)
O4 O 0.2588(3) 1.2467(3) 0.1876(3)
O5 O 0.7438(3) 0.5617(3) 0.3650(4)
O6 O 0.6087(3) 0.4533(3) 0.4389(3)
O7 O 1.3004(3) 0.3597(3) 0.3094(3)
O8 O 1.2784(3) 0.3601(4) 0.4725(3)
O9 O 0.6438(3) 0.5327(3) 0.9495(3)
O10 O 0.6118(3) 0.3599(3) 1.0226(3)
O11 O 0.5689(4) 0.4682(3) 0.6473(3)
O12 O 0.5076(3) 0.3237(3) 0.6518(3)
O13 O 0.6307(4) 0.7907(3) 0.3660(3)
H1 H 0.6476 0.8337 0.3866
H2 H 0.6342 0.8332 0.3617
O14 O 0.5024(3) 0.5308(3) 0.8292(3)
H3 H 0.5226 0.5119 0.7741
H4 H 0.4587 0.5118 0.8956
O15 O 0.5242(4) 0.7601(5) 0.9711(4)
H5 H 0.4799 0.7209 0.9732
H6 H 0.5515 0.8084 0.9551
N1 N 0.3146(5) 1.0677(4) 0.5678(5)
N2 N 0.9289(4) 0.3705(4) 0.5714(4)
N3 N 0.6878(5) 0.1210(4) 0.8546(5)
C1 C 0.4389(4) 0.7826(4) 0.6427(4)
C2 C 0.3747(5) 0.8829(4) 0.5910(5)
C3 C 0.3216(5) 0.8869(5) 0.5213(5)
H7 H 0.3250 0.8265 0.5053
C4 C 0.2625(5) 0.9830(5) 0.4749(5)
C5 C 0.2611(5) 1.0692(5) 0.5023(5)
H8 H 0.2206 1.1325 0.4738
C6 C 0.3691(5) 0.9751(5) 0.6115(5)
H9 H 0.4050 0.9724 0.6580
C7 C 0.1979(5) 0.9887(5) 0.4049(5)
C8 C 0.1228(6) 0.9093(5) 0.4460(6)
H10 H 0.1179 0.8545 0.5126
C9 C 0.0561(5) 0.9108(5) 0.3896(6)
H11 H 0.0062 0.8576 0.4191
C10 C 0.0624(5) 0.9906(5) 0.2894(6)
H12 H 0.0178 0.9910 0.2511
C11 C 0.1356(5) 1.0688(5) 0.2481(5)
H13 H 0.1400 1.1230 0.1811
C12 C 0.2041(5) 1.0692(5) 0.3041(5)
C13 C 0.2854(5) 1.1557(5) 0.2495(5)
C14 C 0.7097(4) 0.4776(4) 0.3772(4)
C15 C 0.7845(4) 0.4040(4) 0.3180(4)
C16 C 0.8929(4) 0.3594(4) 0.3233(4)
C17 C 0.9530(5) 0.2957(5) 0.2595(5)
H14 H 1.0242 0.2635 0.2627
C18 C 0.9109(5) 0.2787(6) 0.1917(5)
H15 H 0.9540 0.2366 0.1499
C19 C 0.8052(5) 0.3242(5) 0.1861(5)
H16 H 0.7760 0.3127 0.1414
C20 C 0.7430(5) 0.3875(5) 0.2486(5)
H17 H 0.6723 0.4197 0.2441
C21 C 0.9451(4) 0.3688(4) 0.3961(4)
C22 C 1.0633(4) 0.3698(4) 0.3625(4)
H18 H 1.1085 0.3715 0.2922
C23 C 1.1135(4) 0.3680(4) 0.4347(4)
C24 C 1.0417(5) 0.3698(5) 0.5376(5)
H19 H 1.0743 0.3706 0.5852
C25 C 0.8839(5) 0.3680(5) 0.5015(5)
H20 H 0.8055 0.3657 0.5257
C26 C 1.2397(4) 0.3620(4) 0.4038(4)
C27 C 0.6754(5) 0.4349(5) 0.9629(4)
C28 C 0.7993(5) 0.4057(5) 0.9106(5)
C29 C 0.8787(5) 0.4565(5) 0.9165(5)
H21 H 0.8537 0.5127 0.9431
C30 C 0.9932(6) 0.4248(6) 0.8837(6)
H22 H 1.0447 0.4590 0.8889
C31 C 1.0313(6) 0.3420(7) 0.8429(6)
H23 H 1.1083 0.3195 0.8218
C32 C 0.9540(5) 0.2927(6) 0.8336(5)
H24 H 0.9804 0.2384 0.8044
C33 C 0.8381(5) 0.3227(5) 0.8670(5)
C34 C 0.7605(5) 0.2751(5) 0.8443(5)
C35 C 0.7528(5) 0.1657(5) 0.8791(5)
H25 H 0.7952 0.1201 0.9224
C36 C 0.6277(5) 0.1871(5) 0.7907(5)
H26 H 0.5825 0.1574 0.7732
C37 C 0.6304(5) 0.2976(4) 0.7501(4)
C38 C 0.6979(4) 0.3418(5) 0.7769(4)
H27 H 0.7015 0.4157 0.7501
C39 C 0.5635(5) 0.3677(5) 0.6788(4)
Dy1A Dy 0.428614(19) 0.381494(19) 0.511490(19)
Dy1A_2 Dy 1.428614(19) 0.381494(19) 0.511490(19)
Dy2A Dy 0.43190(2) 0.32041(2) 1.16495(2)
Dy2A_2 Dy 0.43190(2) 1.32041(2) 0.16495(2)
Dy2A_3 Dy 1.43190(2) 0.32041(2) 0.16495(2)
O3A O 0.6211(4) 0.8628(3) 0.7350(4)
O4A O 0.7412(3) 0.7533(3) 0.8124(3)
O6A O 0.3913(3) 0.5467(3) 0.5611(3)
O7A O 0.6996(3) 0.6403(3) 0.6906(3)
O8A O 0.7216(3) 0.6399(4) 0.5275(3)
O10A O 0.3882(3) 0.6401(3) 0.9774(3)
O12A O 0.4924(3) 0.6763(3) 0.3482(3)
O16 O 0.6117(5) 0.9147(5) 0.9875(5)
H28 H 0.6347 0.9769 0.9475
H29 H 0.6461 0.8525 1.0219
O17 O 0.5421(6) 0.9678(5) 0.2147(6)
H30 H 0.4939 1.0180 0.2295
H31 H 0.5458 0.9015 0.2451
O18 O 0.2656(15) 0.8864(13) 0.8737(8)
H32 H 0.3191 0.9269 0.8487
H33 H 0.2967 0.8244 0.8998
O19 O 0.252(2) 0.3315(16) 0.9554(18)
H34 H 0.2537 0.3078 1.0199
H35 H 0.3104 0.3076 0.9746
loop_
_geom_bond_atom_site_label_1
_geom_bond_atom_site_label_2
_geom_bond_site_symmetry_1
_geom_bond_site_symmetry_2
Dy1 O1 1_555 1_555
Dy2 O2 1_555 1_555
O1 C1 1_555 1_555
O2 C1 1_555 1_555
O3 C13 1_555 1_555
O4 C13 1_555 1_555
O5 Dy1 1_555 1_555
O6 Dy1 1_555 1_555
O7 C26 1_555 1_555
O8 C26 1_555 1_555
O9 Dy2 1_555 1_555
O10 C27 1_555 1_555
O11 Dy1 1_555 1_555
O12 C39 1_555 1_555
O13 Dy1 1_555 1_555
H1 O13 1_555 1_555
H2 O13 1_555 1_555
O14 Dy2 1_555 1_555
H3 O14 1_555 1_555
H4 O14 1_555 1_555
O15 Dy2 1_555 1_555
H5 O15 1_555 1_555
H6 O15 1_555 1_555
N1 C5 1_555 1_555
N2 C24 1_555 1_555
N3 C35 1_555 1_555
C1 C2 1_555 1_555
C2 C3 1_555 1_555
C3 H7 1_555 1_555
C4 C3 1_555 1_555
C5 C4 1_555 1_555
H8 C5 1_555 1_555
C6 N1 1_555 1_555
H9 C6 1_555 1_555
C7 C4 1_555 1_555
C8 C7 1_555 1_555
H10 C8 1_555 1_555
C9 C8 1_555 1_555
H11 C9 1_555 1_555
C10 C9 1_555 1_555
H12 C10 1_555 1_555
C11 C10 1_555 1_555
H13 C11 1_555 1_555
C12 C7 1_555 1_555
C13 C12 1_555 1_555
C14 O5 1_555 1_555
C15 C14 1_555 1_555
C16 C15 1_555 1_555
C17 C16 1_555 1_555
H14 C17 1_555 1_555
C18 C17 1_555 1_555
H15 C18 1_555 1_555
C19 C18 1_555 1_555
H16 C19 1_555 1_555
C20 C15 1_555 1_555
H17 C20 1_555 1_555
C21 C16 1_555 1_555
C22 C21 1_555 1_555
H18 C22 1_555 1_555
C23 C22 1_555 1_555
C24 C23 1_555 1_555
H19 C24 1_555 1_555
C25 N2 1_555 1_555
H20 C25 1_555 1_555
C26 C23 1_555 1_555
C27 O9 1_555 1_555
C28 C27 1_555 1_555
C29 C28 1_555 1_555
H21 C29 1_555 1_555
C30 C29 1_555 1_555
H22 C30 1_555 1_555
C31 C30 1_555 1_555
H23 C31 1_555 1_555
C32 C31 1_555 1_555
H24 C32 1_555 1_555
C33 C28 1_555 1_555
C34 C33 1_555 1_555
C35 C34 1_555 1_555
H25 C35 1_555 1_555
C36 N3 1_555 1_555
H26 C36 1_555 1_555
C37 C36 1_555 1_555
C38 C34 1_555 1_555
H27 C38 1_555 1_555
C39 O11 1_555 1_555
O16 H28 1_555 1_555
H29 O16 1_555 1_555
O17 H30 1_555 1_555
H31 O17 1_555 1_555
O18 H32 1_555 1_555
H33 O18 1_555 1_555
O19 H34 1_555 1_555
H35 O19 1_555 1_555
Dy1A O6 1_555 1_555
Dy1A_2 O8 1_555 1_555
Dy2A O10 1_555 1_555
Dy2A_2 O3 1_555 1_555
Dy2A_3 O7 1_555 1_555
O3A Dy2 1_555 1_555
O4A Dy2 1_555 1_555
O6A Dy1 1_555 1_555
O7A Dy2 1_555 1_555
O8A Dy1 1_555 1_555
O10A Dy2 1_555 1_555
O12A Dy1 1_555 1_555
O4 Dy2A_2 1_555 1_555
O6 C14 1_555 1_555
O12 Dy1A 1_555 1_555
C2 C6 1_555 1_555
C11 C12 1_555 1_555
C19 C20 1_555 1_555
C21 C25 1_555 1_555
C32 C33 1_555 1_555
C37 C38 1_555 1_555
C37 C39 1_555 1_555
Dy1A O6A 1_555 1_555

#END
