
#######################################################################
#
#                 Cambridge Crystallographic Data Centre
#                                CCDC 
#
#######################################################################
#
# If this CIF has been generated from an entry in the Cambridge 
# Structural Database, then it will include bibliographic, chemical, 
# crystal, experimental, refinement or atomic coordinate data resulting 
# from the CCDC's data processing and validation procedures.
#
#######################################################################

data_ZERQOE
_symmetry_cell_setting           monoclinic
_symmetry_space_group_name_H-M   'P 21/n'
_symmetry_Int_Tables_number      14
_space_group_name_Hall           '-P 2yn'
loop_
_symmetry_equiv_pos_site_id
_symmetry_equiv_pos_as_xyz
1 x,y,z
2 1/2-x,1/2+y,1/2-z
3 -x,-y,-z
4 1/2+x,1/2-y,1/2+z
_cell_length_a                   11.8831(8)
_cell_length_b                   5.5418(3)
_cell_length_c                   22.6515(15)
_cell_angle_alpha                90
_cell_angle_beta                 101.607(7)
_cell_angle_gamma                90
_cell_volume                     1461.18
loop_
_atom_site_label
_atom_site_type_symbol
_atom_site_fract_x
_atom_site_fract_y
_atom_site_fract_z
Ca1 Ca 1.39773(4) 0.23474(7) 0.957906(19)
S1 S 1.10714(5) 0.02418(10) 0.89529(2)
O1 O 0.63160(14) 0.4834(3) 0.97029(7)
O2 O 1.12064(14) -0.2327(3) 0.90184(7)
O3 O 1.18986(13) 0.1828(3) 0.93214(7)
O4 O 1.11790(15) 0.4614(3) 0.61991(7)
O5 O 0.59273(13) 0.0918(3) 0.97299(7)
O6 O 1.10649(15) 0.0664(3) 0.60091(7)
C1 C 1.10806(19) 0.2458(4) 0.63428(10)
C2 C 0.65591(19) 0.2671(4) 0.96417(10)
C3 C 0.8828(2) -0.0661(4) 0.89951(11)
H1 H 0.8925 -0.2123 0.8810
C4 C 1.0543(2) -0.0690(4) 0.77524(10)
H2 H 1.0224 -0.2117 0.7859
C5 C 1.1459(2) 0.3159(4) 0.80425(10)
H3 H 1.1760 0.4270 0.8340
C6 C 1.10139(19) 0.0974(4) 0.81895(10)
C7 C 0.7798(2) -0.0119(4) 0.91639(11)
H4 H 0.7202 -0.1236 0.9098
C8 C 1.14434(19) 0.3646(4) 0.74366(10)
H5 H 1.1727 0.5108 0.7328
C9 C 1.10073(19) 0.1967(4) 0.69941(10)
C10 C 0.76530(19) 0.2084(4) 0.94311(10)
C11 C 1.0554(2) -0.0192(4) 0.71518(10)
H6 H 1.0257 -0.1310 0.6855
C12 C 0.97128(19) 0.1018(4) 0.91066(10)
C13 C 0.9575(2) 0.3255(4) 0.93538(11)
H7 H 1.0166 0.4385 0.9410
C14 C 0.8533(2) 0.3778(4) 0.95159(10)
H8 H 0.8425 0.5273 0.9682
Ca1_2 Ca 0.39773(4) 0.23474(7) 0.957906(19)
Ca1A Ca 1.10227(4) -0.26526(7) 0.542094(19)
Ca1A_2 Ca 1.10227(4) 0.73474(7) 0.542094(19)
Ca1B Ca 0.60227(4) -0.23474(7) 1.042094(19)
Ca1B_2 Ca 0.60227(4) 0.76526(7) 1.042094(19)
O1B O 1.36840(14) 0.5166(3) 1.02971(7)
O4A O 1.38210(15) -0.0386(3) 0.88009(7)
O5_2 O 1.59273(13) 0.0918(3) 0.97299(7)
O5B O 1.40727(13) -0.0918(3) 1.02701(7)
O6A O 1.39351(15) 0.5664(3) 0.89909(7)
O7 O 0.6600(12) 0.955(2) 0.7215(8)
C15 C 0.7138(17) 0.789(3) 0.7417(9)
O8 O 0.7647(15) 0.621(2) 0.7621(8)
loop_
_geom_bond_atom_site_label_1
_geom_bond_atom_site_label_2
_geom_bond_site_symmetry_1
_geom_bond_site_symmetry_2
Ca1 O3 1_555 1_555
S1 O2 1_555 1_555
O1 C2 1_555 1_555
O3 S1 1_555 1_555
O4 C1 1_555 1_555
O5 C2 1_555 1_555
O6 C1 1_555 1_555
C1 C9 1_555 1_555
C2 C10 1_555 1_555
C3 H1 1_555 1_555
C4 H2 1_555 1_555
C5 H3 1_555 1_555
C6 S1 1_555 1_555
C7 C3 1_555 1_555
H4 C7 1_555 1_555
C8 C5 1_555 1_555
H5 C8 1_555 1_555
C9 C8 1_555 1_555
C10 C7 1_555 1_555
C11 C4 1_555 1_555
H6 C11 1_555 1_555
C12 S1 1_555 1_555
C13 C12 1_555 1_555
H7 C13 1_555 1_555
C14 C10 1_555 1_555
H8 C14 1_555 1_555
O7 C15 1_555 1_555
C15 O8 1_555 1_555
Ca1_2 O5 1_555 1_555
Ca1A O6 1_555 1_555
Ca1A_2 O4 1_555 1_555
Ca1B O5 1_555 1_555
Ca1B_2 O1 1_555 1_555
O1B Ca1 1_555 1_555
O4A Ca1 1_555 1_555
O5_2 Ca1 1_555 1_555
O5B Ca1 1_555 1_555
O6A Ca1 1_555 1_555
C3 C12 1_555 1_555
C4 C6 1_555 1_555
C5 C6 1_555 1_555
C9 C11 1_555 1_555
C13 C14 1_555 1_555

#END
