
#######################################################################
#
#                 Cambridge Crystallographic Data Centre
#                                CCDC 
#
#######################################################################
#
# If this CIF has been generated from an entry in the Cambridge 
# Structural Database, then it will include bibliographic, chemical, 
# crystal, experimental, refinement or atomic coordinate data resulting 
# from the CCDC's data processing and validation procedures.
#
#######################################################################

data_ZESZEE
_symmetry_cell_setting           tetragonal
_symmetry_space_group_name_H-M   'I 41/a'
_symmetry_Int_Tables_number      88
_space_group_name_Hall           '-I 4ad'
loop_
_symmetry_equiv_pos_site_id
_symmetry_equiv_pos_as_xyz
1 x,y,z
2 1/2-x,-y,1/2+z
3 3/4-y,1/4+x,1/4+z
4 3/4+y,3/4-x,3/4+z
5 1/2+x,1/2+y,1/2+z
6 -x,1/2-y,z
7 1/4-y,3/4+x,3/4+z
8 1/4+y,1/4-x,1/4+z
9 -x,-y,-z
10 1/2+x,y,1/2-z
11 1/4+y,3/4-x,3/4-z
12 1/4-y,1/4+x,1/4-z
13 1/2-x,1/2-y,1/2-z
14 x,1/2+y,-z
15 3/4+y,1/4-x,1/4-z
16 3/4-y,3/4+x,3/4-z
_cell_length_a                   13.0625(5)
_cell_length_b                   13.0625(5)
_cell_length_c                   52.565(2)
_cell_angle_alpha                90
_cell_angle_beta                 90
_cell_angle_gamma                90
_cell_volume                     8969.11
loop_
_atom_site_label
_atom_site_type_symbol
_atom_site_fract_x
_atom_site_fract_y
_atom_site_fract_z
Al1 Al 0.0000 0.5000 1.0000
Al2 Al 0.0000 0.2500 1.004640(12)
O1 O -0.06245(11) 0.37468(8) 1.004336(19)
H1 H -0.1345(6) 0.3818(13) 1.0065(3)
O2 O 0.06406(12) 0.45486(8) 0.969483(19)
O3 O 0.09148(11) 0.28976(8) 0.977767(19)
O4 O 0.04377(8) 0.65490(11) 0.779951(19)
O5 O 0.20814(8) 0.63571(11) 0.76991(2)
O6 O 0.1963(3) 0.20807(16) 0.85057(3)
C1 C 0.09022(17) 0.36475(13) 0.96306(3)
C2 C 0.12173(16) 0.34955(12) 0.93596(3)
C3 C 0.13511(17) 0.25323(14) 0.92691(3)
H2 H 0.1330 0.1984 0.9382
C4 C 0.15157(18) 0.23472(16) 0.90174(3)
H3 H 0.1610 0.1681 0.8960
C5 C 0.15417(19) 0.31600(16) 0.88471(3)
C6 C 0.1407(2) 0.41369(16) 0.89365(3)
H4 H 0.1424 0.4688 0.8824
C7 C 0.1247(2) 0.43012(15) 0.91912(4)
H5 H 0.1158 0.4966 0.9251
C8 C 0.1701(3) 0.2953(2) 0.85707(4)
C9 C 0.1585(2) 0.37912(19) 0.83832(3)
C10 C 0.2399(2) 0.4053(2) 0.82310(5)
H6 H 0.3009 0.3689 0.8244
C11 C 0.23260(18) 0.4834(2) 0.80616(4)
H7 H 0.2906 0.5039 0.7972
C12 C 0.13996(14) 0.53333(17) 0.80187(3)
C13 C 0.0555(2) 0.5011(2) 0.81642(4)
H8 H -0.0089 0.5292 0.8136
C14 C 0.0693(2) 0.4270(2) 0.83501(4)
H9 H 0.0146 0.4101 0.8455
C15 C 0.12947(12) 0.61421(16) 0.78238(3)
O1E O 0.06245(11) 0.12532(8) 1.004336(19)
H1E H 0.1345(6) 0.1182(13) 1.0065(3)
O2E O -0.06406(12) 0.04514(8) 0.969483(19)
O3E O -0.09148(11) 0.21024(8) 0.977767(19)
O4E O -0.04377(8) -0.15490(11) 0.779951(19)
O5E O -0.20814(8) -0.13571(11) 0.76991(2)
O6E O -0.1963(3) 0.29193(16) 0.85057(3)
C1E C -0.09022(17) 0.13525(13) 0.96306(3)
C2E C -0.12173(16) 0.15045(12) 0.93596(3)
C3E C -0.13511(17) 0.24677(14) 0.92691(3)
H2E H -0.1330 0.3016 0.9382
C4E C -0.15157(18) 0.26528(16) 0.90174(3)
H3E H -0.1610 0.3319 0.8960
C5E C -0.15417(19) 0.18400(16) 0.88471(3)
C6E C -0.1407(2) 0.08631(16) 0.89365(3)
H4E H -0.1424 0.0312 0.8824
C7E C -0.1247(2) 0.06988(15) 0.91912(4)
H5E H -0.1158 0.0034 0.9251
C8E C -0.1701(3) 0.2047(2) 0.85707(4)
C9E C -0.1585(2) 0.12088(19) 0.83832(3)
C10E C -0.2399(2) 0.0947(2) 0.82310(5)
H6E H -0.3009 0.1311 0.8244
C11E C -0.23260(18) 0.0166(2) 0.80616(4)
H7E H -0.2906 -0.0039 0.7972
C12E C -0.13996(14) -0.03333(17) 0.80187(3)
C13E C -0.0555(2) -0.0011(2) 0.81642(4)
H8E H 0.0089 -0.0292 0.8136
C14E C -0.0693(2) 0.0730(2) 0.83501(4)
H9E H -0.0146 0.0899 0.8455
C15E C -0.12947(12) -0.11421(16) 0.78238(3)
Al1C Al 0.2500 0.7500 0.7500
Al1E Al 0.0000 0.0000 1.0000
Al1F Al -0.2500 -0.2500 0.7500
Al2C Al 0.0000 -0.2500 0.754640(12)
Al2C_2 Al 0.0000 0.7500 0.754640(12)
O1H O 0.06245(11) 0.62532(8) 0.995664(19)
O2H O -0.06406(12) 0.54514(8) 1.030517(19)
O4B O 0.09510(11) 0.29377(8) 1.029951(19)
O4G O -0.09510(11) 0.20623(8) 1.029951(19)
O5B O 0.11429(11) 0.45814(8) 1.01991(2)
O5J O -0.11429(11) 0.54186(8) 0.98009(2)
loop_
_geom_bond_atom_site_label_1
_geom_bond_atom_site_label_2
_geom_bond_site_symmetry_1
_geom_bond_site_symmetry_2
Al1 O1 1_555 1_555
Al2 O1 1_555 1_555
O1 H1 1_555 1_555
O2 Al1 1_555 1_555
O3 Al2 1_555 1_555
O4 C15 1_555 1_555
O5 C15 1_555 1_555
O6 C8 1_555 1_555
C1 O2 1_555 1_555
C2 C1 1_555 1_555
C3 C2 1_555 1_555
H2 C3 1_555 1_555
C4 C3 1_555 1_555
H3 C4 1_555 1_555
C5 C4 1_555 1_555
C6 C5 1_555 1_555
H4 C6 1_555 1_555
C7 C2 1_555 1_555
H5 C7 1_555 1_555
C8 C5 1_555 1_555
C9 C8 1_555 1_555
C10 C9 1_555 1_555
H6 C10 1_555 1_555
C11 C10 1_555 1_555
H7 C11 1_555 1_555
C12 C11 1_555 1_555
C13 C12 1_555 1_555
H8 C13 1_555 1_555
C14 C9 1_555 1_555
H9 C14 1_555 1_555
C15 C12 1_555 1_555
O1E Al2 1_555 1_555
H1E O1E 1_555 1_555
O2E C1E 1_555 1_555
O3E Al2 1_555 1_555
O4E C15E 1_555 1_555
O5E C15E 1_555 1_555
O6E C8E 1_555 1_555
C1E O3E 1_555 1_555
C2E C1E 1_555 1_555
C3E C2E 1_555 1_555
H2E C3E 1_555 1_555
C4E C3E 1_555 1_555
H3E C4E 1_555 1_555
C5E C4E 1_555 1_555
C6E C5E 1_555 1_555
H4E C6E 1_555 1_555
C7E C2E 1_555 1_555
H5E C7E 1_555 1_555
C8E C5E 1_555 1_555
C9E C8E 1_555 1_555
C10E C9E 1_555 1_555
H6E C10E 1_555 1_555
C11E C10E 1_555 1_555
H7E C11E 1_555 1_555
C12E C11E 1_555 1_555
C13E C12E 1_555 1_555
H8E C13E 1_555 1_555
C14E C9E 1_555 1_555
H9E C14E 1_555 1_555
C15E C12E 1_555 1_555
Al1C O5 1_555 1_555
Al1E O1E 1_555 1_555
Al1F O5E 1_555 1_555
Al2C O4E 1_555 1_555
Al2C_2 O4 1_555 1_555
O1H Al1 1_555 1_555
O2H Al1 1_555 1_555
O4B Al2 1_555 1_555
O4G Al2 1_555 1_555
O5B Al1 1_555 1_555
O5J Al1 1_555 1_555
O3 C1 1_555 1_555
C6 C7 1_555 1_555
C13 C14 1_555 1_555
O2E Al1E 1_555 1_555
C6E C7E 1_555 1_555
C13E C14E 1_555 1_555

#END
