
#######################################################################
#
#                 Cambridge Crystallographic Data Centre
#                                CCDC 
#
#######################################################################
#
# If this CIF has been generated from an entry in the Cambridge 
# Structural Database, then it will include bibliographic, chemical, 
# crystal, experimental, refinement or atomic coordinate data resulting 
# from the CCDC's data processing and validation procedures.
#
#######################################################################

data_ZICJUS
_symmetry_cell_setting           monoclinic
_symmetry_space_group_name_H-M   'P 21/n'
_symmetry_Int_Tables_number      14
_space_group_name_Hall           '-P 2yn'
loop_
_symmetry_equiv_pos_site_id
_symmetry_equiv_pos_as_xyz
1 x,y,z
2 1/2-x,1/2+y,1/2-z
3 -x,-y,-z
4 1/2+x,1/2-y,1/2+z
_cell_length_a                   9.977(3)
_cell_length_b                   11.801(4)
_cell_length_c                   20.095(6)
_cell_angle_alpha                90
_cell_angle_beta                 90.418(4)
_cell_angle_gamma                90
_cell_volume                     2365.89
loop_
_atom_site_label
_atom_site_type_symbol
_atom_site_fract_x
_atom_site_fract_y
_atom_site_fract_z
Rh1 Rh 0.12092(5) 0.50190(6) 0.49952(3)
F1 F -0.0131(10) 0.6130(7) 0.1003(3)
F2 F 0.0119(10) -0.1620(5) 0.3793(4)
O1 O 0.1089(5) 0.5576(5) 0.4042(3)
O2 O -0.1167(5) 0.5557(5) 0.4049(3)
O3 O 0.1152(5) 0.3384(5) 0.4688(3)
O4 O -0.1107(5) 0.3348(5) 0.4696(3)
N1 N 0.3583(5) 0.5005(6) 0.4998(3)
C1 C -0.0053(9) 0.5661(7) 0.3771(5)
C2 C -0.0086(10) 0.5844(8) 0.3029(5)
C3 C 0.1123(11) 0.5921(9) 0.2699(5)
C4 C 0.1096(15) 0.6017(11) 0.1997(6)
C5 C -0.0148(18) 0.6038(11) 0.1694(6)
C6 C -0.1327(14) 0.5961(11) 0.2005(6)
C7 C -0.1290(11) 0.5847(9) 0.2687(5)
C8 C 0.0036(8) 0.2903(7) 0.4606(4)
C9 C 0.0058(9) 0.1697(8) 0.4381(4)
C10 C -0.1114(11) 0.1105(9) 0.4319(5)
C11 C -0.1094(14) -0.0059(10) 0.4125(6)
C12 C 0.0115(15) -0.0518(9) 0.3992(6)
C13 C 0.1278(13) 0.0063(10) 0.4062(6)
C14 C 0.1252(11) 0.1166(8) 0.4262(5)
C15 C 0.4268(7) 0.4641(7) 0.4461(4)
C16 C 0.3583(8) 0.4244(8) 0.3889(4)
C17 C 0.4285(8) 0.3888(8) 0.3340(5)
C18 C 0.5684(8) 0.3850(8) 0.3352(5)
C19 C 0.6381(8) 0.4182(8) 0.3903(5)
C20 C 0.5722(7) 0.4625(6) 0.4481(4)
H1 H 0.1948 0.5911 0.2937
H2 H 0.1898 0.6064 0.1746
H3 H -0.2152 0.5983 0.1766
H4 H -0.2104 0.5770 0.2925
H5 H -0.1944 0.1468 0.4407
H6 H -0.1895 -0.0490 0.4090
H7 H 0.2109 -0.0297 0.3971
H8 H 0.2068 0.1569 0.4320
H9 H 0.2631 0.4224 0.3882
H10 H 0.3813 0.3665 0.2949
H11 H 0.6154 0.3590 0.2972
H12 H 0.7331 0.4120 0.3905
N1B N 0.6417(5) 0.4995(6) 0.5002(3)
C15B C 0.5732(7) 0.5359(7) 0.5539(4)
C16B C 0.6417(8) 0.5756(8) 0.6111(4)
C17B C 0.5715(8) 0.6112(8) 0.6660(5)
C18B C 0.4316(8) 0.6150(8) 0.6648(5)
C19B C 0.3619(8) 0.5818(8) 0.6097(5)
C20B C 0.4278(7) 0.5375(6) 0.5519(4)
H9B H 0.7369 0.5776 0.6118
H10B H 0.6187 0.6335 0.7051
H11B H 0.3846 0.6410 0.7028
H12B H 0.2669 0.5880 0.6095
Rh1B Rh -0.12092(5) 0.49810(6) 0.50048(3)
F1B F 0.0131(10) 0.3870(7) 0.8997(3)
F2B F -0.0119(10) 1.1620(5) 0.6207(4)
O1B O -0.1089(5) 0.4424(5) 0.5958(3)
O2B O 0.1167(5) 0.4443(5) 0.5951(3)
O3B O -0.1152(5) 0.6616(5) 0.5312(3)
O4B O 0.1107(5) 0.6652(5) 0.5304(3)
C1B C 0.0053(9) 0.4339(7) 0.6229(5)
C2B C 0.0086(10) 0.4156(8) 0.6971(5)
C3B C -0.1123(11) 0.4079(9) 0.7301(5)
C4B C -0.1096(15) 0.3983(11) 0.8003(6)
C5B C 0.0148(18) 0.3962(11) 0.8306(6)
C6B C 0.1327(14) 0.4039(11) 0.7995(6)
C7B C 0.1290(11) 0.4153(9) 0.7313(5)
C8B C -0.0036(8) 0.7097(7) 0.5394(4)
C9B C -0.0058(9) 0.8303(8) 0.5619(4)
C10B C 0.1114(11) 0.8895(9) 0.5681(5)
C11B C 0.1094(14) 1.0059(10) 0.5875(6)
C12B C -0.0115(15) 1.0518(9) 0.6008(6)
C13B C -0.1278(13) 0.9937(10) 0.5938(6)
C14B C -0.1252(11) 0.8834(8) 0.5738(5)
H1B H -0.1948 0.4089 0.7063
H2B H -0.1898 0.3936 0.8254
H3B H 0.2152 0.4017 0.8234
H4B H 0.2104 0.4230 0.7075
H5B H 0.1944 0.8532 0.5593
H6B H 0.1895 1.0490 0.5910
H7B H -0.2109 1.0297 0.6029
H8B H -0.2068 0.8431 0.5680
Rh1B_2 Rh 0.87908(5) 0.49810(6) 0.50048(3)
N1B_2 N -0.3583(5) 0.4995(6) 0.5002(3)
O5 O 0.1099(8) 0.2996(7) 0.2887(4)
O6 O -0.1086(8) 0.2983(8) 0.2878(4)
N2 N 0.0007(10) 0.2932(7) 0.2595(5)
C21 C -0.0004(9) 0.2807(7) 0.1864(5)
C22 C -0.1231(9) 0.2740(7) 0.1537(5)
C23 C -0.1213(11) 0.2628(8) 0.0854(6)
C24 C -0.0028(13) 0.2595(8) 0.0514(5)
C25 C 0.1171(11) 0.2648(8) 0.0857(6)
C26 C 0.1202(9) 0.2757(8) 0.1532(5)
H13 H -0.2051 0.2770 0.1774
H14 H -0.2035 0.2572 0.0615
H15 H -0.0034 0.2535 0.0043
H16 H 0.1989 0.2608 0.0619
H17 H 0.2030 0.2797 0.1767
loop_
_geom_bond_atom_site_label_1
_geom_bond_atom_site_label_2
_geom_bond_site_symmetry_1
_geom_bond_site_symmetry_2
Rh1 O1 1_555 1_555
F1 C5 1_555 1_555
F2 C12 1_555 1_555
O1 C1 1_555 1_555
O2 C1 1_555 1_555
O3 Rh1 1_555 1_555
O4 C8 1_555 1_555
N1 Rh1 1_555 1_555
C1 C2 1_555 1_555
C2 C3 1_555 1_555
C3 C4 1_555 1_555
C4 C5 1_555 1_555
C5 C6 1_555 1_555
C6 C7 1_555 1_555
C7 C2 1_555 1_555
C8 O3 1_555 1_555
C9 C8 1_555 1_555
C10 C9 1_555 1_555
C11 C10 1_555 1_555
C12 C11 1_555 1_555
C13 C12 1_555 1_555
C14 C9 1_555 1_555
C15 N1 1_555 1_555
C16 C15 1_555 1_555
C17 C16 1_555 1_555
C18 C17 1_555 1_555
C19 C18 1_555 1_555
C20 C15 1_555 1_555
H1 C3 1_555 1_555
H2 C4 1_555 1_555
H3 C6 1_555 1_555
H4 C7 1_555 1_555
H5 C10 1_555 1_555
H6 C11 1_555 1_555
H7 C13 1_555 1_555
H8 C14 1_555 1_555
H9 C16 1_555 1_555
H10 C17 1_555 1_555
H11 C18 1_555 1_555
H12 C19 1_555 1_555
O5 N2 1_555 1_555
O6 N2 1_555 1_555
N2 C21 1_555 1_555
C21 C22 1_555 1_555
C22 C23 1_555 1_555
C23 C24 1_555 1_555
C24 C25 1_555 1_555
C25 C26 1_555 1_555
C26 C21 1_555 1_555
H13 C22 1_555 1_555
H14 C23 1_555 1_555
H15 C24 1_555 1_555
H16 C25 1_555 1_555
H17 C26 1_555 1_555
N1B C20 1_555 1_555
C15B N1B 1_555 1_555
C16B C15B 1_555 1_555
C17B C16B 1_555 1_555
C18B C17B 1_555 1_555
C19B C18B 1_555 1_555
C20B N1 1_555 1_555
H9B C16B 1_555 1_555
H10B C17B 1_555 1_555
H11B C18B 1_555 1_555
H12B C19B 1_555 1_555
Rh1B Rh1 1_555 1_555
F1B C5B 1_555 1_555
F2B C12B 1_555 1_555
O1B Rh1B 1_555 1_555
O2B Rh1 1_555 1_555
O3B Rh1B 1_555 1_555
O4B Rh1 1_555 1_555
C1B O1B 1_555 1_555
C2B C1B 1_555 1_555
C3B C2B 1_555 1_555
C4B C3B 1_555 1_555
C5B C4B 1_555 1_555
C6B C5B 1_555 1_555
C7B C2B 1_555 1_555
C8B O3B 1_555 1_555
C9B C8B 1_555 1_555
C10B C9B 1_555 1_555
C11B C10B 1_555 1_555
C12B C11B 1_555 1_555
C13B C12B 1_555 1_555
C14B C9B 1_555 1_555
H1B C3B 1_555 1_555
H2B C4B 1_555 1_555
H3B C6B 1_555 1_555
H4B C7B 1_555 1_555
H5B C10B 1_555 1_555
H6B C11B 1_555 1_555
H7B C13B 1_555 1_555
H8B C14B 1_555 1_555
Rh1B_2 N1B 1_555 1_555
N1B_2 Rh1B 1_555 1_555
O2 Rh1B 1_555 1_555
O4 Rh1B 1_555 1_555
C13 C14 1_555 1_555
C19 C20 1_555 1_555
C15B C20B 1_555 1_555
C19B C20B 1_555 1_555
O2B C1B 1_555 1_555
O4B C8B 1_555 1_555
C6B C7B 1_555 1_555
C13B C14B 1_555 1_555

#END
