
#######################################################################
#
#                 Cambridge Crystallographic Data Centre
#                                CCDC 
#
#######################################################################
#
# If this CIF has been generated from an entry in the Cambridge 
# Structural Database, then it will include bibliographic, chemical, 
# crystal, experimental, refinement or atomic coordinate data resulting 
# from the CCDC's data processing and validation procedures.
#
#######################################################################

data_ZICJIG
_symmetry_cell_setting           monoclinic
_symmetry_space_group_name_H-M   'P 21/n'
_symmetry_Int_Tables_number      14
_space_group_name_Hall           '-P 2yn'
loop_
_symmetry_equiv_pos_site_id
_symmetry_equiv_pos_as_xyz
1 x,y,z
2 1/2-x,1/2+y,1/2-z
3 -x,-y,-z
4 1/2+x,1/2-y,1/2+z
_cell_length_a                   10.064(3)
_cell_length_b                   11.778(4)
_cell_length_c                   20.097(6)
_cell_angle_alpha                90
_cell_angle_beta                 91.221(5)
_cell_angle_gamma                90
_cell_volume                     2381.63
loop_
_atom_site_label
_atom_site_type_symbol
_atom_site_fract_x
_atom_site_fract_y
_atom_site_fract_z
Ru1 Ru 0.11351(7) 0.50416(7) 0.49927(3)
F1 F -0.0351(10) 0.6152(8) 0.0986(4)
F2 F 0.0311(9) -0.1659(6) 0.3770(5)
O1 O 0.1005(6) 0.5603(5) 0.4018(3)
O2 O -0.1205(6) 0.5527(6) 0.4039(3)
O3 O 0.1180(6) 0.3361(6) 0.4685(3)
O4 O -0.1049(6) 0.3292(6) 0.4700(3)
N1 N 0.3569(6) 0.5056(7) 0.4991(4)
C1 C -0.0139(9) 0.5646(8) 0.3752(5)
C2 C -0.0191(10) 0.5840(9) 0.3006(5)
C3 C 0.0959(12) 0.5977(9) 0.2670(6)
C4 C 0.0912(14) 0.6085(10) 0.1970(6)
C5 C -0.0289(15) 0.6048(11) 0.1668(6)
C6 C -0.1452(14) 0.5920(11) 0.1988(6)
C7 C -0.1394(11) 0.5805(9) 0.2678(5)
C8 C 0.0091(9) 0.2873(8) 0.4613(4)
C9 C 0.0140(10) 0.1641(9) 0.4388(5)
C10 C -0.1006(11) 0.1008(9) 0.4343(5)
C11 C -0.0936(13) -0.0141(10) 0.4129(6)
C12 C 0.0265(15) -0.0547(10) 0.3976(7)
C13 C 0.1426(13) 0.0046(11) 0.4025(7)
C14 C 0.1341(12) 0.1163(9) 0.4224(6)
C15 C 0.4293(8) 0.4661(7) 0.4456(5)
C16 C 0.3588(9) 0.4311(8) 0.3871(5)
C17 C 0.4263(9) 0.3918(9) 0.3339(5)
C18 C 0.5624(9) 0.3831(9) 0.3359(5)
C19 C 0.6333(9) 0.4142(8) 0.3917(5)
C20 C 0.5676(8) 0.4582(8) 0.4478(5)
H1 H 0.1787 0.5999 0.2906
H2 H 0.1699 0.6180 0.1724
H3 H -0.2278 0.5910 0.1750
H4 H -0.2187 0.5704 0.2919
H5 H -0.1837 0.1335 0.4452
H6 H -0.1709 -0.0603 0.4096
H7 H 0.2255 -0.0295 0.3926
H8 H 0.2125 0.1612 0.4248
H9 H 0.2645 0.4351 0.3851
H10 H 0.3784 0.3700 0.2946
H11 H 0.6076 0.3553 0.2982
H12 H 0.7273 0.4062 0.3929
N1B N 0.6431(6) 0.4944(7) 0.5009(4)
C15B C 0.5707(8) 0.5339(7) 0.5544(5)
C16B C 0.6412(9) 0.5689(8) 0.6129(5)
C17B C 0.5737(9) 0.6082(9) 0.6661(5)
C18B C 0.4376(9) 0.6169(9) 0.6641(5)
C19B C 0.3667(9) 0.5858(8) 0.6083(5)
C20B C 0.4324(8) 0.5418(8) 0.5522(5)
H9B H 0.7355 0.5649 0.6149
H10B H 0.6216 0.6300 0.7054
H11B H 0.3924 0.6447 0.7018
H12B H 0.2727 0.5938 0.6071
Ru1B Ru -0.11351(7) 0.49584(7) 0.50073(3)
F1B F 0.0351(10) 0.3848(8) 0.9014(4)
F2B F -0.0311(9) 1.1659(6) 0.6230(5)
O1B O -0.1005(6) 0.4397(5) 0.5982(3)
O2B O 0.1205(6) 0.4473(6) 0.5961(3)
O3B O -0.1180(6) 0.6639(6) 0.5315(3)
O4B O 0.1049(6) 0.6708(6) 0.5300(3)
C1B C 0.0139(9) 0.4354(8) 0.6248(5)
C2B C 0.0191(10) 0.4160(9) 0.6994(5)
C3B C -0.0959(12) 0.4023(9) 0.7330(6)
C4B C -0.0912(14) 0.3915(10) 0.8030(6)
C5B C 0.0289(15) 0.3952(11) 0.8332(6)
C6B C 0.1452(14) 0.4080(11) 0.8012(6)
C7B C 0.1394(11) 0.4195(9) 0.7322(5)
C8B C -0.0091(9) 0.7127(8) 0.5387(4)
C9B C -0.0140(10) 0.8359(9) 0.5612(5)
C10B C 0.1006(11) 0.8992(9) 0.5657(5)
C11B C 0.0936(13) 1.0141(10) 0.5871(6)
C12B C -0.0265(15) 1.0547(10) 0.6024(7)
C13B C -0.1426(13) 0.9954(11) 0.5975(7)
C14B C -0.1341(12) 0.8837(9) 0.5776(6)
H1B H -0.1787 0.4001 0.7094
H2B H -0.1699 0.3820 0.8276
H3B H 0.2278 0.4090 0.8250
H4B H 0.2187 0.4296 0.7081
H5B H 0.1837 0.8665 0.5548
H6B H 0.1709 1.0603 0.5904
H7B H -0.2255 1.0295 0.6074
H8B H -0.2125 0.8388 0.5752
Ru1B_2 Ru 0.88649(7) 0.49584(7) 0.50073(3)
N1B_2 N -0.3569(6) 0.4944(7) 0.5009(4)
O5 O 0.1092(10) 0.3020(8) 0.2896(5)
O6 O -0.1051(10) 0.2964(8) 0.2895(5)
N2 N -0.0010(11) 0.2939(9) 0.2620(5)
C21 C -0.0004(10) 0.2802(9) 0.1874(6)
C22 C -0.1225(10) 0.2717(8) 0.1552(6)
C23 C -0.1226(12) 0.2613(9) 0.0863(6)
C24 C -0.0056(12) 0.2604(9) 0.0531(6)
C25 C 0.1136(12) 0.2650(9) 0.0866(6)
C26 C 0.1151(10) 0.2765(9) 0.1560(6)
H13 H -0.2029 0.2729 0.1791
H14 H -0.2045 0.2547 0.0623
H15 H -0.0073 0.2565 0.0059
H16 H 0.1944 0.2604 0.0631
H17 H 0.1969 0.2816 0.1803
loop_
_geom_bond_atom_site_label_1
_geom_bond_atom_site_label_2
_geom_bond_site_symmetry_1
_geom_bond_site_symmetry_2
Ru1 O1 1_555 1_555
F1 C5 1_555 1_555
F2 C12 1_555 1_555
O1 C1 1_555 1_555
O2 C1 1_555 1_555
O3 Ru1 1_555 1_555
O4 C8 1_555 1_555
N1 Ru1 1_555 1_555
C1 C2 1_555 1_555
C2 C3 1_555 1_555
C3 C4 1_555 1_555
C4 C5 1_555 1_555
C5 C6 1_555 1_555
C6 C7 1_555 1_555
C7 C2 1_555 1_555
C8 O3 1_555 1_555
C9 C8 1_555 1_555
C10 C9 1_555 1_555
C11 C10 1_555 1_555
C12 C11 1_555 1_555
C13 C12 1_555 1_555
C14 C9 1_555 1_555
C15 N1 1_555 1_555
C16 C15 1_555 1_555
C17 C16 1_555 1_555
C18 C17 1_555 1_555
C19 C18 1_555 1_555
C20 C15 1_555 1_555
H1 C3 1_555 1_555
H2 C4 1_555 1_555
H3 C6 1_555 1_555
H4 C7 1_555 1_555
H5 C10 1_555 1_555
H6 C11 1_555 1_555
H7 C13 1_555 1_555
H8 C14 1_555 1_555
H9 C16 1_555 1_555
H10 C17 1_555 1_555
H11 C18 1_555 1_555
H12 C19 1_555 1_555
O5 N2 1_555 1_555
O6 N2 1_555 1_555
N2 C21 1_555 1_555
C21 C22 1_555 1_555
C22 C23 1_555 1_555
C23 C24 1_555 1_555
C24 C25 1_555 1_555
C25 C26 1_555 1_555
C26 C21 1_555 1_555
H13 C22 1_555 1_555
H14 C23 1_555 1_555
H15 C24 1_555 1_555
H16 C25 1_555 1_555
H17 C26 1_555 1_555
N1B C20 1_555 1_555
C15B N1B 1_555 1_555
C16B C15B 1_555 1_555
C17B C16B 1_555 1_555
C18B C17B 1_555 1_555
C19B C18B 1_555 1_555
C20B N1 1_555 1_555
H9B C16B 1_555 1_555
H10B C17B 1_555 1_555
H11B C18B 1_555 1_555
H12B C19B 1_555 1_555
Ru1B Ru1 1_555 1_555
F1B C5B 1_555 1_555
F2B C12B 1_555 1_555
O1B Ru1B 1_555 1_555
O2B Ru1 1_555 1_555
O3B Ru1B 1_555 1_555
O4B Ru1 1_555 1_555
C1B O1B 1_555 1_555
C2B C1B 1_555 1_555
C3B C2B 1_555 1_555
C4B C3B 1_555 1_555
C5B C4B 1_555 1_555
C6B C5B 1_555 1_555
C7B C2B 1_555 1_555
C8B O3B 1_555 1_555
C9B C8B 1_555 1_555
C10B C9B 1_555 1_555
C11B C10B 1_555 1_555
C12B C11B 1_555 1_555
C13B C12B 1_555 1_555
C14B C9B 1_555 1_555
H1B C3B 1_555 1_555
H2B C4B 1_555 1_555
H3B C6B 1_555 1_555
H4B C7B 1_555 1_555
H5B C10B 1_555 1_555
H6B C11B 1_555 1_555
H7B C13B 1_555 1_555
H8B C14B 1_555 1_555
Ru1B_2 N1B 1_555 1_555
N1B_2 Ru1B 1_555 1_555
O2 Ru1B 1_555 1_555
O4 Ru1B 1_555 1_555
C13 C14 1_555 1_555
C19 C20 1_555 1_555
C15B C20B 1_555 1_555
C19B C20B 1_555 1_555
O2B C1B 1_555 1_555
O4B C8B 1_555 1_555
C6B C7B 1_555 1_555
C13B C14B 1_555 1_555

#END
