
#######################################################################
#
#                 Cambridge Crystallographic Data Centre
#                                CCDC 
#
#######################################################################
#
# If this CIF has been generated from an entry in the Cambridge 
# Structural Database, then it will include bibliographic, chemical, 
# crystal, experimental, refinement or atomic coordinate data resulting 
# from the CCDC's data processing and validation procedures.
#
#######################################################################

data_ZIJSAO
_symmetry_cell_setting           cubic
_symmetry_space_group_name_H-M   'I 4 3 2'
_symmetry_Int_Tables_number      211
_space_group_name_Hall           'I 4 2 3'
loop_
_symmetry_equiv_pos_site_id
_symmetry_equiv_pos_as_xyz
1 x,y,z
2 -x,-y,z
3 -x,y,-z
4 x,-y,-z
5 z,x,y
6 z,-x,-y
7 -z,-x,y
8 -z,x,-y
9 y,z,x
10 -y,z,-x
11 y,-z,-x
12 -y,-z,x
13 y,x,-z
14 -y,-x,-z
15 y,-x,z
16 -y,x,z
17 x,z,-y
18 -x,z,y
19 -x,-z,-y
20 x,-z,y
21 z,y,-x
22 z,-y,x
23 -z,y,x
24 -z,-y,-x
25 1/2+x,1/2+y,1/2+z
26 1/2-x,1/2-y,1/2+z
27 1/2-x,1/2+y,1/2-z
28 1/2+x,1/2-y,1/2-z
29 1/2+z,1/2+x,1/2+y
30 1/2+z,1/2-x,1/2-y
31 1/2-z,1/2-x,1/2+y
32 1/2-z,1/2+x,1/2-y
33 1/2+y,1/2+z,1/2+x
34 1/2-y,1/2+z,1/2-x
35 1/2+y,1/2-z,1/2-x
36 1/2-y,1/2-z,1/2+x
37 1/2+y,1/2+x,1/2-z
38 1/2-y,1/2-x,1/2-z
39 1/2+y,1/2-x,1/2+z
40 1/2-y,1/2+x,1/2+z
41 1/2+x,1/2+z,1/2-y
42 1/2-x,1/2+z,1/2+y
43 1/2-x,1/2-z,1/2-y
44 1/2+x,1/2-z,1/2+y
45 1/2+z,1/2+y,1/2-x
46 1/2+z,1/2-y,1/2+x
47 1/2-z,1/2+y,1/2+x
48 1/2-z,1/2-y,1/2-x
_cell_length_a                   33.0001(4)
_cell_length_b                   33.0001(4)
_cell_length_c                   33.0001(4)
_cell_angle_alpha                90
_cell_angle_beta                 90
_cell_angle_gamma                90
_cell_volume                     35937.3
loop_
_atom_site_label
_atom_site_type_symbol
_atom_site_fract_x
_atom_site_fract_y
_atom_site_fract_z
Tb1 Tb 0.0000 0.60602(3) 0.0000
O1 O 0.0463(5) 0.6503(5) 0.0327(5)
O2 O 0.0404(6) 0.5884(4) 0.0565(6)
O3 O 0.0000 0.5305(3) 0.0000
C1 C 0.2802(4) 0.7500 0.2198(4)
H1 H 0.3001 0.7500 0.1999
C2 C 0.2500 0.7195(5) 0.2195(5)
C3 C 0.2500 0.6876(5) 0.1876(5)
C4 C 0.2152(4) 0.6743(4) 0.1717(4)
H2 H 0.1909 0.6843 0.1819
C5 C 0.2139(4) 0.6464(5) 0.1407(4)
C6 C 0.2500 0.6312(4) 0.1312(4)
H3 H 0.2500 0.6113 0.1113
C7 C 0.1726(4) 0.6351(5) 0.1193(4)
C8 C 0.1639(6) 0.5965(4) 0.1050(6)
H4 H 0.1817 0.5753 0.1101
C9 C 0.1285(7) 0.5895(5) 0.0833(5)
H5 H 0.1227 0.5637 0.0737
C10 C 0.1018(4) 0.6212(8) 0.0758(4)
C11 C 0.1105(5) 0.6599(6) 0.0900(6)
H6 H 0.0926 0.6811 0.0850
C12 C 0.1459(5) 0.6669(4) 0.1118(5)
H7 H 0.1517 0.6927 0.1213
C13 C 0.0634(8) 0.6135(6) 0.0479(9)
O1E O 0.0327(5) 0.9537(5) 0.3497(5)
O2E O 0.0565(6) 0.9596(6) 0.4116(4)
C1E C 0.2198(4) 0.7198(4) 0.2500
H1E H 0.1999 0.6999 0.2500
C2E C 0.2195(5) 0.7500 0.2805(5)
C3E C 0.1876(5) 0.7500 0.3124(5)
C4E C 0.1717(4) 0.7848(4) 0.3257(4)
H2E H 0.1819 0.8091 0.3157
C5E C 0.1407(4) 0.7861(4) 0.3536(5)
C6E C 0.1312(4) 0.7500 0.3688(4)
H3E H 0.1113 0.7500 0.3887
C7E C 0.1193(4) 0.8274(4) 0.3649(5)
C8E C 0.1050(6) 0.8361(6) 0.4035(4)
H4E H 0.1101 0.8183 0.4247
C9E C 0.0833(5) 0.8715(7) 0.4105(5)
H5E H 0.0737 0.8773 0.4363
C10E C 0.0758(4) 0.8982(4) 0.3788(8)
C11E C 0.0900(6) 0.8895(5) 0.3401(6)
H6E H 0.0850 0.9074 0.3189
C12E C 0.1118(5) 0.8541(5) 0.3331(4)
H7E H 0.1213 0.8483 0.3073
C13E C 0.0479(9) 0.9366(8) 0.3865(6)
O1K O 0.3497(5) 0.9673(5) 0.0463(5)
O2K O 0.4116(4) 0.9435(6) 0.0404(6)
C1K C 0.2500 0.7802(4) 0.2802(4)
H1K H 0.2500 0.8001 0.3001
C2K C 0.2805(5) 0.7805(5) 0.2500
C3K C 0.3124(5) 0.8124(5) 0.2500
C4K C 0.3257(4) 0.8283(4) 0.2152(4)
H2K H 0.3157 0.8181 0.1909
C5K C 0.3536(5) 0.8593(4) 0.2139(4)
C6K C 0.3688(4) 0.8688(4) 0.2500
H3K H 0.3887 0.8887 0.2500
C7K C 0.3649(5) 0.8807(4) 0.1726(4)
C8K C 0.4035(4) 0.8950(6) 0.1639(6)
H4K H 0.4247 0.8899 0.1817
C9K C 0.4105(5) 0.9167(5) 0.1285(7)
H5K H 0.4363 0.9263 0.1227
C10K C 0.3788(8) 0.9242(4) 0.1018(4)
C11K C 0.3401(6) 0.9100(6) 0.1105(5)
H6K H 0.3189 0.9150 0.0926
C12K C 0.3331(4) 0.8882(5) 0.1459(5)
H7K H 0.3073 0.8787 0.1517
C13K C 0.3865(6) 0.9521(9) 0.0634(8)
O1OA O 0.4537(5) 0.5327(5) 0.1503(5)
O2OA O 0.4596(6) 0.5565(6) 0.0884(4)
C4OA C 0.2848(4) 0.6717(4) 0.1743(4)
H2OA H 0.3091 0.6819 0.1843
C5OA C 0.2861(4) 0.6407(4) 0.1464(5)
C7OA C 0.3274(4) 0.6193(4) 0.1351(5)
C8OA C 0.3361(6) 0.6050(6) 0.0965(4)
H4OA H 0.3183 0.6101 0.0753
C9OA C 0.3715(7) 0.5833(5) 0.0895(5)
H5OA H 0.3773 0.5737 0.0637
C10OA C 0.3982(4) 0.5758(4) 0.1212(8)
C11OA C 0.3895(5) 0.5900(6) 0.1599(6)
H6OA H 0.4074 0.5850 0.1811
C12OA C 0.3541(5) 0.6118(5) 0.1669(4)
H7OA H 0.3483 0.6213 0.1927
C13OA C 0.4366(8) 0.5479(9) 0.1135(6)
O1UA O 0.4673(5) 0.8497(5) 0.4537(5)
O2UA O 0.4435(6) 0.9116(4) 0.4596(6)
C4UA C 0.3283(4) 0.8257(4) 0.2848(4)
H2UA H 0.3181 0.8157 0.3091
C5UA C 0.3593(4) 0.8536(5) 0.2861(4)
C7UA C 0.3807(4) 0.8649(5) 0.3274(4)
C8UA C 0.3950(6) 0.9035(4) 0.3361(6)
H4UA H 0.3899 0.9247 0.3183
C9UA C 0.4167(5) 0.9105(5) 0.3715(7)
H5UA H 0.4263 0.9363 0.3773
C10UA C 0.4242(4) 0.8788(8) 0.3982(4)
C11UA C 0.4100(6) 0.8401(6) 0.3895(5)
H6UA H 0.4150 0.8189 0.4074
C12UA C 0.3882(5) 0.8331(4) 0.3541(5)
H7UA H 0.3787 0.8073 0.3483
C13UA C 0.4521(9) 0.8865(6) 0.4366(8)
O1JA O 0.1503(5) 0.5463(5) 0.4673(5)
O2JA O 0.0884(4) 0.5404(6) 0.4435(6)
C4JA C 0.1743(4) 0.7152(4) 0.3283(4)
H2JA H 0.1843 0.6909 0.3181
C5JA C 0.1464(5) 0.7139(4) 0.3593(4)
C7JA C 0.1351(5) 0.6726(4) 0.3807(4)
C8JA C 0.0965(4) 0.6639(6) 0.3950(6)
H4JA H 0.0753 0.6817 0.3899
C9JA C 0.0895(5) 0.6285(7) 0.4167(5)
H5JA H 0.0637 0.6227 0.4263
C10JA C 0.1212(8) 0.6018(4) 0.4242(4)
C11JA C 0.1599(6) 0.6105(5) 0.4100(6)
H6JA H 0.1811 0.5926 0.4150
C12JA C 0.1669(4) 0.6459(5) 0.3882(5)
H7JA H 0.1927 0.6517 0.3787
C13JA C 0.1135(6) 0.5634(8) 0.4521(9)
O1B O -0.0463(5) 0.6503(5) -0.0327(5)
O2B O -0.0404(6) 0.5884(4) -0.0565(6)
C1B C -0.2802(4) 0.7500 -0.2198(4)
H1B H -0.3001 0.7500 -0.1999
C2B C -0.2500 0.7195(5) -0.2195(5)
C3B C -0.2500 0.6876(5) -0.1876(5)
C4B C -0.2152(4) 0.6743(4) -0.1717(4)
H2B H -0.1909 0.6843 -0.1819
C5B C -0.2139(4) 0.6464(5) -0.1407(4)
C6B C -0.2500 0.6312(4) -0.1312(4)
H3B H -0.2500 0.6113 -0.1113
C7B C -0.1726(4) 0.6351(5) -0.1193(4)
C8B C -0.1639(6) 0.5965(4) -0.1050(6)
H4B H -0.1817 0.5753 -0.1101
C9B C -0.1285(7) 0.5895(5) -0.0833(5)
H5B H -0.1227 0.5637 -0.0737
C10B C -0.1018(4) 0.6212(8) -0.0758(4)
C11B C -0.1105(5) 0.6599(6) -0.0900(6)
H6B H -0.0926 0.6811 -0.0850
C12B C -0.1459(5) 0.6669(4) -0.1118(5)
H7B H -0.1517 0.6927 -0.1213
C13B C -0.0634(8) 0.6135(6) -0.0479(9)
O1F O -0.0327(5) 0.9537(5) -0.3497(5)
O2F O -0.0565(6) 0.9596(6) -0.4116(4)
C1F C -0.2198(4) 0.7198(4) -0.2500
H1F H -0.1999 0.6999 -0.2500
C2F C -0.2195(5) 0.7500 -0.2805(5)
C3F C -0.1876(5) 0.7500 -0.3124(5)
C4F C -0.1717(4) 0.7848(4) -0.3257(4)
H2F H -0.1819 0.8091 -0.3157
C5F C -0.1407(4) 0.7861(4) -0.3536(5)
C6F C -0.1312(4) 0.7500 -0.3688(4)
H3F H -0.1113 0.7500 -0.3887
C7F C -0.1193(4) 0.8274(4) -0.3649(5)
C8F C -0.1050(6) 0.8361(6) -0.4035(4)
H4F H -0.1101 0.8183 -0.4247
C9F C -0.0833(5) 0.8715(7) -0.4105(5)
H5F H -0.0737 0.8773 -0.4363
C10F C -0.0758(4) 0.8982(4) -0.3788(8)
C11F C -0.0900(6) 0.8895(5) -0.3401(6)
H6F H -0.0850 0.9074 -0.3189
C12F C -0.1118(5) 0.8541(5) -0.3331(4)
H7F H -0.1213 0.8483 -0.3073
C13F C -0.0479(9) 0.9366(8) -0.3865(6)
O1J O -0.3497(5) 0.9673(5) -0.0463(5)
O2J O -0.4116(4) 0.9435(6) -0.0404(6)
C1J C -0.2500 0.7802(4) -0.2802(4)
H1J H -0.2500 0.8001 -0.3001
C2J C -0.2805(5) 0.7805(5) -0.2500
C3J C -0.3124(5) 0.8124(5) -0.2500
C4J C -0.3257(4) 0.8283(4) -0.2152(4)
H2J H -0.3157 0.8181 -0.1909
C5J C -0.3536(5) 0.8593(4) -0.2139(4)
C6J C -0.3688(4) 0.8688(4) -0.2500
H3J H -0.3887 0.8887 -0.2500
C7J C -0.3649(5) 0.8807(4) -0.1726(4)
C8J C -0.4035(4) 0.8950(6) -0.1639(6)
H4J H -0.4247 0.8899 -0.1817
C9J C -0.4105(5) 0.9167(5) -0.1285(7)
H5J H -0.4363 0.9263 -0.1227
C10J C -0.3788(8) 0.9242(4) -0.1018(4)
C11J C -0.3401(6) 0.9100(6) -0.1105(5)
H6J H -0.3189 0.9150 -0.0926
C12J C -0.3331(4) 0.8882(5) -0.1459(5)
H7J H -0.3073 0.8787 -0.1517
C13J C -0.3865(6) 0.9521(9) -0.0634(8)
O1NA O -0.4537(5) 0.5327(5) -0.1503(5)
O2NA O -0.4596(6) 0.5565(6) -0.0884(4)
C4NA C -0.2848(4) 0.6717(4) -0.1743(4)
H2NA H -0.3091 0.6819 -0.1843
C5NA C -0.2861(4) 0.6407(4) -0.1464(5)
C7NA C -0.3274(4) 0.6193(4) -0.1351(5)
C8NA C -0.3361(6) 0.6050(6) -0.0965(4)
H4NA H -0.3183 0.6101 -0.0753
C9NA C -0.3715(7) 0.5833(5) -0.0895(5)
H5NA H -0.3773 0.5737 -0.0637
C10NA C -0.3982(4) 0.5758(4) -0.1212(8)
C11NA C -0.3895(5) 0.5900(6) -0.1599(6)
H6NA H -0.4074 0.5850 -0.1811
C12NA C -0.3541(5) 0.6118(5) -0.1669(4)
H7NA H -0.3483 0.6213 -0.1927
C13NA C -0.4366(8) 0.5479(9) -0.1135(6)
O1SA O -0.4673(5) 0.8497(5) -0.4537(5)
O2SA O -0.4435(6) 0.9116(4) -0.4596(6)
C4SA C -0.3283(4) 0.8257(4) -0.2848(4)
H2SA H -0.3181 0.8157 -0.3091
C5SA C -0.3593(4) 0.8536(5) -0.2861(4)
C7SA C -0.3807(4) 0.8649(5) -0.3274(4)
C8SA C -0.3950(6) 0.9035(4) -0.3361(6)
H4SA H -0.3899 0.9247 -0.3183
C9SA C -0.4167(5) 0.9105(5) -0.3715(7)
H5SA H -0.4263 0.9363 -0.3773
C10SA C -0.4242(4) 0.8788(8) -0.3982(4)
C11SA C -0.4100(6) 0.8401(6) -0.3895(5)
H6SA H -0.4150 0.8189 -0.4074
C12SA C -0.3882(5) 0.8331(4) -0.3541(5)
H7SA H -0.3787 0.8073 -0.3483
C13SA C -0.4521(9) 0.8865(6) -0.4366(8)
O1MA O -0.1503(5) 0.5463(5) -0.4673(5)
O2MA O -0.0884(4) 0.5404(6) -0.4435(6)
C4MA C -0.1743(4) 0.7152(4) -0.3283(4)
H2MA H -0.1843 0.6909 -0.3181
C5MA C -0.1464(5) 0.7139(4) -0.3593(4)
C7MA C -0.1351(5) 0.6726(4) -0.3807(4)
C8MA C -0.0965(4) 0.6639(6) -0.3950(6)
H4MA H -0.0753 0.6817 -0.3899
C9MA C -0.0895(5) 0.6285(7) -0.4167(5)
H5MA H -0.0637 0.6227 -0.4263
C10MA C -0.1212(8) 0.6018(4) -0.4242(4)
C11MA C -0.1599(6) 0.6105(5) -0.4100(6)
H6MA H -0.1811 0.5926 -0.4150
C12MA C -0.1669(4) 0.6459(5) -0.3882(5)
H7MA H -0.1927 0.6517 -0.3787
C13MA C -0.1135(6) 0.5634(8) -0.4521(9)
Tb1D Tb 0.0000 1.0000 -0.39398(3)
O3D O 0.0000 1.0000 -0.4695(3)
Tb1E Tb 0.0000 1.0000 0.39398(3)
O3E O 0.0000 1.0000 0.4695(3)
Tb1H Tb -0.39398(3) 1.0000 0.0000
Tb1I Tb 0.39398(3) 1.0000 0.0000
Tb1Y Tb -0.5000 0.89398(3) -0.5000
Tb1Y_2 Tb 0.5000 0.89398(3) 0.5000
Tb1BA Tb 0.5000 0.5000 0.10602(3)
Tb1CA Tb -0.5000 0.5000 -0.10602(3)
Tb1FA Tb 0.10602(3) 0.5000 0.5000
Tb1GA Tb -0.10602(3) 0.5000 -0.5000
O1D O 0.0327(5) 1.0463(5) -0.3497(5)
O1G O -0.0327(5) 1.0463(5) 0.3497(5)
O1P O 0.0463(5) 1.0327(5) 0.3497(5)
O1Q O -0.0463(5) 1.0327(5) -0.3497(5)
O1R O -0.0463(5) 0.9673(5) 0.3497(5)
O1S O 0.0463(5) 0.9673(5) -0.3497(5)
O1T O 0.0327(5) 0.6503(5) -0.0463(5)
O1V O -0.0327(5) 0.6503(5) 0.0463(5)
O2D O 0.0565(6) 1.0404(6) -0.4116(4)
O2G O -0.0565(6) 1.0404(6) 0.4116(4)
O2P O 0.0404(6) 1.0565(6) 0.4116(4)
O2Q O -0.0404(6) 1.0565(6) -0.4116(4)
O2R O -0.0404(6) 0.9435(6) 0.4116(4)
O2S O 0.0404(6) 0.9435(6) -0.4116(4)
O2T O 0.0565(6) 0.5884(4) -0.0404(6)
O2V O -0.0565(6) 0.5884(4) 0.0404(6)
loop_
_geom_bond_atom_site_label_1
_geom_bond_atom_site_label_2
_geom_bond_site_symmetry_1
_geom_bond_site_symmetry_2
Tb1 O1 1_555 1_555
O1 C13 1_555 1_555
O2 Tb1 1_555 1_555
O3 Tb1 1_555 1_555
C1 H1 1_555 1_555
C2 C1 1_555 1_555
C3 C2 1_555 1_555
C4 C3 1_555 1_555
H2 C4 1_555 1_555
C5 C4 1_555 1_555
C6 C5 1_555 1_555
H3 C6 1_555 1_555
C7 C5 1_555 1_555
C8 C7 1_555 1_555
H4 C8 1_555 1_555
C9 C8 1_555 1_555
H5 C9 1_555 1_555
C10 C9 1_555 1_555
C11 C10 1_555 1_555
H6 C11 1_555 1_555
C12 C7 1_555 1_555
H7 C12 1_555 1_555
C13 O2 1_555 1_555
O1E C13E 1_555 1_555
O2E C13E 1_555 1_555
C1E C2 1_555 1_555
H1E C1E 1_555 1_555
C2E C1E 1_555 1_555
C3E C2E 1_555 1_555
C4E C3E 1_555 1_555
H2E C4E 1_555 1_555
C5E C4E 1_555 1_555
C6E C5E 1_555 1_555
H3E C6E 1_555 1_555
C7E C5E 1_555 1_555
C8E C7E 1_555 1_555
H4E C8E 1_555 1_555
C9E C8E 1_555 1_555
H5E C9E 1_555 1_555
C10E C9E 1_555 1_555
C11E C10E 1_555 1_555
H6E C11E 1_555 1_555
C12E C7E 1_555 1_555
H7E C12E 1_555 1_555
C13E C10E 1_555 1_555
O1K C13K 1_555 1_555
O2K C13K 1_555 1_555
C1K C2E 1_555 1_555
H1K C1K 1_555 1_555
C2K C1 1_555 1_555
C3K C2K 1_555 1_555
C4K C3K 1_555 1_555
H2K C4K 1_555 1_555
C5K C4K 1_555 1_555
C6K C5K 1_555 1_555
H3K C6K 1_555 1_555
C7K C5K 1_555 1_555
C8K C7K 1_555 1_555
H4K C8K 1_555 1_555
C9K C8K 1_555 1_555
H5K C9K 1_555 1_555
C10K C9K 1_555 1_555
C11K C10K 1_555 1_555
H6K C11K 1_555 1_555
C12K C7K 1_555 1_555
H7K C12K 1_555 1_555
C13K C10K 1_555 1_555
O1OA C13OA 1_555 1_555
O2OA C13OA 1_555 1_555
C4OA C3 1_555 1_555
H2OA C4OA 1_555 1_555
C5OA C6 1_555 1_555
C7OA C5OA 1_555 1_555
C8OA C7OA 1_555 1_555
H4OA C8OA 1_555 1_555
C9OA C8OA 1_555 1_555
H5OA C9OA 1_555 1_555
C10OA C9OA 1_555 1_555
C11OA C10OA 1_555 1_555
H6OA C11OA 1_555 1_555
C12OA C7OA 1_555 1_555
H7OA C12OA 1_555 1_555
C13OA C10OA 1_555 1_555
O1UA C13UA 1_555 1_555
O2UA C13UA 1_555 1_555
C4UA C3K 1_555 1_555
H2UA C4UA 1_555 1_555
C5UA C6K 1_555 1_555
C7UA C5UA 1_555 1_555
C8UA C7UA 1_555 1_555
H4UA C8UA 1_555 1_555
C9UA C8UA 1_555 1_555
H5UA C9UA 1_555 1_555
C10UA C9UA 1_555 1_555
C11UA C10UA 1_555 1_555
H6UA C11UA 1_555 1_555
C12UA C7UA 1_555 1_555
H7UA C12UA 1_555 1_555
C13UA C10UA 1_555 1_555
O1JA C13JA 1_555 1_555
O2JA C13JA 1_555 1_555
C4JA C3E 1_555 1_555
H2JA C4JA 1_555 1_555
C5JA C6E 1_555 1_555
C7JA C5JA 1_555 1_555
C8JA C7JA 1_555 1_555
H4JA C8JA 1_555 1_555
C9JA C8JA 1_555 1_555
H5JA C9JA 1_555 1_555
C10JA C9JA 1_555 1_555
C11JA C10JA 1_555 1_555
H6JA C11JA 1_555 1_555
C12JA C7JA 1_555 1_555
H7JA C12JA 1_555 1_555
C13JA C10JA 1_555 1_555
O1B Tb1 1_555 1_555
O2B Tb1 1_555 1_555
C1B H1B 1_555 1_555
C2B C1B 1_555 1_555
C3B C2B 1_555 1_555
C4B C3B 1_555 1_555
H2B C4B 1_555 1_555
C5B C4B 1_555 1_555
C6B C5B 1_555 1_555
H3B C6B 1_555 1_555
C7B C5B 1_555 1_555
C8B C7B 1_555 1_555
H4B C8B 1_555 1_555
C9B C8B 1_555 1_555
H5B C9B 1_555 1_555
C10B C9B 1_555 1_555
C11B C10B 1_555 1_555
H6B C11B 1_555 1_555
C12B C7B 1_555 1_555
H7B C12B 1_555 1_555
C13B O1B 1_555 1_555
O1F C13F 1_555 1_555
O2F C13F 1_555 1_555
C1F C2B 1_555 1_555
H1F C1F 1_555 1_555
C2F C1F 1_555 1_555
C3F C2F 1_555 1_555
C4F C3F 1_555 1_555
H2F C4F 1_555 1_555
C5F C4F 1_555 1_555
C6F C5F 1_555 1_555
H3F C6F 1_555 1_555
C7F C5F 1_555 1_555
C8F C7F 1_555 1_555
H4F C8F 1_555 1_555
C9F C8F 1_555 1_555
H5F C9F 1_555 1_555
C10F C9F 1_555 1_555
C11F C10F 1_555 1_555
H6F C11F 1_555 1_555
C12F C7F 1_555 1_555
H7F C12F 1_555 1_555
C13F C10F 1_555 1_555
O1J C13J 1_555 1_555
O2J C13J 1_555 1_555
C1J C2F 1_555 1_555
H1J C1J 1_555 1_555
C2J C1B 1_555 1_555
C3J C2J 1_555 1_555
C4J C3J 1_555 1_555
H2J C4J 1_555 1_555
C5J C4J 1_555 1_555
C6J C5J 1_555 1_555
H3J C6J 1_555 1_555
C7J C5J 1_555 1_555
C8J C7J 1_555 1_555
H4J C8J 1_555 1_555
C9J C8J 1_555 1_555
H5J C9J 1_555 1_555
C10J C9J 1_555 1_555
C11J C10J 1_555 1_555
H6J C11J 1_555 1_555
C12J C7J 1_555 1_555
H7J C12J 1_555 1_555
C13J C10J 1_555 1_555
O1NA C13NA 1_555 1_555
O2NA C13NA 1_555 1_555
C4NA C3B 1_555 1_555
H2NA C4NA 1_555 1_555
C5NA C6B 1_555 1_555
C7NA C5NA 1_555 1_555
C8NA C7NA 1_555 1_555
H4NA C8NA 1_555 1_555
C9NA C8NA 1_555 1_555
H5NA C9NA 1_555 1_555
C10NA C9NA 1_555 1_555
C11NA C10NA 1_555 1_555
H6NA C11NA 1_555 1_555
C12NA C7NA 1_555 1_555
H7NA C12NA 1_555 1_555
C13NA C10NA 1_555 1_555
O1SA C13SA 1_555 1_555
O2SA C13SA 1_555 1_555
C4SA C3J 1_555 1_555
H2SA C4SA 1_555 1_555
C5SA C6J 1_555 1_555
C7SA C5SA 1_555 1_555
C8SA C7SA 1_555 1_555
H4SA C8SA 1_555 1_555
C9SA C8SA 1_555 1_555
H5SA C9SA 1_555 1_555
C10SA C9SA 1_555 1_555
C11SA C10SA 1_555 1_555
H6SA C11SA 1_555 1_555
C12SA C7SA 1_555 1_555
H7SA C12SA 1_555 1_555
C13SA C10SA 1_555 1_555
O1MA C13MA 1_555 1_555
O2MA C13MA 1_555 1_555
C4MA C3F 1_555 1_555
H2MA C4MA 1_555 1_555
C5MA C6F 1_555 1_555
C7MA C5MA 1_555 1_555
C8MA C7MA 1_555 1_555
H4MA C8MA 1_555 1_555
C9MA C8MA 1_555 1_555
H5MA C9MA 1_555 1_555
C10MA C9MA 1_555 1_555
C11MA C10MA 1_555 1_555
H6MA C11MA 1_555 1_555
C12MA C7MA 1_555 1_555
H7MA C12MA 1_555 1_555
C13MA C10MA 1_555 1_555
Tb1D O1F 1_555 1_555
O3D Tb1D 1_555 1_555
Tb1E O1E 1_555 1_555
O3E Tb1E 1_555 1_555
Tb1H O1J 1_555 1_555
Tb1I O1K 1_555 1_555
Tb1Y O1SA 1_555 1_555
Tb1Y_2 O1UA 1_555 1_555
Tb1BA O1OA 1_555 1_555
Tb1CA O1NA 1_555 1_555
Tb1FA O1JA 1_555 1_555
Tb1GA O1MA 1_555 1_555
O1D Tb1D 1_555 1_555
O1G Tb1E 1_555 1_555
O1P Tb1E 1_555 1_555
O1Q Tb1D 1_555 1_555
O1R Tb1E 1_555 1_555
O1S Tb1D 1_555 1_555
O1T Tb1 1_555 1_555
O1V Tb1 1_555 1_555
O2D Tb1D 1_555 1_555
O2G Tb1E 1_555 1_555
O2P Tb1E 1_555 1_555
O2Q Tb1D 1_555 1_555
O2R Tb1E 1_555 1_555
O2S Tb1D 1_555 1_555
O2T Tb1 1_555 1_555
O2V Tb1 1_555 1_555
C10 C13 1_555 1_555
C11 C12 1_555 1_555
O2E Tb1E 1_555 1_555
C11E C12E 1_555 1_555
O2K Tb1I 1_555 1_555
C1K C2K 1_555 1_555
C11K C12K 1_555 1_555
O2OA Tb1BA 1_555 1_555
C4OA C5OA 1_555 1_555
C11OA C12OA 1_555 1_555
O2UA Tb1Y_2 1_555 1_555
C4UA C5UA 1_555 1_555
C11UA C12UA 1_555 1_555
O2JA Tb1FA 1_555 1_555
C4JA C5JA 1_555 1_555
C11JA C12JA 1_555 1_555
O2B C13B 1_555 1_555
C10B C13B 1_555 1_555
C11B C12B 1_555 1_555
O2F Tb1D 1_555 1_555
C11F C12F 1_555 1_555
O2J Tb1H 1_555 1_555
C1J C2J 1_555 1_555
C11J C12J 1_555 1_555
O2NA Tb1CA 1_555 1_555
C4NA C5NA 1_555 1_555
C11NA C12NA 1_555 1_555
O2SA Tb1Y 1_555 1_555
C4SA C5SA 1_555 1_555
C11SA C12SA 1_555 1_555
O2MA Tb1GA 1_555 1_555
C4MA C5MA 1_555 1_555
C11MA C12MA 1_555 1_555

#END
