
#######################################################################
#
#                 Cambridge Crystallographic Data Centre
#                                CCDC 
#
#######################################################################
#
# If this CIF has been generated from an entry in the Cambridge 
# Structural Database, then it will include bibliographic, chemical, 
# crystal, experimental, refinement or atomic coordinate data resulting 
# from the CCDC's data processing and validation procedures.
#
#######################################################################

data_ZILFOR
_symmetry_cell_setting           tetragonal
_symmetry_space_group_name_H-M   'P 41'
_symmetry_Int_Tables_number      76
_space_group_name_Hall           'P 4w'
loop_
_symmetry_equiv_pos_site_id
_symmetry_equiv_pos_as_xyz
1 x,y,z
2 -x,-y,1/2+z
3 -y,x,1/4+z
4 y,-x,3/4+z
_cell_length_a                   26.070(5)
_cell_length_b                   26.070(5)
_cell_length_c                   18.601(5)
_cell_angle_alpha                90
_cell_angle_beta                 90
_cell_angle_gamma                90
_cell_volume                     12642.1
loop_
_atom_site_label
_atom_site_type_symbol
_atom_site_fract_x
_atom_site_fract_y
_atom_site_fract_z
C1 C 0.3659(2) 0.7458(2) 0.5726(4)
C2 C 0.6933(3) 0.7376(3) 0.4415(4)
C3 C 0.6690(2) 0.7455(3) 0.5109(3)
C4 C 0.6936(2) 0.7550(3) 0.5709(4)
H1 H 0.7292 0.7542 0.5710
C5 C 0.6670(2) 0.7664(3) 0.6359(3)
C6 C 0.6147(2) 0.7632(3) 0.6344(4)
H2 H 0.5965 0.7686 0.6767
C7 C 0.5877(2) 0.7520(3) 0.5716(4)
C8 C 0.6156(2) 0.7431(2) 0.5082(4)
H3 H 0.5988 0.7359 0.4653
C9 C 0.6990(3) 0.7723(2) 0.7038(3)
C10 C 0.5303(2) 0.7493(3) 0.5722(4)
C11 C 0.5030(2) 0.7848(3) 0.6139(4)
H4 H 0.5203 0.8103 0.6392
C12 C 0.4504(3) 0.7815(3) 0.6167(4)
H5 H 0.4328 0.8026 0.6485
C13 C 0.4219(3) 0.7468(3) 0.5726(4)
C14 C 0.4506(2) 0.7146(3) 0.5323(4)
H6 H 0.4342 0.6899 0.5044
C15 C 0.5025(3) 0.7171(4) 0.5314(5)
H7 H 0.5200 0.6951 0.5006
C16 C 0.7430(3) 0.8243(3) 0.3162(5)
C17 C 0.7385(3) 0.8816(3) 0.2828(5)
C18 C 0.7824(3) 0.9116(4) 0.2891(5)
H8 H 0.8124 0.8973 0.3071
C19 C 0.7813(3) 0.9628(3) 0.2684(5)
H9 H 0.8106 0.9828 0.2727
C20 C 0.7363(4) 0.9841(2) 0.2415(5)
C21 C 0.6925(3) 0.9541(3) 0.2352(5)
H10 H 0.6624 0.9684 0.2172
C22 C 0.6935(3) 0.9029(3) 0.2558(4)
H11 H 0.6642 0.8828 0.2516
C23 C 0.7383(3) 1.2060(2) 0.9524(3)
C24 C 0.7446(3) 1.1800(2) 0.8843(3)
C25 C 0.7437(3) 1.1271(2) 0.8832(3)
H12 H 0.7377 1.1095 0.9260
C26 C 0.7471(3) 0.8792(3) 0.8201(4)
C27 C 0.7471(3) 0.9336(3) 0.8194(4)
C28 C 0.7852(4) 0.9589(3) 0.7782(5)
H13 H 0.8102 0.9406 0.7532
C29 C 0.7837(4) 1.0143(3) 0.7767(5)
H14 H 0.8057 1.0319 0.7461
C30 C 0.7498(3) 1.0418(2) 0.8199(4)
C31 C 0.7167(3) 1.0144(3) 0.8633(5)
H15 H 0.6952 1.0318 0.8949
C32 C 0.7154(3) 0.9621(3) 0.8605(5)
H16 H 0.6911 0.9452 0.8884
C33 C 0.7745(2) 1.2067(2) 0.6905(4)
C34 C 0.7663(3) 1.1783(2) 0.7570(4)
C35 C 0.7626(3) 1.1256(3) 0.7597(4)
H17 H 0.7680 1.1071 0.7175
C36 C 0.7514(3) 1.0990(3) 0.8207(4)
C37 C 0.7564(2) 1.2044(2) 0.8212(3)
H18 H 0.7579 1.2400 0.8211
C38 C 0.7254(4) 0.6884(4) 0.8437(6)
C39 C 0.7339(4) 0.6290(2) 0.8514(5)
C40 C 0.7781(3) 0.5995(3) 0.8453(5)
H19 H 0.8070 0.6130 0.8229
C41 C 0.7791(3) 0.5499(3) 0.8726(5)
H20 H 0.8087 0.5302 0.8685
C42 C 0.7359(3) 0.5298(2) 0.9061(4)
C43 C 0.6917(3) 0.5593(3) 0.9122(5)
H21 H 0.6627 0.5459 0.9346
C44 C 0.6907(3) 0.6089(3) 0.8848(5)
H22 H 0.6611 0.6287 0.8889
N1 N 0.7346(2) 1.1380(2) 0.1558(3)
C45 C 0.6907(2) 1.1160(3) 0.1850(6)
H23 H 0.6600 1.1342 0.1852
C46 C 0.6927(4) 1.0669(4) 0.2138(6)
H24 H 0.6633 1.0522 0.2334
C47 C 0.7385(4) 1.0397(2) 0.2134(5)
C48 C 0.7824(3) 1.0616(3) 0.1842(6)
H25 H 0.8131 1.0434 0.1840
C49 C 0.7805(2) 1.1108(3) 0.1554(5)
H26 H 0.8098 1.1255 0.1358
N2 N 0.7281(2) 0.37347(17) 0.9835(3)
C50 C 0.68369(16) 0.40259(19) 0.9770(3)
H27 H 0.6525 0.3895 0.9930
C51 C 0.68584(19) 0.45125(17) 0.9466(3)
H28 H 0.6561 0.4707 0.9423
C52 C 0.7324(2) 0.4708(2) 0.9227(4)
C53 C 0.7768(2) 0.4417(3) 0.9291(6)
H29 H 0.8080 0.4548 0.9131
C54 C 0.77469(17) 0.3930(3) 0.9595(5)
H30 H 0.8044 0.3735 0.9639
O1 O 0.74339(17) 0.7720(2) 0.7037(3)
O2 O 0.73651(18) 1.25490(16) 0.9501(2)
O3 O 0.67224(15) 0.78292(19) 0.7584(2)
O4 O 0.8597(3) 0.7706(3) 0.7344(4)
O5 O 0.72714(17) 1.18163(15) 1.0077(2)
O6 O 0.78374(17) 1.18346(15) 0.6354(3)
O7 O 0.6276(3) 0.7810(3) 0.9130(4)
O8 O 0.7751(2) 1.25834(15) 0.6926(3)
O9 O 0.7784(2) 0.85447(19) 0.7821(4)
O10 O 0.7145(2) 0.85373(17) 0.8557(3)
O11 O 0.74217(19) 0.73897(19) 0.4426(2)
O12 O 0.67031(15) 0.72729(19) 0.3852(2)
O13 O 0.7824(3) 0.7033(2) 0.8029(3)
O14 O 0.6953(2) 0.7083(2) 0.8494(5)
O15 O 0.34371(14) 0.70946(14) 0.5363(2)
O16 O 0.34104(16) 0.78199(17) 0.6094(3)
O17 O 0.7823(2) 0.8063(3) 0.3344(4)
O18 O 0.7027(2) 0.8080(2) 0.2926(4)
Cu1 Cu 0.78757(3) 0.77874(3) 0.78728(4)
Cu2 Cu 0.70006(3) 0.73122(3) 0.28638(4)
Cu3 Cu 0.69908(3) 0.78108(3) 0.85659(4)
Cu4 Cu 0.78795(3) 0.73241(3) 0.35610(4)
N1B N 0.8620(2) 0.7346(2) 0.4058(3)
N2B N 0.62653(17) 0.7281(2) 0.2335(3)
O2B O 0.74510(16) 0.73651(18) 0.2001(2)
O5B O 0.81837(15) 0.72714(17) 0.2577(2)
O6B O 0.81654(15) 0.78374(17) 0.8854(3)
O8B O 0.74166(15) 0.7751(2) 0.9426(3)
O15C O 0.70946(14) 0.65629(14) 0.2863(2)
O16C O 0.78199(17) 0.65896(16) 0.3594(3)
Cu1C Cu 0.77874(3) 1.21243(3) 0.53728(4)
Cu2B Cu 0.26878(3) 0.70006(3) 0.53638(4)
Cu2C Cu 0.73122(3) 0.29994(3) 1.03638(4)
Cu2C_2 Cu 0.73122(3) 1.29994(3) 1.03638(4)
Cu3C Cu 0.78108(3) 1.30092(3) 0.60659(4)
Cu4B Cu 0.26759(3) 0.78795(3) 0.60610(4)
Cu4C Cu 0.73241(3) 1.21205(3) 0.10610(4)
Cu4C_2 Cu 0.73241(3) 1.21205(3) 1.10610(4)
loop_
_geom_bond_atom_site_label_1
_geom_bond_atom_site_label_2
_geom_bond_site_symmetry_1
_geom_bond_site_symmetry_2
C1 C13 1_555 1_555
C2 C3 1_555 1_555
C3 C4 1_555 1_555
C4 H1 1_555 1_555
C5 C4 1_555 1_555
C6 C5 1_555 1_555
H2 C6 1_555 1_555
C7 C6 1_555 1_555
C8 C3 1_555 1_555
H3 C8 1_555 1_555
C9 C5 1_555 1_555
C10 C7 1_555 1_555
C11 C10 1_555 1_555
H4 C11 1_555 1_555
C12 C11 1_555 1_555
H5 C12 1_555 1_555
C13 C12 1_555 1_555
C14 C13 1_555 1_555
H6 C14 1_555 1_555
C15 C10 1_555 1_555
H7 C15 1_555 1_555
C16 C17 1_555 1_555
C17 C18 1_555 1_555
C18 H8 1_555 1_555
C19 C18 1_555 1_555
H9 C19 1_555 1_555
C20 C19 1_555 1_555
C21 C20 1_555 1_555
H10 C21 1_555 1_555
C22 C17 1_555 1_555
H11 C22 1_555 1_555
C23 C24 1_555 1_555
C24 C25 1_555 1_555
C25 H12 1_555 1_555
C26 C27 1_555 1_555
C27 C28 1_555 1_555
C28 H13 1_555 1_555
C29 C28 1_555 1_555
H14 C29 1_555 1_555
C30 C29 1_555 1_555
C31 C30 1_555 1_555
H15 C31 1_555 1_555
C32 C27 1_555 1_555
H16 C32 1_555 1_555
C33 C34 1_555 1_555
C34 C35 1_555 1_555
C35 H17 1_555 1_555
C36 C25 1_555 1_555
C37 C24 1_555 1_555
H18 C37 1_555 1_555
C38 C39 1_555 1_555
C39 C40 1_555 1_555
C40 H19 1_555 1_555
C41 C40 1_555 1_555
H20 C41 1_555 1_555
C42 C41 1_555 1_555
C43 C42 1_555 1_555
H21 C43 1_555 1_555
C44 C39 1_555 1_555
H22 C44 1_555 1_555
N1 C45 1_555 1_555
C45 H23 1_555 1_555
C46 C45 1_555 1_555
H24 C46 1_555 1_555
C47 C20 1_555 1_555
C48 C47 1_555 1_555
H25 C48 1_555 1_555
C49 N1 1_555 1_555
H26 C49 1_555 1_555
N2 C50 1_555 1_555
C50 H27 1_555 1_555
C51 C50 1_555 1_555
H28 C51 1_555 1_555
C52 C42 1_555 1_555
C53 C52 1_555 1_555
H29 C53 1_555 1_555
C54 N2 1_555 1_555
H30 C54 1_555 1_555
O1 C9 1_555 1_555
O2 C23 1_555 1_555
O3 C9 1_555 1_555
O4 Cu1 1_555 1_555
O5 C23 1_555 1_555
O6 C33 1_555 1_555
O7 Cu3 1_555 1_555
O8 C33 1_555 1_555
O9 C26 1_555 1_555
O10 C26 1_555 1_555
O11 C2 1_555 1_555
O12 C2 1_555 1_555
O13 C38 1_555 1_555
O14 C38 1_555 1_555
O15 C1 1_555 1_555
O16 C1 1_555 1_555
O17 C16 1_555 1_555
O18 C16 1_555 1_555
Cu1 O1 1_555 1_555
Cu2 O12 1_555 1_555
Cu3 O3 1_555 1_555
Cu4 O11 1_555 1_555
N1B Cu4 1_555 1_555
N2B Cu2 1_555 1_555
O2B Cu2 1_555 1_555
O5B Cu4 1_555 1_555
O6B Cu1 1_555 1_555
O8B Cu3 1_555 1_555
O15C Cu2 1_555 1_555
O16C Cu4 1_555 1_555
Cu1C O6 1_555 1_555
Cu2B O15 1_555 1_555
Cu2C N2 1_555 1_555
Cu2C_2 O2 1_555 1_555
Cu3C O8 1_555 1_555
Cu4B O16 1_555 1_555
Cu4C N1 1_555 1_555
Cu4C_2 O5 1_555 1_555
C7 C8 1_555 1_555
C14 C15 1_555 1_555
C21 C22 1_555 1_555
C30 C36 1_555 1_555
C31 C32 1_555 1_555
C34 C37 1_555 1_555
C35 C36 1_555 1_555
C43 C44 1_555 1_555
C46 C47 1_555 1_555
C48 C49 1_555 1_555
C51 C52 1_555 1_555
C53 C54 1_555 1_555
O9 Cu1 1_555 1_555
O10 Cu3 1_555 1_555
O13 Cu1 1_555 1_555
O14 Cu3 1_555 1_555
O17 Cu4 1_555 1_555
O18 Cu2 1_555 1_555

#END
