
#######################################################################
#
#                 Cambridge Crystallographic Data Centre
#                                CCDC 
#
#######################################################################
#
# If this CIF has been generated from an entry in the Cambridge 
# Structural Database, then it will include bibliographic, chemical, 
# crystal, experimental, refinement or atomic coordinate data resulting 
# from the CCDC's data processing and validation procedures.
#
#######################################################################

data_ZOZVOB
_symmetry_cell_setting           orthorhombic
_symmetry_space_group_name_H-M   'P 21 21 21'
_symmetry_Int_Tables_number      19
_space_group_name_Hall           'P 2ac 2ab'
loop_
_symmetry_equiv_pos_site_id
_symmetry_equiv_pos_as_xyz
1 x,y,z
2 1/2-x,-y,1/2+z
3 -x,1/2+y,1/2-z
4 1/2+x,1/2-y,-z
_cell_length_a                   16.59(2)
_cell_length_b                   16.79(2)
_cell_length_c                   23.58(4)
_cell_angle_alpha                90
_cell_angle_beta                 90
_cell_angle_gamma                90
_cell_volume                     6568.12
loop_
_atom_site_label
_atom_site_type_symbol
_atom_site_fract_x
_atom_site_fract_y
_atom_site_fract_z
C1 C 0.6343(12) 0.6657(15) 0.1282(8)
C2 C 0.6926(14) 0.603(2) -0.1065(10)
H1 H 0.6400 0.5945 -0.0908
H2 H 0.6951 0.5811 -0.1439
H3 H 0.7029 0.6596 -0.1084
C3 C 0.5838(12) 0.7412(12) 0.1197(9)
C4 C 0.5347(15) 0.7647(17) 0.1720(10)
H4 H 0.5077 0.7186 0.1868
H5 H 0.4956 0.8042 0.1616
H6 H 0.5701 0.7861 0.2004
C5 C 0.5158(16) 0.7151(18) 0.0776(13)
H7 H 0.5393 0.7010 0.0418
H8 H 0.4787 0.7583 0.0723
H9 H 0.4876 0.6700 0.0929
C6 C 0.6244(18) 0.8107(14) 0.0891(16)
H10 H 0.6510 0.7913 0.0556
H11 H 0.6632 0.8350 0.1138
H12 H 0.5844 0.8493 0.0785
C7 C 0.8487(15) 0.5880(14) -0.1051(11)
H13 H 0.8979 0.5690 -0.0884
H14 H 0.8500 0.6451 -0.1071
H15 H 0.8433 0.5664 -0.1426
C8 C 0.6121(10) 0.4648(13) 0.0722(9)
C9 C 0.5549(11) 0.4234(14) 0.0366(8)
C10 C 0.4907(16) 0.3748(19) 0.0675(10)
H16 H 0.4682 0.4060 0.0977
H17 H 0.5146 0.3274 0.0829
H18 H 0.4488 0.3603 0.0413
C11 C 0.5053(18) 0.4864(18) 0.0059(17)
H19 H 0.4776 0.5188 0.0332
H20 H 0.4667 0.4609 -0.0184
H21 H 0.5404 0.5193 -0.0165
C12 C 0.5942(17) 0.360(2) -0.0008(15)
H22 H 0.6227 0.3231 0.0225
H23 H 0.6312 0.3856 -0.0265
H24 H 0.5533 0.3330 -0.0220
C13 C 0.9183(14) 0.6447(14) 0.1130(9)
C14 C 0.9837(12) 0.7069(14) 0.1027(8)
C15 C 0.9500(15) 0.7800(15) 0.0700(13)
H25 H 0.9922 0.8185 0.0647
H26 H 0.9070 0.8037 0.0915
H27 H 0.9300 0.7632 0.0338
C16 C 1.0501(14) 0.6664(16) 0.0665(12)
H28 H 1.0938 0.7030 0.0608
H29 H 1.0281 0.6512 0.0305
H30 H 1.0696 0.6200 0.0859
C17 C 1.0124(17) 0.7327(16) 0.1614(10)
H31 H 1.0554 0.7706 0.1575
H32 H 1.0314 0.6871 0.1819
H33 H 0.9684 0.7567 0.1816
C18 C 0.8874(12) 0.4358(15) 0.0649(9)
C19 C 0.9253(12) 0.3659(13) 0.0278(8)
C20 C 0.8587(17) 0.3083(19) 0.0065(15)
H34 H 0.8185 0.3379 -0.0138
H35 H 0.8343 0.2821 0.0383
H36 H 0.8822 0.2693 -0.0182
C21 C 0.968(2) 0.407(2) -0.0218(14)
H37 H 0.9315 0.4435 -0.0398
H38 H 0.9852 0.3677 -0.0487
H39 H 1.0140 0.4356 -0.0079
C22 C 0.980(2) 0.305(2) 0.0570(10)
H40 H 0.9515 0.2817 0.0884
H41 H 1.0276 0.3309 0.0703
H42 H 0.9939 0.2640 0.0304
C23 C 0.7795(18) 0.5891(13) 0.2696(8)
C24 C 0.7935(10) 0.6649(12) 0.3124(9)
C25 C 0.776(2) 0.7357(19) 0.2735(13)
H43 H 0.7234 0.7303 0.2575
H44 H 0.8155 0.7370 0.2436
H45 H 0.7793 0.7842 0.2950
C26 C 0.7318(15) 0.664(2) 0.3611(11)
H46 H 0.6784 0.6594 0.3457
H47 H 0.7359 0.7131 0.3821
H48 H 0.7425 0.6201 0.3857
C27 C 0.8774(12) 0.668(2) 0.3380(12)
H49 H 0.8854 0.6229 0.3622
H50 H 0.8831 0.7162 0.3597
H51 H 0.9169 0.6676 0.3082
C28 C 0.7472(11) 0.3630(16) 0.2174(7)
C29 C 0.7365(11) 0.2723(11) 0.2116(9)
C30 C 0.712(2) 0.2547(16) 0.1519(10)
H52 H 0.6649 0.2851 0.1425
H53 H 0.7005 0.1989 0.1482
H54 H 0.7552 0.2688 0.1267
C31 C 0.6663(16) 0.2427(16) 0.2477(14)
H55 H 0.6178 0.2697 0.2365
H56 H 0.6772 0.2536 0.2869
H57 H 0.6598 0.1864 0.2424
C32 C 0.8067(13) 0.2279(15) 0.2380(16)
H58 H 0.8556 0.2420 0.2187
H59 H 0.7978 0.1716 0.2348
H60 H 0.8111 0.2421 0.2774
C33 C 0.4955(11) 0.4580(12) 0.2245(8)
H61 H 0.5041 0.4202 0.1963
C34 C 0.4210(9) 0.4617(13) 0.2529(9)
H62 H 0.3800 0.4276 0.2414
C35 C 0.4062(9) 0.5125(12) 0.2962(8)
C36 C 0.4662(9) 0.5659(15) 0.3088(8)
H63 H 0.4595 0.6023 0.3382
C37 C 0.5366(10) 0.5651(13) 0.2776(9)
H64 H 0.5744 0.6050 0.2839
C38 C 0.3293(9) 0.5091(11) 0.3279(8)
C39 C 0.3285(10) 0.5267(11) 0.3874(8)
H65 H 0.3758 0.5435 0.4049
C40 C 0.2601(10) 0.5193(11) 0.4189(7)
C41 C 0.1900(10) 0.5016(11) 0.3876(7)
H66 H 0.1409 0.4966 0.4063
C42 C 0.1928(9) 0.4916(11) 0.3293(8)
C43 C 0.0524(10) 0.4775(13) 0.2028(9)
H67 H 0.0554 0.4806 0.1635
C44 C 0.1219(10) 0.4865(14) 0.2339(9)
H68 H 0.1703 0.4978 0.2157
C45 C 0.1198(10) 0.4784(11) 0.2943(8)
C46 C 0.0440(9) 0.4577(12) 0.3176(8)
H69 H 0.0390 0.4509 0.3566
C47 C -0.0233(10) 0.4476(15) 0.2831(8)
H70 H -0.0708 0.4286 0.2992
C48 C 0.2536(9) 0.5389(15) 0.4778(7)
C49 C 0.2671(14) 0.6074(17) 0.4965(9)
H71 H 0.2779 0.6466 0.4696
C50 C 0.2679(15) 0.6311(15) 0.5516(14)
H72 H 0.2833 0.6825 0.5616
C51 C 0.2454(12) 0.577(2) 0.5920(9)
H73 H 0.2407 0.5919 0.6299
C52 C 0.2296(12) 0.4986(19) 0.5754(9)
C53 C 0.2347(10) 0.4773(16) 0.5166(8)
C54 C 0.2116(13) 0.436(2) 0.6134(11)
H74 H 0.2110 0.4503 0.6515
C55 C 0.1953(17) 0.360(2) 0.6020(13)
H75 H 0.1814 0.3221 0.6293
C56 C 0.2018(13) 0.3434(18) 0.5438(14)
H76 H 0.1950 0.2912 0.5314
C57 C 0.2180(12) 0.4015(18) 0.5043(9)
H77 H 0.2172 0.3869 0.4663
N1 N 0.5531(7) 0.5088(10) 0.2383(6)
N2 N -0.0223(7) 0.4640(9) 0.2279(6)
N3 N 0.2647(8) 0.4914(9) 0.2991(5)
O1 O 0.7651(5) 0.5239(6) 0.1478(4)
O2 O 0.7667(8) 0.6091(7) -0.0112(5)
O3 O 0.6264(8) 0.6254(8) 0.1682(7)
O4 O 0.6874(7) 0.6565(7) 0.0887(5)
O5 O 0.6034(6) 0.4649(8) 0.1234(6)
O6 O 0.6701(6) 0.4959(8) 0.0466(4)
O7 O 0.8585(7) 0.6423(8) 0.0830(5)
O8 O 0.9302(6) 0.5894(9) 0.1505(6)
O9 O 0.8426(7) 0.4814(9) 0.0410(5)
O10 O 0.9049(6) 0.4273(9) 0.1153(6)
O11 O 0.8440(8) 0.5586(11) 0.2539(6)
O12 O 0.7108(7) 0.5700(9) 0.2594(6)
O13 O 0.8186(6) 0.3903(7) 0.2181(5)
O14 O 0.6853(7) 0.4059(8) 0.2174(6)
Fe1 Fe 0.66750(11) 0.51635(15) 0.19037(10)
Fe2 Fe 0.76599(13) 0.56470(16) 0.07481(9)
Ni1 Ni 0.86509(11) 0.49316(15) 0.18357(10)
S1 S 0.7658(3) 0.5574(4) -0.0630(2)
N2_2 N 0.9777(7) 0.4640(9) 0.2279(6)
Ni1_2 Ni -0.13491(11) 0.49316(15) 0.18357(10)
loop_
_geom_bond_atom_site_label_1
_geom_bond_atom_site_label_2
_geom_bond_site_symmetry_1
_geom_bond_site_symmetry_2
C1 C3 1_555 1_555
C2 H1 1_555 1_555
H2 C2 1_555 1_555
H3 C2 1_555 1_555
C3 C4 1_555 1_555
C4 H4 1_555 1_555
H5 C4 1_555 1_555
H6 C4 1_555 1_555
C5 C3 1_555 1_555
H7 C5 1_555 1_555
H8 C5 1_555 1_555
H9 C5 1_555 1_555
C6 C3 1_555 1_555
H10 C6 1_555 1_555
H11 C6 1_555 1_555
H12 C6 1_555 1_555
C7 H13 1_555 1_555
H14 C7 1_555 1_555
H15 C7 1_555 1_555
C8 C9 1_555 1_555
C9 C10 1_555 1_555
C10 H16 1_555 1_555
H17 C10 1_555 1_555
H18 C10 1_555 1_555
C11 C9 1_555 1_555
H19 C11 1_555 1_555
H20 C11 1_555 1_555
H21 C11 1_555 1_555
C12 C9 1_555 1_555
H22 C12 1_555 1_555
H23 C12 1_555 1_555
H24 C12 1_555 1_555
C13 C14 1_555 1_555
C14 C15 1_555 1_555
C15 H25 1_555 1_555
H26 C15 1_555 1_555
H27 C15 1_555 1_555
C16 C14 1_555 1_555
H28 C16 1_555 1_555
H29 C16 1_555 1_555
H30 C16 1_555 1_555
C17 C14 1_555 1_555
H31 C17 1_555 1_555
H32 C17 1_555 1_555
H33 C17 1_555 1_555
C18 C19 1_555 1_555
C19 C20 1_555 1_555
C20 H34 1_555 1_555
H35 C20 1_555 1_555
H36 C20 1_555 1_555
C21 C19 1_555 1_555
H37 C21 1_555 1_555
H38 C21 1_555 1_555
H39 C21 1_555 1_555
C22 C19 1_555 1_555
H40 C22 1_555 1_555
H41 C22 1_555 1_555
H42 C22 1_555 1_555
C23 C24 1_555 1_555
C24 C25 1_555 1_555
C25 H43 1_555 1_555
H44 C25 1_555 1_555
H45 C25 1_555 1_555
C26 C24 1_555 1_555
H46 C26 1_555 1_555
H47 C26 1_555 1_555
H48 C26 1_555 1_555
C27 C24 1_555 1_555
H49 C27 1_555 1_555
H50 C27 1_555 1_555
H51 C27 1_555 1_555
C28 C29 1_555 1_555
C29 C30 1_555 1_555
C30 H52 1_555 1_555
H53 C30 1_555 1_555
H54 C30 1_555 1_555
C31 C29 1_555 1_555
H55 C31 1_555 1_555
H56 C31 1_555 1_555
H57 C31 1_555 1_555
C32 C29 1_555 1_555
H58 C32 1_555 1_555
H59 C32 1_555 1_555
H60 C32 1_555 1_555
C33 H61 1_555 1_555
C34 C33 1_555 1_555
H62 C34 1_555 1_555
C35 C34 1_555 1_555
C36 C35 1_555 1_555
H63 C36 1_555 1_555
C37 C36 1_555 1_555
H64 C37 1_555 1_555
C38 C35 1_555 1_555
C39 C38 1_555 1_555
H65 C39 1_555 1_555
C40 C39 1_555 1_555
C41 C40 1_555 1_555
H66 C41 1_555 1_555
C42 C41 1_555 1_555
C43 H67 1_555 1_555
C44 C43 1_555 1_555
H68 C44 1_555 1_555
C45 C42 1_555 1_555
C46 C45 1_555 1_555
H69 C46 1_555 1_555
C47 C46 1_555 1_555
H70 C47 1_555 1_555
C48 C40 1_555 1_555
C49 C48 1_555 1_555
H71 C49 1_555 1_555
C50 C49 1_555 1_555
H72 C50 1_555 1_555
C51 C50 1_555 1_555
H73 C51 1_555 1_555
C52 C51 1_555 1_555
C53 C48 1_555 1_555
C54 C52 1_555 1_555
H74 C54 1_555 1_555
C55 C54 1_555 1_555
H75 C55 1_555 1_555
C56 C55 1_555 1_555
H76 C56 1_555 1_555
C57 C53 1_555 1_555
H77 C57 1_555 1_555
N1 C33 1_555 1_555
N2 C43 1_555 1_555
N3 C38 1_555 1_555
O1 Fe1 1_555 1_555
O2 Fe2 1_555 1_555
O3 C1 1_555 1_555
O4 C1 1_555 1_555
O5 C8 1_555 1_555
O6 C8 1_555 1_555
O7 C13 1_555 1_555
O8 C13 1_555 1_555
O9 C18 1_555 1_555
O10 C18 1_555 1_555
O11 C23 1_555 1_555
O12 C23 1_555 1_555
O13 C28 1_555 1_555
O14 C28 1_555 1_555
Fe1 N1 1_555 1_555
Fe2 O1 1_555 1_555
Ni1 O1 1_555 1_555
S1 C2 1_555 1_555
N2_2 Ni1 1_555 1_555
Ni1_2 N2 1_555 1_555
C7 S1 1_555 1_555
C37 N1 1_555 1_555
C42 N3 1_555 1_555
C44 C45 1_555 1_555
C47 N2 1_555 1_555
C52 C53 1_555 1_555
C56 C57 1_555 1_555
O2 S1 1_555 1_555
O3 Fe1 1_555 1_555
O4 Fe2 1_555 1_555
O5 Fe1 1_555 1_555
O6 Fe2 1_555 1_555
O7 Fe2 1_555 1_555
O8 Ni1 1_555 1_555
O9 Fe2 1_555 1_555
O10 Ni1 1_555 1_555
O11 Ni1 1_555 1_555
O12 Fe1 1_555 1_555
O13 Ni1 1_555 1_555
O14 Fe1 1_555 1_555

#END
