
#######################################################################
#
#                 Cambridge Crystallographic Data Centre
#                                CCDC 
#
#######################################################################
#
# If this CIF has been generated from an entry in the Cambridge 
# Structural Database, then it will include bibliographic, chemical, 
# crystal, experimental, refinement or atomic coordinate data resulting 
# from the CCDC's data processing and validation procedures.
#
#######################################################################

data_ZURROT
_symmetry_cell_setting           monoclinic
_symmetry_space_group_name_H-M   'C 2/c'
_symmetry_Int_Tables_number      15
_space_group_name_Hall           '-C 2yn'
loop_
_symmetry_equiv_pos_site_id
_symmetry_equiv_pos_as_xyz
1 x,y,z
2 -x,y,1/2-z
3 1/2+x,1/2+y,z
4 1/2-x,1/2+y,1/2-z
5 -x,-y,-z
6 x,-y,1/2+z
7 1/2-x,1/2-y,-z
8 1/2+x,1/2-y,1/2+z
_cell_length_a                   22.240(1)
_cell_length_b                   9.254(1)
_cell_length_c                   16.241(1)
_cell_angle_alpha                90
_cell_angle_beta                 130.668(3)
_cell_angle_gamma                90
_cell_volume                     2535.31
loop_
_atom_site_label
_atom_site_type_symbol
_atom_site_fract_x
_atom_site_fract_y
_atom_site_fract_z
Cd1 Cd 0.00000 0.00000 0.00000
Ni1 Ni 0.00000 0.36207(8) 0.25000
N1 N 0.0165(2) 0.1385(4) 0.1321(3)
N2 N 0.0044(3) 0.5968(5) 0.1266(4)
N3 N -0.0991(2) 0.1359(4) 0.4780(3)
C1 C 0.0094(3) 0.2222(5) 0.1771(3)
C2 C 0.0045(3) 0.5066(5) 0.1746(4)
C3 C -0.1257(3) 0.0782(5) 0.5351(5)
C4 C -0.1904(3) 0.1678(5) 0.5159(4)
C5 C -0.1719(3) 0.2707(6) 0.5914(4)
C6 C -0.2305(3) 0.3521(6) 0.5768(4)
N4 N -0.1013(2) -0.1607(4) 0.3513(3)
C7 C -0.1619(3) -0.2156(5) 0.3510(4)
C8 C -0.1447(3) -0.3286(6) 0.4189(4)
C9 C -0.1998(4) -0.3749(8) 0.4255(5)
C10 C -0.2743(4) -0.3111(9) 0.3611(6)
C11 C -0.2920(3) -0.2004(8) 0.2898(6)
C12 C -0.2360(3) -0.1512(6) 0.2848(4)
H1 H -0.35373 0.35970 0.60136
H2 H -0.42187 0.26426 0.49425
H3 H -0.35200 0.53240 0.49386
H4 H -0.42539 0.42409 0.37724
H5 H -0.38932 0.21227 0.33704
H6 H -0.28503 0.06934 0.36286
H7 H -0.12857 -0.10615 0.28205
H8 H -0.07310 -0.24595 0.35265
H9 H -0.08744 -0.38056 0.46707
H10 H -0.18539 -0.46105 0.48060
H11 H -0.31811 -0.34674 0.36615
H12 H -0.35042 -0.15264 0.23794
H13 H -0.24961 -0.06443 0.23047
C1A C -0.0094(3) 0.2222(5) 0.3229(3)
N1A N -0.0165(2) 0.1385(4) 0.3679(3)
Cd1A Cd 0.00000 0.00000 0.50000
N1E N 0.0165(2) -0.1385(4) 0.6321(3)
C4F C -0.3096(3) 0.3322(5) 0.4841(4)
C3F C -0.3743(3) 0.4218(5) 0.4649(5)
N3F N -0.4009(2) 0.3641(4) 0.5220(3)
Cd1G Cd -0.50000 0.50000 0.50000
C5F C -0.3281(3) 0.2293(6) 0.4086(4)
C6F C -0.2695(3) 0.1479(6) 0.4232(4)
H6F H -0.21497 0.43066 0.63714
H5F H -0.11068 0.28773 0.66296
H3F H -0.14800 -0.03240 0.50614
H4F H -0.07461 0.07591 0.62276
H1F H -0.14627 0.14030 0.39864
H2F H -0.07813 0.23574 0.50575
N3D N 0.0991(2) -0.1359(4) 0.5220(3)
H1B H 0.14627 -0.14030 0.60136
H2B H 0.07813 -0.23574 0.49425
N4D N 0.1013(2) 0.1607(4) 0.6487(3)
C7D C 0.1619(3) 0.2156(5) 0.6490(4)
C8D C 0.1447(3) 0.3286(6) 0.5811(4)
C9D C 0.1998(4) 0.3749(8) 0.5745(5)
C10D C 0.2743(4) 0.3111(9) 0.6389(6)
C11D C 0.2920(3) 0.2004(8) 0.7102(6)
C12D C 0.2360(3) 0.1512(6) 0.7152(4)
H13D H 0.24961 0.06443 0.76953
H12D H 0.35042 0.15264 0.76206
H11D H 0.31811 0.34674 0.63385
H10D H 0.18539 0.46105 0.51940
H9D H 0.08744 0.38056 0.53293
H7D H 0.12857 0.10615 0.71795
H8D H 0.07310 0.24595 0.64735
C2A C -0.0045(3) 0.5066(5) 0.3254(4)
N2A N -0.0044(3) 0.5968(5) 0.3734(4)
loop_
_geom_bond_atom_site_label_1
_geom_bond_atom_site_label_2
_geom_bond_site_symmetry_1
_geom_bond_site_symmetry_2
Cd1 N1 1_555 1_555
Ni1 C1 1_555 1_555
N1 C1 1_555 1_555
N2 C2 1_555 1_555
N3 C3 1_555 1_555
C2 Ni1 1_555 1_555
C3 C4 1_555 1_555
C4 C5 1_555 1_555
C5 C6 1_555 1_555
C6 C4F 1_555 1_555
N4 C7 1_555 1_555
C7 C8 1_555 1_555
C8 C9 1_555 1_555
C9 C10 1_555 1_555
C10 C11 1_555 1_555
C11 C12 1_555 1_555
C12 C7 1_555 1_555
H1 N3F 1_555 1_555
H2 N3F 1_555 1_555
H3 C3F 1_555 1_555
H4 C3F 1_555 1_555
H5 C5F 1_555 1_555
H6 C6F 1_555 1_555
H7 N4 1_555 1_555
H8 N4 1_555 1_555
H9 C8 1_555 1_555
H10 C9 1_555 1_555
H11 C10 1_555 1_555
H12 C11 1_555 1_555
H13 C12 1_555 1_555
C1A Ni1 1_555 1_555
N1A C1A 1_555 1_555
Cd1A N3 1_555 1_555
N1E Cd1A 1_555 1_555
C4F C3F 1_555 1_555
C3F N3F 1_555 1_555
N3F Cd1G 1_555 1_555
C5F C4F 1_555 1_555
C6F C4 1_555 1_555
H6F C6 1_555 1_555
H5F C5 1_555 1_555
H3F C3 1_555 1_555
H4F C3 1_555 1_555
H1F N3 1_555 1_555
H2F N3 1_555 1_555
N3D Cd1A 1_555 1_555
H1B N3D 1_555 1_555
H2B N3D 1_555 1_555
N4D Cd1A 1_555 1_555
C7D N4D 1_555 1_555
C8D C7D 1_555 1_555
C9D C8D 1_555 1_555
C10D C9D 1_555 1_555
C11D C10D 1_555 1_555
C12D C7D 1_555 1_555
H13D C12D 1_555 1_555
H12D C11D 1_555 1_555
H11D C10D 1_555 1_555
H10D C9D 1_555 1_555
H9D C8D 1_555 1_555
H7D N4D 1_555 1_555
H8D N4D 1_555 1_555
C2A Ni1 1_555 1_555
N2A C2A 1_555 1_555
N4 Cd1A 1_555 1_555
N1A Cd1A 1_555 1_555
C5F C6F 1_555 1_555
C11D C12D 1_555 1_555

#END
